14
Frame=0 idx=003727 GeodesicLength=0.0 rxn_smarts="[C:1]([C:2]#[C:3][C:4]1([H:10])[C:5]([H:11])([H:12])[C:6]1([H:13])[H:14])([H:7])([H:8])[H:9]>>[C:1]([C:2](=[C:3])[C:4]1([H:10])[C:5]([H:11])([H:12])[C:6]1([H:13])[H:14])([H:7])([H:8])[H:9]"
C        2.02061422       0.13482044      -0.66038740
C        0.93203734       0.94603116      -0.12739299
C        0.12178573       1.77789183       0.34439185
C       -0.51273890       0.30642273       0.78037244
C       -1.92544608       0.07446196       0.31765924
C       -0.89233370      -0.91667072      -0.06081155
H        2.49354851      -0.45995549       0.12241237
H        2.76781292       0.81901919      -1.06598672
H        1.69015564      -0.52567472      -1.46313233
H       -0.31536092       0.09813123       1.82311483
H       -2.64530926      -0.18271733       1.08397520
H       -2.28646265       0.74995086      -0.44531772
H       -0.86976707      -1.87253164       0.44649250
H       -0.57853574      -0.94917955      -1.09538974
14
Frame=1 idx=003727 GeodesicLength=0.06409371303036192 rxn_smarts="[C:1]([C:2]#[C:3][C:4]1([H:10])[C:5]([H:11])([H:12])[C:6]1([H:13])[H:14])([H:7])([H:8])[H:9]>>[C:1]([C:2](=[C:3])[C:4]1([H:10])[C:5]([H:11])([H:12])[C:6]1([H:13])[H:14])([H:7])([H:8])[H:9]"
C        2.04429695       0.14532238      -0.66118429
C        0.93526376       0.93211838      -0.13269013
C        0.12823381       1.76606821       0.33698310
C       -0.51487846       0.29008031       0.77815515
C       -1.93398213       0.08134881       0.32309488
C       -0.91704757      -0.92554604      -0.06061423
H        2.53955685      -0.42213444       0.12813323
H        2.76879440       0.84298329      -1.08459843
H        1.72542272      -0.53864364      -1.44881601
H       -0.31602292       0.07724007       1.82002792
H       -2.65470484      -0.16616709       1.09170132
H       -2.28877653       0.76101590      -0.43912642
H       -0.91007660      -1.88257934       0.44490836
H       -0.60607943      -0.96110680      -1.09597447
14
Frame=2 idx=003727 GeodesicLength=0.1276838456318582 rxn_smarts="[C:1]([C:2]#[C:3][C:4]1([H:10])[C:5]([H:11])([H:12])[C:6]1([H:13])[H:14])([H:7])([H:8])[H:9]>>[C:1]([C:2](=[C:3])[C:4]1([H:10])[C:5]([H:11])([H:12])[C:6]1([H:13])[H:14])([H:7])([H:8])[H:9]"
C        2.06851562       0.15611588      -0.66157930
C        0.93865555       0.91730118      -0.13849430
C        0.13496914       1.75352791       0.32900152
C       -0.51704761       0.27311114       0.77544081
C       -1.94248971       0.08837010       0.32894540
C       -0.94262195      -0.93428660      -0.06092130
H        2.58600105      -0.38131444       0.13454865
H        2.76896734       0.86634996      -1.10409076
H        1.76291743      -0.55250760      -1.43251347
H       -0.31636228       0.05533680       1.81627930
H       -2.66352864      -0.14947267       1.10022572
H       -2.29132075       0.77245834      -0.43210933
H       -0.95129544      -1.89235723       0.44258345
H       -0.63535975      -0.97263279      -1.09731638
14
Frame=3 idx=003727 GeodesicLength=0.19074441608082238 rxn_smarts="[C:1]([C:2]#[C:3][C:4]1([H:10])[C:5]([H:11])([H:12])[C:6]1([H:13])[H:14])([H:7])([H:8])[H:9]>>[C:1]([C:2](=[C:3])[C:4]1([H:10])[C:5]([H:11])([H:12])[C:6]1([H:13])[H:14])([H:7])([H:8])[H:9]"
C        2.09324603       0.16722068      -0.66156919
C        0.94225715       0.90152934      -0.14478520
C        0.14200102       1.74023108       0.32038966
C       -0.51924591       0.25549211       0.77220325
C       -1.95092714       0.09551451       0.33522256
C       -0.96904996      -0.94287741      -0.06172194
H        2.63265398      -0.33738003       0.14155579
H        2.76832975       0.88892165      -1.12447403
H        1.80275321      -0.56710102      -1.41410580
H       -0.31638952       0.03239313       1.81183607
H       -2.67172244      -0.13265491       1.10956901
H       -2.29405209       0.78427223      -0.42425021
H       -0.99342879      -1.90183890       0.43954315
H       -0.66642532      -0.98372246      -1.09941312
14
Frame=4 idx=003727 GeodesicLength=0.25333732673329 rxn_smarts="[C:1]([C:2]#[C:3][C:4]1([H:10])[C:5]([H:11])([H:12])[C:6]1([H:13])[H:14])([H:7])([H:8])[H:9]>>[C:1]([C:2](=[C:3])[C:4]1([H:10])[C:5]([H:11])([H:12])[C:6]1([H:13])[H:14])([H:7])([H:8])[H:9]"
C        2.11848290       0.17865765      -0.66113728
C        0.94612701       0.88472403      -0.15150255
C        0.14937157       1.72612689       0.31116053
C       -0.52147894       0.23716408       0.76843179
C       -1.95925857       0.10279643       0.34193437
C       -0.99636905      -0.95130729      -0.06304994
H        2.67948637      -0.28997538       0.14910740
H        2.76675044       0.91051243      -1.14598774
H        1.84508336      -0.58246045      -1.39329246
H       -0.31613313       0.00829281       1.80668912
H       -2.67924154      -0.11571657       1.11974847
H       -2.29690784       0.79652772      -0.41552352
H       -1.03656513      -1.91103526       0.43573542
H       -0.69934745      -0.99430709      -1.10231361
14
Frame=5 idx=003727 GeodesicLength=0.3152698114690865 rxn_smarts="[C:1]([C:2]#[C:3][C:4]1([H:10])[C:5]([H:11])([H:12])[C:6]1([H:13])[H:14])([H:7])([H:8])[H:9]>>[C:1]([C:2](=[C:3])[C:4]1([H:10])[C:5]([H:11])([H:12])[C:6]1([H:13])[H:14])([H:7])([H:8])[H:9]"
C        2.14415367       0.19044184      -0.66029112
C        0.95030515       0.86685732      -0.15865421
C        0.15703465       1.71114520       0.30114765
C       -0.52374145       0.21814636       0.76406311
C       -1.96741818       0.11015765       0.34909459
C       -1.02449668      -0.95952742      -0.06482395
H        2.72589755      -0.23930632       0.15690025
H        2.76443242       0.93074805      -1.16830236
H        1.88995912      -0.59798995      -1.37011120
H       -0.31559290      -0.01687878       1.80072897
H       -2.68599493      -0.09872244       1.13076248
H       -2.29984936       0.80908900      -0.40590332
H       -1.08057682      -1.91981456       0.43128815
H       -0.73411225      -1.00434598      -1.10589905
14
Frame=6 idx=003727 GeodesicLength=0.37666230758013436 rxn_smarts="[C:1]([C:2]#[C:3][C:4]1([H:10])[C:5]([H:11])([H:12])[C:6]1([H:13])[H:14])([H:7])([H:8])[H:9]>>[C:1]([C:2](=[C:3])[C:4]1([H:10])[C:5]([H:11])([H:12])[C:6]1([H:13])[H:14])([H:7])([H:8])[H:9]"
C        2.17023217       0.20258634      -0.65903745
C        0.95486847       0.84786771      -0.16614065
C        0.16503306       1.69528193       0.29036924
C       -0.52604387       0.19839261       0.75911396
C       -1.97536050       0.11761497       0.35669940
C       -1.05345930      -0.96755004      -0.06706624
H        2.77180871      -0.18511211       0.16486463
H        2.76128159       0.94948552      -1.19161960
H        1.93750929      -0.61369037      -1.34436836
H       -0.31482625      -0.04321668       1.79400939
H       -2.69194047      -0.08167225       1.14262225
H       -2.30278973       0.82203849      -0.39540954
H       -1.12555038      -1.92823015       0.42618191
H       -0.77076281      -1.01379597      -1.11021893
14
Frame=7 idx=003727 GeodesicLength=0.4373980014673309 rxn_smarts="[C:1]([C:2]#[C:3][C:4]1([H:10])[C:5]([H:11])([H:12])[C:6]1([H:13])[H:14])([H:7])([H:8])[H:9]>>[C:1]([C:2](=[C:3])[C:4]1([H:10])[C:5]([H:11])([H:12])[C:6]1([H:13])[H:14])([H:7])([H:8])[H:9]"
C        2.19662882       0.21510084      -0.65740052
C        0.95985288       0.82775327      -0.17397949
C        0.17331404       1.67851826       0.27862795
C       -0.52837747       0.17794212       0.75353648
C       -1.98301441       0.12511001       0.36474891
C       -1.08317385      -0.97536023      -0.06967279
H        2.81657813      -0.12781078       0.17274356
H        2.75761180       0.96648963      -1.21549187
H        1.98770961      -0.62890213      -1.31630168
H       -0.31382637      -0.07059432       1.78647054
H       -2.69698120      -0.06461570       1.15532620
H       -2.30568364       0.83523755      -0.38407145
H       -1.17136445      -1.93619711       0.42060330
H       -0.80927389      -1.02267141      -1.11513916
14
Frame=8 idx=003727 GeodesicLength=0.49746982423502906 rxn_smarts="[C:1]([C:2]#[C:3][C:4]1([H:10])[C:5]([H:11])([H:12])[C:6]1([H:13])[H:14])([H:7])([H:8])[H:9]>>[C:1]([C:2](=[C:3])[C:4]1([H:10])[C:5]([H:11])([H:12])[C:6]1([H:13])[H:14])([H:7])([H:8])[H:9]"
C        2.22326633       0.22799066      -0.65542080
C        0.96529302       0.80651870      -0.18217937
C        0.18182378       1.66088209       0.26574464
C       -0.53074752       0.15683446       0.74731353
C       -1.99031790       0.13260750       0.37323577
C       -1.11357374      -0.98298109      -0.07254337
H        2.85966942      -0.06787872       0.18036889
H        2.75373946       0.98169004      -1.23951603
H        2.04052668      -0.64306916      -1.28625327
H       -0.31261966      -0.09889293       1.77812797
H       -2.70104396      -0.04756695       1.16888526
H       -2.30847524       0.84859965      -0.37196240
H       -1.21793370      -1.94370388       0.41475508
H       -0.84960695      -1.03103038      -1.12055590
14
Frame=9 idx=003727 GeodesicLength=0.5568891234284732 rxn_smarts="[C:1]([C:2]#[C:3][C:4]1([H:10])[C:5]([H:11])([H:12])[C:6]1([H:13])[H:14])([H:7])([H:8])[H:9]>>[C:1]([C:2](=[C:3])[C:4]1([H:10])[C:5]([H:11])([H:12])[C:6]1([H:13])[H:14])([H:7])([H:8])[H:9]"
C        2.25008274       0.24125759      -0.65311685
C        0.97129321       0.78402457      -0.19058899
C        0.19060803       1.64224788       0.25169802
C       -0.53316547       0.13501567       0.74043969
C       -1.99720992       0.14010671       0.38213283
C       -1.14466587      -0.99038341      -0.07563665
H        2.90093930      -0.00524056       0.18762068
H        2.74962218       0.99506367      -1.26373191
H        2.09600485      -0.65605824      -1.25421628
H       -0.31129584      -0.12815579       1.76896508
H       -2.70408703      -0.03050354       1.18322609
H       -2.31104410       0.86211489      -0.35910799
H       -1.26533052      -1.95068128       0.40868128
H       -0.89175158      -1.03880816      -1.12636500
14
Frame=10 idx=003727 GeodesicLength=0.615629067617968 rxn_smarts="[C:1]([C:2]#[C:3][C:4]1([H:10])[C:5]([H:11])([H:12])[C:6]1([H:13])[H:14])([H:7])([H:8])[H:9]>>[C:1]([C:2](=[C:3])[C:4]1([H:10])[C:5]([H:11])([H:12])[C:6]1([H:13])[H:14])([H:7])([H:8])[H:9]"
C        2.27699035       0.25489966      -0.65050328
C        0.97782806       0.76036483      -0.19939054
C        0.19953728       1.62269709       0.23614035
C       -0.53561926       0.11257517       0.73284315
C       -2.00362937       0.14754837       0.39145428
C       -1.17636311      -0.99760262      -0.07882746
H        2.93964398       0.05923010       0.19443835
H        2.74587769       1.00660152      -1.28743132
H        2.15396380      -0.66708664      -1.22074116
H       -0.30978041      -0.15817483       1.75893885
H       -2.70598386      -0.01346703       1.19842645
H       -2.31340798       0.87563691      -0.34556867
H       -1.31337290      -1.95711746       0.40266244
H       -0.93568428      -1.04610505      -1.13244145
14
Frame=11 idx=003727 GeodesicLength=0.6736821118698568 rxn_smarts="[C:1]([C:2]#[C:3][C:4]1([H:10])[C:5]([H:11])([H:12])[C:6]1([H:13])[H:14])([H:7])([H:8])[H:9]>>[C:1]([C:2](=[C:3])[C:4]1([H:10])[C:5]([H:11])([H:12])[C:6]1([H:13])[H:14])([H:7])([H:8])[H:9]"
C        2.30391981       0.26891918      -0.64754932
C        0.98493933       0.73551283      -0.20857691
C        0.20858610       1.60216602       0.21893866
C       -0.53809790       0.08949258       0.72446512
C       -2.00950706       0.15491292       0.40119438
C       -1.20866056      -1.00461029      -0.08209899
H        2.97556119       0.12540843       0.20077656
H        2.74264013       1.01621690      -1.31052945
H        2.21427686      -0.67589620      -1.18575462
H       -0.30804625      -0.18897012       1.74796920
H       -2.70661955       0.00351320       1.21447987
H       -2.31551205       0.88914041      -0.33133047
H       -1.36204913      -1.96295722       0.39673681
H       -0.98143092      -1.05284863      -1.13872083
14
Frame=12 idx=003727 GeodesicLength=0.731099926292516 rxn_smarts="[C:1]([C:2]#[C:3][C:4]1([H:10])[C:5]([H:11])([H:12])[C:6]1([H:13])[H:14])([H:7])([H:8])[H:9]>>[C:1]([C:2](=[C:3])[C:4]1([H:10])[C:5]([H:11])([H:12])[C:6]1([H:13])[H:14])([H:7])([H:8])[H:9]"
C        2.33080383       0.28330925      -0.64425037
C        0.99270642       0.70943560      -0.21803801
C        0.21774287       1.58060662       0.20003827
C       -0.54061359       0.06573605       0.71529249
C       -2.01477752       0.16219808       0.41132854
C       -1.24154101      -1.01139078      -0.08543588
H        3.00856185       0.19322654       0.20656865
H        2.73996365       1.02388394      -1.33307241
H        2.27681269      -0.68233670      -1.14920127
H       -0.30615353      -0.22058858       1.73605166
H       -2.70592930       0.02042770       1.23134705
H       -2.31725815       0.90264407      -0.31642030
H       -1.41136878      -1.96817954       0.39093853
H       -1.02894943      -1.05897224      -1.14514696
14
Frame=13 idx=003727 GeodesicLength=0.7878929377396913 rxn_smarts="[C:1]([C:2]#[C:3][C:4]1([H:10])[C:5]([H:11])([H:12])[C:6]1([H:13])[H:14])([H:7])([H:8])[H:9]>>[C:1]([C:2](=[C:3])[C:4]1([H:10])[C:5]([H:11])([H:12])[C:6]1([H:13])[H:14])([H:7])([H:8])[H:9]"
C        2.35754363       0.29805853      -0.64061147
C        1.00124976       0.68209539      -0.22754179
C        0.22702930       1.55793934       0.17946209
C       -0.54317722       0.04126787       0.70533778
C       -2.01935667       0.16939515       0.42179551
C       -1.27496154      -1.01791152      -0.08881427
H        3.03855913       0.26264801       0.21164041
H        2.73778717       1.02954893      -1.35513779
H        2.34136648      -0.68625763      -1.11100515
H       -0.30420762      -0.25307615       1.72320294
H       -2.70386239       0.03726314       1.24890522
H       -2.31849177       0.91614760      -0.30090259
H       -1.46134572      -1.97272702       0.38529407
H       -1.07813254      -1.06439163      -1.15162496
14
Frame=14 idx=003727 GeodesicLength=0.844042193148297 rxn_smarts="[C:1]([C:2]#[C:3][C:4]1([H:10])[C:5]([H:11])([H:12])[C:6]1([H:13])[H:14])([H:7])([H:8])[H:9]>>[C:1]([C:2](=[C:3])[C:4]1([H:10])[C:5]([H:11])([H:12])[C:6]1([H:13])[H:14])([H:7])([H:8])[H:9]"
C        2.38403003       0.31313959      -0.63661187
C        1.01055451       0.65360838      -0.23719346
C        0.23632984       1.53420277       0.15694624
C       -0.54576956       0.01613981       0.69452010
C       -2.02316592       0.17646041       0.43258625
C       -1.30884812      -1.02417095      -0.09216964
H        3.06513877       0.33304002       0.21607373
H        2.73653058       1.03331277      -1.37633815
H        2.40756757      -0.68726854      -1.07144337
H       -0.30213207      -0.28632148       1.70934667
H       -2.70026875       0.05397459       1.26718174
H       -2.31919616       0.92956273      -0.28481073
H       -1.51182570      -1.97656550       0.37996508
H       -1.12894501      -1.06911459      -1.15805257
14
Frame=15 idx=003727 GeodesicLength=0.8995322651024129 rxn_smarts="[C:1]([C:2]#[C:3][C:4]1([H:10])[C:5]([H:11])([H:12])[C:6]1([H:13])[H:14])([H:7])([H:8])[H:9]>>[C:1]([C:2](=[C:3])[C:4]1([H:10])[C:5]([H:11])([H:12])[C:6]1([H:13])[H:14])([H:7])([H:8])[H:9]"
C        2.41014459       0.32852539      -0.63222546
C        1.02063879       0.62408468      -0.24699127
C        0.24557282       1.50940571       0.13234435
C       -0.54837213      -0.00962824       0.68277912
C       -2.02611356       0.18336085       0.44367145
C       -1.34313205      -1.03014779      -0.09547342
H        3.08806699       0.40402723       0.21989774
H        2.73639716       1.03522142      -1.39651406
H        2.47501900      -0.68516943      -1.03056632
H       -0.29988829      -0.32029010       1.69441600
H       -2.69500943       0.07051034       1.28614861
H       -2.31929996       0.94284577      -0.26817095
H       -1.56269664      -1.97965413       0.37502991
H       -1.18132729      -1.07309169      -1.16434572
14
Frame=16 idx=003727 GeodesicLength=0.9543661527621838 rxn_smarts="[C:1]([C:2]#[C:3][C:4]1([H:10])[C:5]([H:11])([H:12])[C:6]1([H:13])[H:14])([H:7])([H:8])[H:9]>>[C:1]([C:2](=[C:3])[C:4]1([H:10])[C:5]([H:11])([H:12])[C:6]1([H:13])[H:14])([H:7])([H:8])[H:9]"
C        2.43576811       0.34418190      -0.62744581
C        1.03151497       0.59364356      -0.25694070
C        0.25468268       1.48355866       0.10548481
C       -0.55097218      -0.03600243       0.67006487
C       -2.02811343       0.19006534       0.45499773
C       -1.37773310      -1.03584424      -0.09864988
H        3.10711412       0.47504263       0.22320394
H        2.73764677       1.03552153      -1.41538385
H        2.54326967      -0.67975711      -0.98866922
H       -0.29745859      -0.35489009       1.67837339
H       -2.68796665       0.08685702       1.30574685
H       -2.31872458       0.95592688      -0.25107349
H       -1.61384314      -1.98195810       0.37065577
H       -1.23518465      -1.07634553      -1.17036440
