9
Frame=0 idx=005596 GeodesicLength=0.0 rxn_smarts="[N:1](=[C:2](/[N:3]([C:4](=[O:5])[H:9])[H:8])[H:7])\[H:6]>>[H:7][H:8].[N:1](=[C:2]=[N:3][C:4](=[O:5])[H:9])[H:6]"
N       -0.96612722       1.32456636       0.45201790
C       -0.47064881       0.21023524       0.47217369
N        0.36738821      -0.64896841      -0.08153122
C        1.11265311      -0.32479098      -1.21271104
O        1.87786148      -1.08978296      -1.72608762
H       -1.64995351       1.66674200       1.10272447
H       -0.92334100      -0.65734105       1.54346037
H       -0.29049079      -1.17572351       1.05156500
H        0.94265856       0.69506335      -1.60161156
9
Frame=1 idx=005596 GeodesicLength=0.07301038929915345 rxn_smarts="[N:1](=[C:2](/[N:3]([C:4](=[O:5])[H:9])[H:8])[H:7])\[H:6]>>[H:7][H:8].[N:1](=[C:2]=[N:3][C:4](=[O:5])[H:9])[H:6]"
N       -0.93690054       1.35190371       0.48791404
C       -0.47552741       0.22225191       0.46464182
N        0.43322624      -0.59868780      -0.02979235
C        1.11829531      -0.32502143      -1.21040957
O        1.88141007      -1.09944094      -1.71252974
H       -1.65939750       1.66331879       1.11242465
H       -0.96553005      -0.68127359       1.50719511
H       -0.29193461      -1.19550700       1.03395036
H        0.89635851       0.66245634      -1.65339432
9
Frame=2 idx=005596 GeodesicLength=0.1463557759827518 rxn_smarts="[N:1](=[C:2](/[N:3]([C:4](=[O:5])[H:9])[H:8])[H:7])\[H:6]>>[H:7][H:8].[N:1](=[C:2]=[N:3][C:4](=[O:5])[H:9])[H:6]"
N       -0.91226643       1.37736213       0.52563721
C       -0.47787979       0.23805216       0.45790811
N        0.47891889      -0.55135484       0.00686694
C        1.11995393      -0.32749467      -1.20805845
O        1.88635588      -1.10927843      -1.69306511
H       -1.66950122       1.66030121       1.12251664
H       -1.00005841      -0.70468010       1.46800515
H       -0.28260531      -1.21083127       1.01676754
H        0.85708246       0.62792381      -1.69657803
9
Frame=3 idx=005596 GeodesicLength=0.22047340881278626 rxn_smarts="[N:1](=[C:2](/[N:3]([C:4](=[O:5])[H:9])[H:8])[H:7])\[H:6]>>[H:7][H:8].[N:1](=[C:2]=[N:3][C:4](=[O:5])[H:9])[H:6]"
N       -0.89135080       1.40118156       0.56243419
C       -0.47871368       0.25629134       0.45174317
N        0.51031687      -0.50921542       0.03234465
C        1.12290330      -0.32946478      -1.20404979
O        1.90099199      -1.11339886      -1.66611290
H       -1.67346007       1.66026390       1.13843344
H       -1.03015207      -0.72572520       1.42773334
H       -0.27293575      -1.22572597       0.99689965
H        0.81240020       0.58579344      -1.73942573
9
Frame=4 idx=005596 GeodesicLength=0.29468171400348697 rxn_smarts="[N:1](=[C:2](/[N:3]([C:4](=[O:5])[H:9])[H:8])[H:7])\[H:6]>>[H:7][H:8].[N:1](=[C:2]=[N:3][C:4](=[O:5])[H:9])[H:6]"
N       -0.87167446       1.42275098       0.60034464
C       -0.47919359       0.27493858       0.44617310
N        0.53198178      -0.47259793       0.05003765
C        1.12120550      -0.33381295      -1.20263688
O        1.91299041      -1.11680824      -1.64205649
H       -1.68046312       1.66013329       1.14872105
H       -1.05532077      -0.74453085       1.38966265
H       -0.25786749      -1.23844633       0.98261443
H        0.77834175       0.54837346      -1.77286015
9
Frame=5 idx=005596 GeodesicLength=0.36906427968683064 rxn_smarts="[N:1](=[C:2](/[N:3]([C:4](=[O:5])[H:9])[H:8])[H:7])\[H:6]>>[H:7][H:8].[N:1](=[C:2]=[N:3][C:4](=[O:5])[H:9])[H:6]"
N       -0.85554892       1.44297016       0.63585614
C       -0.47969640       0.29513579       0.43966577
N        0.54929269      -0.43745699       0.06444855
C        1.12479544      -0.33469601      -1.19781974
O        1.92832244      -1.11742579      -1.61554734
H       -1.68210010       1.66163364       1.16591437
H       -1.08022744      -0.76196725       1.34791486
H       -0.24353139      -1.25076991       0.96652750
H        0.73869368       0.50257635      -1.80696013
9
Frame=6 idx=005596 GeodesicLength=0.4437042246337255 rxn_smarts="[N:1](=[C:2](/[N:3]([C:4](=[O:5])[H:9])[H:8])[H:7])\[H:6]>>[H:7][H:8].[N:1](=[C:2]=[N:3][C:4](=[O:5])[H:9])[H:6]"
N       -0.83944656       1.46220837       0.67327885
C       -0.47944974       0.31668535       0.43346090
N        0.56316709      -0.40417851       0.07605477
C        1.12837748      -0.33473970      -1.19296569
O        1.94325272      -1.11658605      -1.58958862
H       -1.68388954       1.66346020       1.18236285
H       -1.10459565      -0.77869813       1.30256475
H       -0.22695109      -1.26173373       0.95272780
H        0.69953530       0.45358220      -1.83789562
9
Frame=7 idx=005596 GeodesicLength=0.5184130277478372 rxn_smarts="[N:1](=[C:2](/[N:3]([C:4](=[O:5])[H:9])[H:8])[H:7])\[H:6]>>[H:7][H:8].[N:1](=[C:2]=[N:3][C:4](=[O:5])[H:9])[H:6]"
N       -0.82522423       1.47972163       0.71018444
C       -0.47982083       0.33885372       0.42637144
N        0.57364474      -0.37263937       0.08487675
C        1.13013324      -0.33578611      -1.18920944
O        1.95717909      -1.11519871      -1.56461005
H       -1.68564624       1.66523140       1.19888183
H       -1.12623203      -0.79356126       1.25731282
H       -0.20897073      -1.27184917       0.94070990
H        0.66493699       0.40522786      -1.86451770
9
Frame=8 idx=005596 GeodesicLength=0.5932257058018638 rxn_smarts="[N:1](=[C:2](/[N:3]([C:4](=[O:5])[H:9])[H:8])[H:7])\[H:6]>>[H:7][H:8].[N:1](=[C:2]=[N:3][C:4](=[O:5])[H:9])[H:6]"
N       -0.81188366       1.49608110       0.74709946
C       -0.48036031       0.36218770       0.41853778
N        0.58152211      -0.34241484       0.09169220
C        1.13225174      -0.33605766      -1.18531134
O        1.97265901      -1.11123971      -1.53897241
H       -1.68589274       1.66737103       1.21736694
H       -1.14646704      -0.80642871       1.21084195
H       -0.19162000      -1.28194901       0.92786778
H        0.62979087       0.35245009      -1.88912237
9
Frame=9 idx=005596 GeodesicLength=0.6681123144743748 rxn_smarts="[N:1](=[C:2](/[N:3]([C:4](=[O:5])[H:9])[H:8])[H:7])\[H:6]>>[H:7][H:8].[N:1](=[C:2]=[N:3][C:4](=[O:5])[H:9])[H:6]"
N       -0.79979155       1.51092641       0.78377069
C       -0.48129224       0.38641272       0.40986035
N        0.58709571      -0.31332878       0.09661878
C        1.13282278      -0.33732450      -1.18223018
O        1.98733749      -1.10660108      -1.51408680
H       -1.68604370       1.66920909       1.23622201
H       -1.16483007      -0.81757099       1.16401356
H       -0.17330024      -1.29142173       0.91628903
H        0.59800182       0.29969887      -1.91045743
9
Frame=10 idx=005596 GeodesicLength=0.7431937882158691 rxn_smarts="[N:1](=[C:2](/[N:3]([C:4](=[O:5])[H:9])[H:8])[H:7])\[H:6]>>[H:7][H:8].[N:1](=[C:2]=[N:3][C:4](=[O:5])[H:9])[H:6]"
N       -0.78721342       1.52502489       0.82142710
C       -0.48170829       0.41249593       0.40074170
N        0.59089324      -0.28525091       0.10027595
C        1.13436383      -0.33694240      -1.17871224
O        2.00572125      -1.09675760      -1.48765769
H       -1.68390238       1.67147893       1.25792978
H       -1.18334777      -0.82634509       1.11419494
H       -0.15696925      -1.30137210       0.90213526
H        0.56216278       0.23766836      -1.93033479
9
Frame=11 idx=005596 GeodesicLength=0.8184100128207316 rxn_smarts="[N:1](=[C:2](/[N:3]([C:4](=[O:5])[H:9])[H:8])[H:7])\[H:6]>>[H:7][H:8].[N:1](=[C:2]=[N:3][C:4](=[O:5])[H:9])[H:6]"
N       -0.77590416       1.53782413       0.85820889
C       -0.48246389       0.43989452       0.39043429
N        0.59285656      -0.25782691       0.10240155
C        1.13442838      -0.33764040      -1.17596127
O        2.02347396      -1.08585777      -1.46182421
H       -1.68115999       1.67269622       1.28150936
H       -1.20069610      -0.83306080       1.06322967
H       -0.13991493      -1.31051849       0.88902054
H        0.52938016       0.17448950      -1.94701882
9
Frame=12 idx=005596 GeodesicLength=0.893863720768968 rxn_smarts="[N:1](=[C:2](/[N:3]([C:4](=[O:5])[H:9])[H:8])[H:7])\[H:6]>>[H:7][H:8].[N:1](=[C:2]=[N:3][C:4](=[O:5])[H:9])[H:6]"
N       -0.76459048       1.54962848       0.89528941
C       -0.48277734       0.46929380       0.37930424
N        0.59344575      -0.23096343       0.10342913
C        1.13471314      -0.33731098      -1.17323967
O        2.04256844      -1.07133448      -1.43578963
H       -1.67703107       1.67310767       1.30745745
H       -1.21792250      -0.83708841       1.00961987
H       -0.12387704      -1.31962400       0.87438725
H        0.49547110       0.10429133      -1.96045804
9
Frame=13 idx=005596 GeodesicLength=0.9695708988889712 rxn_smarts="[N:1](=[C:2](/[N:3]([C:4](=[O:5])[H:9])[H:8])[H:7])\[H:6]>>[H:7][H:8].[N:1](=[C:2]=[N:3][C:4](=[O:5])[H:9])[H:6]"
N       -0.75330402       1.56018177       0.93255211
C       -0.48247623       0.50050637       0.36772387
N        0.59272638      -0.20485827       0.10343875
C        1.13383931      -0.33726357      -1.17102836
O        2.06184048      -1.05379228      -1.41043805
H       -1.67227167       1.67252968       1.33426184
H       -1.23468053      -0.83853870       0.95403868
H       -0.10813286      -1.32863402       0.85940903
H        0.46245914       0.02986902      -1.96995787
9
Frame=14 idx=005596 GeodesicLength=1.0455081366042993 rxn_smarts="[N:1](=[C:2](/[N:3]([C:4](=[O:5])[H:9])[H:8])[H:7])\[H:6]>>[H:7][H:8].[N:1](=[C:2]=[N:3][C:4](=[O:5])[H:9])[H:6]"
N       -0.74205663       1.56919202       0.96992602
C       -0.48139187       0.53335874       0.35590760
N        0.59088242      -0.17964945       0.10261413
C        1.13191311      -0.33733939      -1.16925031
O        2.08031377      -1.03395172      -1.38652406
H       -1.66741976       1.67102352       1.36062214
H       -1.25071373      -0.83735239       0.89741474
H       -0.09246766      -1.33789791       0.84409222
H        0.43094034      -0.04738342      -1.97480249
9
Frame=15 idx=005596 GeodesicLength=1.1217174820800109 rxn_smarts="[N:1](=[C:2](/[N:3]([C:4](=[O:5])[H:9])[H:8])[H:7])\[H:6]>>[H:7][H:8].[N:1](=[C:2]=[N:3][C:4](=[O:5])[H:9])[H:6]"
N       -0.73073699       1.57647323       1.00741298
C       -0.47932714       0.56785211       0.34397418
N        0.58803911      -0.15539447       0.10110430
C        1.12913503      -0.33711244      -1.16786192
O        2.09776022      -1.01177704      -1.36433014
H       -1.66252576       1.66866474       1.38608790
H       -1.26619565      -0.83341109       0.83984892
H       -0.07691927      -1.34767633       0.82818251
H        0.40077045      -0.12761871      -1.97441873
9
Frame=16 idx=005596 GeodesicLength=1.1981238073155607 rxn_smarts="[N:1](=[C:2](/[N:3]([C:4](=[O:5])[H:9])[H:8])[H:7])\[H:6]>>[H:7][H:8].[N:1](=[C:2]=[N:3][C:4](=[O:5])[H:9])[H:6]"
N       -0.71966948       1.58179847       1.04445812
C       -0.47626059       0.60357813       0.33212766
N        0.58421105      -0.13235441       0.09903176
C        1.12516561      -0.33711482      -1.16688876
O        2.11321381      -0.98852563      -1.34441187
H       -1.65807888       1.66560137       1.40955877
H       -1.28085629      -0.82700644       0.78260399
H       -0.06083604      -1.35821298       0.81243412
H        0.37311080      -0.20776369      -1.96891378
