15
Frame=0 idx=009055 GeodesicLength=0.0 rxn_smarts="[N:1]([C@@:2]([C:3]#[N:4])([C:5]1([H:11])[C:6]([H:12])([H:13])[C:7]1([H:14])[H:15])[H:10])([H:8])[H:9]>>[N:1]([C@@:2]([C-:3]=[N+:4]=[C:6]([H:12])[H:13])([C:5](=[C:7]([H:14])[H:15])[H:11])[H:10])([H:8])[H:9]"
N        2.01143472      -0.67012728      -0.29541415
C        0.89929726      -0.14673873       0.42703493
C        0.99696962       1.36987909       0.88199783
N       -0.06761678       1.89283618       0.59580502
C       -0.41742159      -0.27413277      -0.44112283
C       -1.18644946       1.39779164       0.01348652
C       -1.24111617      -1.31918117      -0.14619599
H        2.74307034      -1.00837082       0.30947832
H        2.40343528       0.01368083      -0.92695317
H        0.77350030      -0.71590933       1.35147009
H       -0.22529971      -0.12745498      -1.50385261
H       -2.02340196       1.23544511       0.69012985
H       -1.48361037       1.84596351      -0.93269820
H       -1.76918796      -1.88100410      -0.90759956
H       -1.41360347      -1.61267718       0.88443393
15
Frame=1 idx=009055 GeodesicLength=0.11684155705995818 rxn_smarts="[N:1]([C@@:2]([C:3]#[N:4])([C:5]1([H:11])[C:6]([H:12])([H:13])[C:7]1([H:14])[H:15])[H:10])([H:8])[H:9]>>[N:1]([C@@:2]([C-:3]=[N+:4]=[C:6]([H:12])[H:13])([C:5](=[C:7]([H:14])[H:15])[H:11])[H:10])([H:8])[H:9]"
N        2.02622133      -0.68070052      -0.28341575
C        0.90518262      -0.15131518       0.42322960
C        1.00213454       1.36387322       0.86816256
N       -0.05663682       1.90067581       0.59427308
C       -0.39786878      -0.28199570      -0.45547738
C       -1.20449093       1.38264969       0.01662147
C       -1.25640617      -1.29772716      -0.15173649
H        2.76362305      -0.98208392       0.33439583
H        2.40824693      -0.00990538      -0.93498964
H        0.76895141      -0.71407511       1.35021187
H       -0.20337943      -0.13469342      -1.51718975
H       -2.02774498       1.23229383       0.71235467
H       -1.52340451       1.83297480      -0.92126241
H       -1.79343545      -1.85253178      -0.91195759
H       -1.41099281      -1.60743916       0.87677994
15
Frame=2 idx=009055 GeodesicLength=0.2334384888443618 rxn_smarts="[N:1]([C@@:2]([C:3]#[N:4])([C:5]1([H:11])[C:6]([H:12])([H:13])[C:7]1([H:14])[H:15])[H:10])([H:8])[H:9]>>[N:1]([C@@:2]([C-:3]=[N+:4]=[C:6]([H:12])[H:13])([C:5](=[C:7]([H:14])[H:15])[H:11])[H:10])([H:8])[H:9]"
N        2.04040812      -0.69099350      -0.27143761
C        0.91076338      -0.15580040       0.41954244
C        1.00721023       1.35789829       0.85447029
N       -0.04513374       1.90907486       0.59292292
C       -0.37910740      -0.29007384      -0.46890036
C       -1.22268765       1.36748787       0.01983162
C       -1.27098607      -1.27619814      -0.15708481
H        2.78290103      -0.95556283       0.35766227
H        2.41271054      -0.03397639      -0.94265645
H        0.76449885      -0.71204052       1.34903737
H       -0.18204043      -0.14232490      -1.52962835
H       -2.03208408       1.23040130       0.73413964
H       -1.56210269       1.81975833      -0.90971889
H       -1.81544254      -1.82472026      -0.91656316
H       -1.40890755      -1.60292988       0.86838309
15
Frame=3 idx=009055 GeodesicLength=0.3498747413803849 rxn_smarts="[N:1]([C@@:2]([C:3]#[N:4])([C:5]1([H:11])[C:6]([H:12])([H:13])[C:7]1([H:14])[H:15])[H:10])([H:8])[H:9]>>[N:1]([C@@:2]([C-:3]=[N+:4]=[C:6]([H:12])[H:13])([C:5](=[C:7]([H:14])[H:15])[H:11])[H:10])([H:8])[H:9]"
N        2.05404290      -0.70100586      -0.25944382
C        0.91605945      -0.16017826       0.41597166
C        1.01221009       1.35197494       0.84088659
N       -0.03305512       1.91806844       0.59176678
C       -0.36108960      -0.29836123      -0.48145221
C       -1.24109013       1.35230049       0.02313148
C       -1.28476224      -1.25474850      -0.16229631
H        2.80097279      -0.92884864       0.37933898
H        2.41683902      -0.05853585      -0.94994161
H        0.76013361      -0.70977338       1.34796020
H       -0.16123639      -0.15032337      -1.54122098
H       -2.03639251       1.22960174       0.75550838
H       -1.59982932       1.80641571      -0.89805350
H       -1.83543781      -1.79753595      -0.92141728
H       -1.40736474      -1.59905029       0.85926165
15
Frame=4 idx=009055 GeodesicLength=0.4661870683928714 rxn_smarts="[N:1]([C@@:2]([C:3]#[N:4])([C:5]1([H:11])[C:6]([H:12])([H:13])[C:7]1([H:14])[H:15])[H:10])([H:8])[H:9]>>[N:1]([C@@:2]([C-:3]=[N+:4]=[C:6]([H:12])[H:13])([C:5](=[C:7]([H:14])[H:15])[H:11])[H:10])([H:8])[H:9]"
N        2.06716454      -0.71072786      -0.24740236
C        0.92108757      -0.16443027       0.41251369
C        1.01714246       1.34612445       0.82737832
N       -0.02034710       1.92769033       0.59081909
C       -0.34376944      -0.30684295      -0.49319396
C       -1.25973882       1.33708782       0.02653395
C       -1.29767322      -1.23351349      -0.16742215
H        2.81788952      -0.90199624       0.39946493
H        2.42065776      -0.08358603      -0.95681403
H        0.75584258      -0.70724113       1.34698957
H       -0.14092657      -0.15866410      -1.55202308
H       -2.04064150       1.22973020       0.77648320
H       -1.63670298       1.79303320      -0.88625160
H       -1.85361094      -1.77096239      -0.92652753
H       -1.40637385      -1.59570154       0.84945195
15
Frame=5 idx=009055 GeodesicLength=0.5824364267224995 rxn_smarts="[N:1]([C@@:2]([C:3]#[N:4])([C:5]1([H:11])[C:6]([H:12])([H:13])[C:7]1([H:14])[H:15])[H:10])([H:8])[H:9]>>[N:1]([C@@:2]([C-:3]=[N+:4]=[C:6]([H:12])[H:13])([C:5](=[C:7]([H:14])[H:15])[H:11])[H:10])([H:8])[H:9]"
N        2.07980054      -0.72018366      -0.23528690
C        0.92585793      -0.16854513       0.40916143
C        1.02201896       1.34036240       0.81390897
N       -0.00694290       1.93798487       0.59007194
C       -0.32710740      -0.31550381      -0.50418583
C       -1.27868466       1.32183927       0.03005604
C       -1.30967564      -1.21260077      -0.17251451
H        2.83372855      -0.87501843       0.41811250
H        2.42418335      -0.10915316      -0.96325391
H        0.75160252      -0.70441498       1.34612827
H       -0.12107398      -0.16731514      -1.56208782
H       -2.04479844       1.23063902       0.79710129
H       -1.67285343       1.77969579      -0.87428193
H       -1.87011723      -1.74498501      -0.93191844
H       -1.40593816      -1.59280126       0.83898890
15
Frame=6 idx=009055 GeodesicLength=0.6986692071236378 rxn_smarts="[N:1]([C@@:2]([C:3]#[N:4])([C:5]1([H:11])[C:6]([H:12])([H:13])[C:7]1([H:14])[H:15])[H:10])([H:8])[H:9]>>[N:1]([C@@:2]([C-:3]=[N+:4]=[C:6]([H:12])[H:13])([C:5](=[C:7]([H:14])[H:15])[H:11])[H:10])([H:8])[H:9]"
N        2.09196927      -0.72936981      -0.22306421
C        0.93037608      -0.17249966       0.40590798
C        1.02684498       1.33471577       0.80043374
N        0.00723491       1.94900061       0.58951576
C       -0.31106260      -0.32431517      -0.51449331
C       -1.29797184       1.30654420       0.03371293
C       -1.32077137      -1.19209764      -0.17762668
H        2.84852035      -0.84797739       0.43532299
H        2.42744544      -0.13525742      -0.96921248
H        0.74737982      -0.70125015       1.34537987
H       -0.10164142      -0.17624225      -1.57147530
H       -2.04881265       1.23218843       0.81741020
H       -1.70840804       1.76646154      -0.86210758
H       -1.88506896      -1.71961615      -0.93761598
H       -1.40603396      -1.59028491       0.82791207
15
Frame=7 idx=009055 GeodesicLength=0.8149474193145245 rxn_smarts="[N:1]([C@@:2]([C:3]#[N:4])([C:5]1([H:11])[C:6]([H:12])([H:13])[C:7]1([H:14])[H:15])[H:10])([H:8])[H:9]>>[N:1]([C@@:2]([C-:3]=[N+:4]=[C:6]([H:12])[H:13])([C:5](=[C:7]([H:14])[H:15])[H:11])[H:10])([H:8])[H:9]"
N        2.10367918      -0.73829966      -0.21070433
C        0.93464158      -0.17627488       0.40274577
C        1.03162512       1.32920911       0.78690763
N        0.02227503       1.96079130       0.58913073
C       -0.29560040      -0.33325054      -0.52417872
C       -1.31765211       1.29118397       0.03751842
C       -1.33097203      -1.17206836      -0.18280785
H        2.86230499      -0.82091183       0.45114223
H        2.43047054      -0.16193334      -0.97464105
H        0.74313386      -0.69770222       1.34474725
H       -0.08259369      -0.18540338      -1.58024061
H       -2.05262971       1.23425768       0.83746914
H       -1.74349568       1.75337702      -0.84968552
H       -1.89855078      -1.69487374      -0.94365426
H       -1.40663588      -1.58810114       0.81625117
15
Frame=8 idx=009055 GeodesicLength=0.9313122332346273 rxn_smarts="[N:1]([C@@:2]([C:3]#[N:4])([C:5]1([H:11])[C:6]([H:12])([H:13])[C:7]1([H:14])[H:15])[H:10])([H:8])[H:9]>>[N:1]([C@@:2]([C-:3]=[N+:4]=[C:6]([H:12])[H:13])([C:5](=[C:7]([H:14])[H:15])[H:11])[H:10])([H:8])[H:9]"
N        2.11493592      -0.74700418      -0.19817762
C        0.93865090      -0.17985196       0.39966540
C        1.03635998       1.32386412       0.77328601
N        0.03827342       1.97341326       0.58886777
C       -0.28068856      -0.34227792      -0.53330470
C       -1.33778520       1.27572472       0.04151309
C       -1.34030946      -1.15255748      -0.18811144
H        2.87516005      -0.79383923       0.46566340
H        2.43326607      -0.18922213      -0.97950893
H        0.73881608      -0.69372507       1.34422454
H       -0.06390201      -0.19475530      -1.58843987
H       -2.05619225       1.23674041       0.85732285
H       -1.77823572       1.74048720      -0.83695459
H       -1.91066184      -1.67076918      -0.95007948
H       -1.40768738      -1.58622726       0.80403355
15
Frame=9 idx=009055 GeodesicLength=1.0479420942270121 rxn_smarts="[N:1]([C@@:2]([C:3]#[N:4])([C:5]1([H:11])[C:6]([H:12])([H:13])[C:7]1([H:14])[H:15])[H:10])([H:8])[H:9]>>[N:1]([C@@:2]([C-:3]=[N+:4]=[C:6]([H:12])[H:13])([C:5](=[C:7]([H:14])[H:15])[H:11])[H:10])([H:8])[H:9]"
N        2.12573800      -0.75552499      -0.18545073
C        0.94239140      -0.18321645       0.39664104
C        1.04103757       1.31870120       0.75949994
N        0.05537640       1.98691406       0.58861603
C       -0.26628481      -0.35137671      -0.54195098
C       -1.35845165       1.26008348       0.04570118
C       -1.34885989      -1.13358948      -0.19356143
H        2.88714460      -0.76670959       0.47899967
H        2.43585265      -0.21719388      -0.98375184
H        0.73437202      -0.68927221       1.34378827
H       -0.04551963      -0.20423720      -1.59614221
H       -2.05945374       1.23953870       0.87710911
H       -1.81272891       1.72785106      -0.82381545
H       -1.92145499      -1.64730563      -0.95691329
H       -1.40915901      -1.58466235       0.79123068
15
Frame=10 idx=009055 GeodesicLength=1.164649618150152 rxn_smarts="[N:1]([C@@:2]([C:3]#[N:4])([C:5]1([H:11])[C:6]([H:12])([H:13])[C:7]1([H:14])[H:15])[H:10])([H:8])[H:9]>>[N:1]([C@@:2]([C-:3]=[N+:4]=[C:6]([H:12])[H:13])([C:5](=[C:7]([H:14])[H:15])[H:11])[H:10])([H:8])[H:9]"
N        2.13608665      -0.76381946      -0.17248996
C        0.94586608      -0.18633701       0.39368453
C        1.04565808       1.31375408       0.74553203
N        0.07363493       2.00134144       0.58845077
C       -0.25236917      -0.36050682      -0.55014798
C       -1.37965689       1.24428855       0.05011623
C       -1.35663420      -1.11519809      -0.19921411
H        2.89824184      -0.73966383       0.49109624
H        2.43823063      -0.24581967      -0.98731747
H        0.72977179      -0.68429505       1.34345387
H       -0.02743237      -0.21384661      -1.60337929
H       -2.06234966       1.24256811       0.89677481
H       -1.84705846       1.71545256      -0.81027306
H       -1.93100294      -1.62453889      -0.96420129
H       -1.41098633      -1.58337933       0.77791467
15
Frame=11 idx=009055 GeodesicLength=1.28142844618834 rxn_smarts="[N:1]([C@@:2]([C:3]#[N:4])([C:5]1([H:11])[C:6]([H:12])([H:13])[C:7]1([H:14])[H:15])[H:10])([H:8])[H:9]>>[N:1]([C@@:2]([C-:3]=[N+:4]=[C:6]([H:12])[H:13])([C:5](=[C:7]([H:14])[H:15])[H:11])[H:10])([H:8])[H:9]"
N        2.14597950      -0.77189370      -0.15926959
C        0.94907065      -0.18918889       0.39078422
C        1.05022136       1.30904603       0.73133618
N        0.09316709       2.01674370       0.58833581
C       -0.23891284      -0.36963281      -0.55794869
C       -1.40144751       1.22829782       0.05479038
C       -1.36368627      -1.09739498      -0.20510843
H        2.90848664      -0.71273938       0.50204183
H        2.44039324      -0.27511588      -0.99016961
H        0.72496984      -0.67873985       1.34320905
H       -0.00961459      -0.22355480      -1.61019919
H       -2.06481385       1.24575537       0.91636497
H       -1.88132947       1.70328675      -0.79627226
H       -1.93936975      -1.60247978      -0.97197757
H       -1.41311404      -1.58238961       0.76408289
15
Frame=12 idx=009055 GeodesicLength=1.398258801591877 rxn_smarts="[N:1]([C@@:2]([C:3]#[N:4])([C:5]1([H:11])[C:6]([H:12])([H:13])[C:7]1([H:14])[H:15])[H:10])([H:8])[H:9]>>[N:1]([C@@:2]([C-:3]=[N+:4]=[C:6]([H:12])[H:13])([C:5](=[C:7]([H:14])[H:15])[H:11])[H:10])([H:8])[H:9]"
N        2.15540796      -0.77974384      -0.14576243
C        0.95199540      -0.19174703       0.38793003
C        1.05471819       1.30460628       0.71686459
N        0.11409852       2.03317175       0.58823608
C       -0.22589210      -0.37872739      -0.56540204
C       -1.42386992       1.21206608       0.05974960
C       -1.37006944      -1.08018690      -0.21127699
H        2.91789186      -0.68597637       0.51189288
H        2.44234272      -0.30509427      -0.99225109
H        0.71992042      -0.67255157       1.34304460
H        0.00796056      -0.23333335      -1.61664580
H       -2.06677651       1.24902968       0.93592809
H       -1.91562536       1.69133641      -0.78175960
H       -1.94661307      -1.58113763      -0.98027145
H       -1.41548923      -1.58171184       0.74972353
15
Frame=13 idx=009055 GeodesicLength=1.5151026008374333 rxn_smarts="[N:1]([C@@:2]([C:3]#[N:4])([C:5]1([H:11])[C:6]([H:12])([H:13])[C:7]1([H:14])[H:15])[H:10])([H:8])[H:9]>>[N:1]([C@@:2]([C-:3]=[N+:4]=[C:6]([H:12])[H:13])([C:5](=[C:7]([H:14])[H:15])[H:11])[H:10])([H:8])[H:9]"
N        2.16436048      -0.78737983      -0.13193180
C        0.95462978      -0.19399126       0.38511245
C        1.05913341       1.30045201       0.70207627
N        0.13655781       2.05066264       0.58812002
C       -0.21328142      -0.38776382      -0.57255482
C       -1.44697144       1.19552809       0.06503941
C       -1.37584945      -1.06357356      -0.21774844
H        2.92650602      -0.65935349       0.52071210
H        2.44406281      -0.33577894      -0.99351370
H        0.71457618      -0.66568271       1.34294226
H        0.02531825      -0.24316168      -1.62276084
H       -2.06816540       1.25234704       0.95547521
H       -1.95001056       1.67957932      -0.76667018
H       -1.95281302      -1.56050065      -0.98911430
H       -1.41805343      -1.58138317       0.73481636
15
Frame=14 idx=009055 GeodesicLength=1.6319471793690463 rxn_smarts="[N:1]([C@@:2]([C:3]#[N:4])([C:5]1([H:11])[C:6]([H:12])([H:13])[C:7]1([H:14])[H:15])[H:10])([H:8])[H:9]>>[N:1]([C@@:2]([C-:3]=[N+:4]=[C:6]([H:12])[H:13])([C:5](=[C:7]([H:14])[H:15])[H:11])[H:10])([H:8])[H:9]"
N        2.17282290      -0.79478934      -0.11774130
C        0.95696102      -0.19588873       0.38232210
C        1.06345810       1.29661772       0.68691799
N        0.16070730       2.06927211       0.58795105
C       -0.20106016      -0.39671191      -0.57945111
C       -1.47080152       1.17862418       0.07069193
C       -1.38107635      -1.04755441      -0.22455523
H        2.93432077      -0.63290833       0.52853907
H        2.44555277      -0.36718616      -0.99388064
H        0.70888736      -0.65806401       1.34289124
H        0.04248331      -0.25301969      -1.62858299
H       -2.06890162       1.25564729       0.97505837
H       -1.98457324       1.66796364      -0.75094547
H       -1.95802087      -1.54056323      -0.99853907
H       -1.42075978      -1.58143912       0.71932407
15
Frame=15 idx=009055 GeodesicLength=1.7487470089335793 rxn_smarts="[N:1]([C@@:2]([C:3]#[N:4])([C:5]1([H:11])[C:6]([H:12])([H:13])[C:7]1([H:14])[H:15])[H:10])([H:8])[H:9]>>[N:1]([C@@:2]([C-:3]=[N+:4]=[C:6]([H:12])[H:13])([C:5](=[C:7]([H:14])[H:15])[H:11])[H:10])([H:8])[H:9]"
N        2.18077945      -0.80196124      -0.10315057
C        0.95897343      -0.19741050       0.37955130
C        1.06767563       1.29313355       0.67133973
N        0.18671457       2.08904740       0.58769259
C       -0.18921012      -0.40554828      -0.58613060
C       -1.49540760       1.16128410       0.07674495
C       -1.38579927      -1.03212568      -0.23172409
H        2.94134140      -0.60666415       0.53539513
H        2.44680950      -0.39932308      -0.99326777
H        0.70280297      -0.64963073       1.34287921
H        0.05948289      -0.26289565      -1.63414713
H       -2.06891254       1.25888863       0.99471542
H       -2.01939188       1.65642868      -0.73452299
H       -1.96228813      -1.52130401      -1.00857793
H       -1.42357030      -1.58191906       0.70320275
15
Frame=16 idx=009055 GeodesicLength=1.8654517901602234 rxn_smarts="[N:1]([C@@:2]([C:3]#[N:4])([C:5]1([H:11])[C:6]([H:12])([H:13])[C:7]1([H:14])[H:15])[H:10])([H:8])[H:9]>>[N:1]([C@@:2]([C-:3]=[N+:4]=[C:6]([H:12])[H:13])([C:5](=[C:7]([H:14])[H:15])[H:11])[H:10])([H:8])[H:9]"
N        2.18821198      -0.80888316      -0.08810669
C        0.96064907      -0.19852648       0.37679486
C        1.07176329       1.29002820       0.65529113
N        0.21476682       2.11002551       0.58731052
C       -0.17771189      -0.41424858      -0.59263250
C       -1.52083983       1.14342485       0.08324892
C       -1.39007746      -1.01728162      -0.23928052
H        2.94759062      -0.58061343       0.54128999
H        2.44781804      -0.43220600      -0.99158290
H        0.69626949      -0.64031614       1.34289176
H        0.07634743      -0.27277643      -1.63948776
H       -2.06812122       1.26203928       1.01446494
H       -2.05453273       1.64490415      -0.71733328
H       -1.96568421      -1.50269430      -1.01926693
H       -1.42644942      -1.58287585       0.68639850
