12
Frame=0 idx=001131 GeodesicLength=0.0 rxn_smarts="[O:1]=[C:2]([C:3]([C@@:4]1([H:10])[C:5]([H:11])([H:12])[O:6]1)([H:8])[H:9])[H:7]>>[O:1]([C:2][C:3]([C@@:4]1([H:10])[C:5]([H:11])([H:12])[O:6]1)([H:8])[H:9])[H:7]"
O        1.72973651       0.66854252       1.10465460
C        1.82289964       0.13763620      -0.07648592
C        0.61110634      -0.51522224      -0.64759755
C       -0.60781787      -0.49311742       0.23615385
C       -1.59656727       0.57401233       0.14711931
O       -1.84694587      -0.70112807      -0.42202662
H        2.74884494       0.71423096       0.53964484
H        0.89547720      -1.54165114      -0.90604350
H        0.40420508      -0.03020903      -1.60773968
H       -0.51556072      -1.01575600       1.18462633
H       -2.19849996       0.82368244       1.01529875
H       -1.44687805       1.37897946      -0.56760437
12
Frame=1 idx=001131 GeodesicLength=0.031388410604471034 rxn_smarts="[O:1]=[C:2]([C:3]([C@@:4]1([H:10])[C:5]([H:11])([H:12])[O:6]1)([H:8])[H:9])[H:7]>>[O:1]([C:2][C:3]([C@@:4]1([H:10])[C:5]([H:11])([H:12])[O:6]1)([H:8])[H:9])[H:7]"
O        1.73127717       0.65831148       1.10733496
C        1.82716394       0.12022549      -0.06694573
C        0.61104660      -0.51819744      -0.64504642
C       -0.60943942      -0.49453646       0.23627003
C       -1.59557311       0.57492419       0.14713140
O       -1.84774869      -0.69867551      -0.42476684
H        2.74749054       0.74350620       0.52566831
H        0.88978757      -1.54488628      -0.90900821
H        0.40892426      -0.02667849      -1.60286651
H       -0.52046330      -1.01888331       1.18414010
H       -2.19913671       0.82424563       1.01429825
H       -1.44332887       1.38064452      -0.56620936
12
Frame=2 idx=001131 GeodesicLength=0.06278417219368373 rxn_smarts="[O:1]=[C:2]([C:3]([C@@:4]1([H:10])[C:5]([H:11])([H:12])[O:6]1)([H:8])[H:9])[H:7]>>[O:1]([C:2][C:3]([C@@:4]1([H:10])[C:5]([H:11])([H:12])[O:6]1)([H:8])[H:9])[H:7]"
O        1.73306531       0.64831941       1.11000391
C        1.83137201       0.10327379      -0.05747187
C        0.61115100      -0.52093499      -0.64243859
C       -0.61089139      -0.49582317       0.23644563
C       -1.59456959       0.57580377       0.14712061
O       -1.84834129      -0.69633796      -0.42741239
H        2.74482588       0.77130531       0.51144583
H        0.88442577      -1.54779140      -0.91187001
H        0.41374612      -0.02305762      -1.59792801
H       -0.52510006      -1.02176016       1.18375573
H       -2.19978984       0.82477152       1.01325374
H       -1.43989392       1.38223149      -0.56490458
12
Frame=3 idx=001131 GeodesicLength=0.0941933324731909 rxn_smarts="[O:1]=[C:2]([C:3]([C@@:4]1([H:10])[C:5]([H:11])([H:12])[O:6]1)([H:8])[H:9])[H:7]>>[O:1]([C:2][C:3]([C@@:4]1([H:10])[C:5]([H:11])([H:12])[O:6]1)([H:8])[H:9])[H:7]"
O        1.73499025       0.63899630       1.11244475
C        1.83542973       0.08717872      -0.04827226
C        0.61137758      -0.52329697      -0.63983639
C       -0.61216888      -0.49691875       0.23668735
C       -1.59369263       0.57658489       0.14706155
O       -1.84873978      -0.69426533      -0.42986830
H        2.74158885       0.79668621       0.49752541
H        0.87947633      -1.55022527      -0.91460063
H        0.41849815      -0.01932530      -1.59302821
H       -0.52934451      -1.02424623       1.18351826
H       -2.20056774       0.82519292       1.01215939
H       -1.43684735       1.38363881      -0.56379091
12
Frame=4 idx=001131 GeodesicLength=0.12565186825046837 rxn_smarts="[O:1]=[C:2]([C:3]([C@@:4]1([H:10])[C:5]([H:11])([H:12])[O:6]1)([H:8])[H:9])[H:7]>>[O:1]([C:2][C:3]([C@@:4]1([H:10])[C:5]([H:11])([H:12])[O:6]1)([H:8])[H:9])[H:7]"
O        1.73699756       0.63049939       1.11457852
C        1.83930700       0.07209128      -0.03943062
C        0.61168617      -0.52523912      -0.63727132
C       -0.61330255      -0.49781588       0.23699574
C       -1.59303167       0.57723827       0.14693656
O       -1.84900572      -0.69252549      -0.43210516
H        2.73837753       0.81938472       0.48417199
H        0.87494429      -1.55215516      -0.91718590
H        0.42308149      -0.01546829      -1.58822782
H       -0.53317980      -1.02632158       1.18344964
H       -2.20154725       0.82547385       1.01101069
H       -1.43432704       1.38483801      -0.56292232
12
Frame=5 idx=001131 GeodesicLength=0.15695712217487073 rxn_smarts="[O:1]=[C:2]([C:3]([C@@:4]1([H:10])[C:5]([H:11])([H:12])[O:6]1)([H:8])[H:9])[H:7]>>[O:1]([C:2][C:3]([C@@:4]1([H:10])[C:5]([H:11])([H:12])[O:6]1)([H:8])[H:9])[H:7]"
O        1.73886404       0.62310940       1.11622579
C        1.84284923       0.05810355      -0.03103026
C        0.61202634      -0.52670673      -0.63478098
C       -0.61428794      -0.49846905       0.23735505
C       -1.59262024       0.57770914       0.14675493
O       -1.84906222      -0.69116718      -0.43406829
H        2.73572640       0.83899534       0.47169743
H        0.87083436      -1.55349297      -0.91966164
H        0.42742458      -0.01149614      -1.58353163
H       -0.53656462      -1.02786014       1.18351484
H       -2.20274665       0.82557112       1.00981676
H       -1.43244327       1.38570366      -0.56229199
12
Frame=6 idx=001131 GeodesicLength=0.18832787034323648 rxn_smarts="[O:1]=[C:2]([C:3]([C@@:4]1([H:10])[C:5]([H:11])([H:12])[O:6]1)([H:8])[H:9])[H:7]>>[O:1]([C:2][C:3]([C@@:4]1([H:10])[C:5]([H:11])([H:12])[O:6]1)([H:8])[H:9])[H:7]"
O        1.74074934       0.61637124       1.11764239
C        1.84622290       0.04493650      -0.02290824
C        0.61239923      -0.52785572      -0.63232469
C       -0.61520146      -0.49899164       0.23775850
C       -1.59241807       0.57807517       0.14651491
O       -1.84907626      -0.69007946      -0.43588529
H        2.73350515       0.85659643       0.45970827
H        0.86703578      -1.55445876      -0.92200688
H        0.43158745      -0.00743625      -1.57893564
H       -0.53966978      -1.02912778       1.18370830
H       -2.20413893       0.82554184       1.00858088
H       -1.43099536       1.38642843      -0.56185250
12
Frame=7 idx=001131 GeodesicLength=0.21971312459529585 rxn_smarts="[O:1]=[C:2]([C:3]([C@@:4]1([H:10])[C:5]([H:11])([H:12])[O:6]1)([H:8])[H:9])[H:7]>>[O:1]([C:2][C:3]([C@@:4]1([H:10])[C:5]([H:11])([H:12])[O:6]1)([H:8])[H:9])[H:7]"
O        1.74259509       0.61018193       1.11884530
C        1.84940025       0.03244331      -0.01501644
C        0.61279679      -0.52873497      -0.62989016
C       -0.61605103      -0.49939270       0.23819368
C       -1.59238255       0.57834503       0.14623379
O       -1.84901256      -0.68920613      -0.43757537
H        2.73167485       0.87249748       0.44810584
H        0.86350896      -1.55508800      -0.92425022
H        0.43561266      -0.00331326      -1.57439134
H       -0.54254871      -1.03014034       1.18398288
H       -2.20569178       0.82540225       1.00730662
H       -1.42990197       1.38700540      -0.56154458
12
Frame=8 idx=001131 GeodesicLength=0.2511321607936775 rxn_smarts="[O:1]=[C:2]([C:3]([C@@:4]1([H:10])[C:5]([H:11])([H:12])[O:6]1)([H:8])[H:9])[H:7]>>[O:1]([C:2][C:3]([C@@:4]1([H:10])[C:5]([H:11])([H:12])[O:6]1)([H:8])[H:9])[H:7]"
O        1.74442944       0.60437129       1.11992716
C        1.85241569       0.02049207      -0.00729641
C        0.61321817      -0.52940730      -0.62746521
C       -0.61685805      -0.49970832       0.23865360
C       -1.59247522       0.57854496       0.14591875
O       -1.84890008      -0.68849083      -0.43918443
H        2.73012326       0.88712106       0.43673739
H        0.86020855      -1.55545695      -0.92639637
H        0.43953575       0.00084897      -1.56988926
H       -0.54526927      -1.03097826       1.18432474
H       -2.20736898       0.82517638       1.00600428
H       -1.42905926       1.38748694      -0.56133425
12
Frame=9 idx=001131 GeodesicLength=0.2824796978526638 rxn_smarts="[O:1]=[C:2]([C:3]([C@@:4]1([H:10])[C:5]([H:11])([H:12])[O:6]1)([H:8])[H:9])[H:7]>>[O:1]([C:2][C:3]([C@@:4]1([H:10])[C:5]([H:11])([H:12])[O:6]1)([H:8])[H:9])[H:7]"
O        1.74624809       0.59892220       1.12089158
C        1.85527349       0.00901599       0.00028254
C        0.61365605      -0.52989685      -0.62504515
C       -0.61762959      -0.49995064       0.23913250
C       -1.59267968       0.57868055       0.14557451
O       -1.84874284      -0.68791504      -0.44072909
H        2.72884597       0.90060702       0.42557386
H        0.85710248      -1.55559275      -0.92845778
H        0.44336665       0.00504721      -1.56541464
H       -0.54785290      -1.03166800       1.18471763
H       -2.20915252       0.82486689       1.00467555
H       -1.42843519       1.38788341      -0.56120152
12
Frame=10 idx=001131 GeodesicLength=0.3138287652740941 rxn_smarts="[O:1]=[C:2]([C:3]([C@@:4]1([H:10])[C:5]([H:11])([H:12])[O:6]1)([H:8])[H:9])[H:7]>>[O:1]([C:2][C:3]([C@@:4]1([H:10])[C:5]([H:11])([H:12])[O:6]1)([H:8])[H:9])[H:7]"
O        1.74799000       0.59383168       1.12172846
C        1.85795472      -0.00199356       0.00771652
C        0.61409975      -0.53020698      -0.62263489
C       -0.61836878      -0.50011790       0.23962618
C       -1.59299614       0.57874751       0.14520566
O       -1.84852938      -0.68747557      -0.44220832
H        2.72794566       0.91298658       0.41462841
H        0.85418691      -1.55549902      -0.93043624
H        0.44709632       0.00927258      -1.56096627
H       -0.55030634      -1.03220104       1.18514811
H       -2.21104459       0.82447089       1.00332347
H       -1.42802812       1.38818484      -0.56113110
12
Frame=11 idx=001131 GeodesicLength=0.3451966916012396 rxn_smarts="[O:1]=[C:2]([C:3]([C@@:4]1([H:10])[C:5]([H:11])([H:12])[O:6]1)([H:8])[H:9])[H:7]>>[O:1]([C:2][C:3]([C@@:4]1([H:10])[C:5]([H:11])([H:12])[O:6]1)([H:8])[H:9])[H:7]"
O        1.74971287       0.58903429       1.12247519
C        1.86049896      -0.01259474       0.01503206
C        0.61455064      -0.53035713      -0.62022940
C       -0.61909233      -0.50022465       0.24013687
C       -1.59343311       0.57875573       0.14480768
O       -1.84829742      -0.68716232      -0.44363425
H        2.72743953       0.92442332       0.40385624
H        0.85143618      -1.55520559      -0.93233645
H        0.45073555       0.01353842      -1.55654497
H       -0.55265650      -1.03261600       1.18562609
H       -2.21305964       0.82399251       1.00194493
H       -1.42783474       1.38841616      -0.56113398
12
Frame=12 idx=001131 GeodesicLength=0.37659202745292714 rxn_smarts="[O:1]=[C:2]([C:3]([C@@:4]1([H:10])[C:5]([H:11])([H:12])[O:6]1)([H:8])[H:9])[H:7]>>[O:1]([C:2][C:3]([C@@:4]1([H:10])[C:5]([H:11])([H:12])[O:6]1)([H:8])[H:9])[H:7]"
O        1.75144487       0.58439051       1.12319134
C        1.86292835      -0.02286370       0.02225286
C        0.61501503      -0.53037933      -0.61781821
C       -0.61980193      -0.50028002       0.24066410
C       -1.59396447       0.57872315       0.14438437
O       -1.84804444      -0.68694401      -0.44502000
H        2.72718852       0.93515388       0.39315879
H        0.84883253      -1.55474855      -0.93416496
H        0.45431330       0.01783232      -1.55213290
H       -0.55493320      -1.03293841       1.18614139
H       -2.21517797       0.82345619       1.00053806
H       -1.42780059       1.38859797      -0.56119484
12
Frame=13 idx=001131 GeodesicLength=0.407962733284999 rxn_smarts="[O:1]=[C:2]([C:3]([C@@:4]1([H:10])[C:5]([H:11])([H:12])[O:6]1)([H:8])[H:9])[H:7]>>[O:1]([C:2][C:3]([C@@:4]1([H:10])[C:5]([H:11])([H:12])[O:6]1)([H:8])[H:9])[H:7]"
O        1.75319905       0.57986822       1.12389296
C        1.86524101      -0.03284434       0.02939701
C        0.61548437      -0.53027529      -0.61539691
C       -0.62049092      -0.50027499       0.24121059
C       -1.59457643       0.57864660       0.14393378
O       -1.84775325      -0.68682119      -0.44636628
H        2.72717012       0.94523559       0.38251565
H        0.84634280      -1.55412364      -0.93594020
H        0.45783186       0.02216780      -1.54771181
H       -0.55713484      -1.03315188       1.18669369
H       -2.21739131       0.82285881       0.99909046
H       -1.42792246       1.38871431      -0.56131892
12
Frame=14 idx=001131 GeodesicLength=0.43929225526575744 rxn_smarts="[O:1]=[C:2]([C:3]([C@@:4]1([H:10])[C:5]([H:11])([H:12])[O:6]1)([H:8])[H:9])[H:7]>>[O:1]([C:2][C:3]([C@@:4]1([H:10])[C:5]([H:11])([H:12])[O:6]1)([H:8])[H:9])[H:7]"
O        1.75492068       0.57551056       1.12455407
C        1.86742155      -0.04251332       0.03644873
C        0.61595281      -0.53004366      -0.61297528
C       -0.62116446      -0.50021347       0.24176936
C       -1.59527206       0.57852270       0.14346028
O       -1.84742537      -0.68679375      -0.44767115
H        2.72746679       0.95463644       0.37197314
H        0.84397735      -1.55333339      -0.93765504
H        0.46127518       0.02652852      -1.54329922
H       -0.55926163      -1.03325888       1.18727306
H       -2.21969025       0.82219657       0.99761722
H       -1.42820057       1.38876168      -0.56149516
12
Frame=15 idx=001131 GeodesicLength=0.47065252063999286 rxn_smarts="[O:1]=[C:2]([C:3]([C@@:4]1([H:10])[C:5]([H:11])([H:12])[O:6]1)([H:8])[H:9])[H:7]>>[O:1]([C:2][C:3]([C@@:4]1([H:10])[C:5]([H:11])([H:12])[O:6]1)([H:8])[H:9])[H:7]"
O        1.75665287       0.57128889       1.12519019
C        1.86950325      -0.05191180       0.04342712
C        0.61642417      -0.52969202      -0.61054828
C       -0.62183296      -0.50010289       0.24234577
C       -1.59606972       0.57835659       0.14296039
O       -1.84708799      -0.68686298      -0.44893714
H        2.72811759       0.96343462       0.36150082
H        0.84172334      -1.55239320      -0.93931582
H        0.46465613       0.03093622      -1.53888847
H       -0.56132806      -1.03328239       1.18788958
H       -2.22210761       0.82147042       0.99610970
H       -1.42865101       1.38875854      -0.56173386
12
Frame=16 idx=001131 GeodesicLength=0.5020128032186659 rxn_smarts="[O:1]=[C:2]([C:3]([C@@:4]1([H:10])[C:5]([H:11])([H:12])[O:6]1)([H:8])[H:9])[H:7]>>[O:1]([C:2][C:3]([C@@:4]1([H:10])[C:5]([H:11])([H:12])[O:6]1)([H:8])[H:9])[H:7]"
O        1.75838705       0.56717411       1.12581547
C        1.87148493      -0.06107815       0.05035043
C        0.61689775      -0.52923265      -0.60811078
C       -0.62249462      -0.49994588       0.24293738
C       -1.59694982       0.57815164       0.14243711
O       -1.84673014      -0.68701455      -0.45017230
H        2.72906020       0.97170546       0.35106124
H        0.83956760      -1.55131127      -0.94093185
H        0.46798688       0.03538871      -1.53446580
H       -0.56334324      -1.03322689       1.18853468
H       -2.22461832       0.82068691       0.99457134
H       -1.42924828       1.38870256      -0.56202690
