11
Frame=0 idx=001764 GeodesicLength=0.0 rxn_smarts="[N:1]([c:2]1[c:3]([H:9])[n:4]([H:10])[n:5][c:6]1[H:11])([H:7])[H:8]>>[N:1]([C@@:2]1([H:9])[C:3][N:4]([H:10])[N:5]=[C:6]1[H:11])([H:7])[H:8]"
N       -1.73116092      -0.40246863      -0.43297287
C       -0.40522647      -0.12534340      -0.09067259
C        0.72278073      -1.00175499      -0.35035877
N        1.74602824      -0.13568341      -0.12320236
N        1.43331831       1.14340526       0.18552126
C        0.13947532       1.18758142       0.20130048
H       -2.41222612      -0.17187272       0.27272034
H       -1.84687833      -1.34685389      -0.76784184
H        0.02319684      -0.86969306       0.82945458
H        2.71858461      -0.38354148      -0.13355487
H       -0.38789222       2.10622488       0.40960660
11
Frame=1 idx=001764 GeodesicLength=0.045559184246623786 rxn_smarts="[N:1]([c:2]1[c:3]([H:9])[n:4]([H:10])[n:5][c:6]1[H:11])([H:7])[H:8]>>[N:1]([C@@:2]1([H:9])[C:3][N:4]([H:10])[N:5]=[C:6]1[H:11])([H:7])[H:8]"
N       -1.73028733      -0.40009977      -0.43694142
C       -0.40569397      -0.12771946      -0.08028014
C        0.72412661      -0.99607776      -0.35215680
N        1.74725681      -0.13163896      -0.13033247
N        1.43289579       1.14785620       0.18133938
C        0.13895043       1.18587499       0.21003199
H       -2.41637441      -0.15874634       0.26039894
H       -1.84849427      -1.34910275      -0.75788439
H        0.02712668      -0.89712006       0.83444437
H        2.71969634      -0.38066511      -0.13221967
H       -0.38920267       2.10743901       0.40360021
11
Frame=2 idx=001764 GeodesicLength=0.09112136777269705 rxn_smarts="[N:1]([c:2]1[c:3]([H:9])[n:4]([H:10])[n:5][c:6]1[H:11])([H:7])[H:8]>>[N:1]([C@@:2]1([H:9])[C:3][N:4]([H:10])[N:5]=[C:6]1[H:11])([H:7])[H:8]"
N       -1.72924131      -0.39769157      -0.44083967
C       -0.40613599      -0.13011869      -0.06969859
C        0.72539334      -0.99046330      -0.35342996
N        1.74839888      -0.12759959      -0.13720038
N        1.43235553       1.15246164       0.17672478
C        0.13845538       1.18430439       0.21838457
H       -2.42020105      -0.14564893       0.24801799
H       -1.85022340      -1.35100733      -0.74798474
H        0.03107651      -0.92496742       0.83908229
H        2.72068244      -0.37767654      -0.13088019
H       -0.39056033       2.10840733       0.39782390
11
Frame=3 idx=001764 GeodesicLength=0.1366365305190364 rxn_smarts="[N:1]([c:2]1[c:3]([H:9])[n:4]([H:10])[n:5][c:6]1[H:11])([H:7])[H:8]>>[N:1]([C@@:2]1([H:9])[C:3][N:4]([H:10])[N:5]=[C:6]1[H:11])([H:7])[H:8]"
N       -1.72803400      -0.39524472      -0.44464698
C       -0.40655393      -0.13251798      -0.05896252
C        0.72658051      -0.98492555      -0.35415689
N        1.74945570      -0.12358359      -0.14381309
N        1.43169850       1.15721420       0.17163214
C        0.13798976       1.18290844       0.22619818
H       -2.42368439      -0.13264979       0.23565257
H       -1.85205553      -1.35254589      -0.73818842
H        0.03502594      -0.95317166       0.84334206
H        2.72154714      -0.37460404      -0.12945219
H       -0.39196970       2.10912058       0.39239515
11
Frame=4 idx=001764 GeodesicLength=0.18215793699195945 rxn_smarts="[N:1]([c:2]1[c:3]([H:9])[n:4]([H:10])[n:5][c:6]1[H:11])([H:7])[H:8]>>[N:1]([C@@:2]1([H:9])[C:3][N:4]([H:10])[N:5]=[C:6]1[H:11])([H:7])[H:8]"
N       -1.72665829      -0.39277095      -0.44837760
C       -0.40694705      -0.13491900      -0.04809023
C        0.72769472      -0.97948030      -0.35432978
N        1.75043039      -0.11959797      -0.15019485
N        1.43092039       1.16213137       0.16595248
C        0.13755339       1.18169959       0.23339252
H       -2.42682527      -0.11971244       0.22327509
H       -1.85398503      -1.35376564      -0.72846567
H        0.03896174      -0.98173439       0.84722389
H        2.72229352      -0.37145993      -0.12786406
H       -0.39343849       2.10960965       0.38747820
11
Frame=5 idx=001764 GeodesicLength=0.2276739746217766 rxn_smarts="[N:1]([c:2]1[c:3]([H:9])[n:4]([H:10])[n:5][c:6]1[H:11])([H:7])[H:8]>>[N:1]([C@@:2]1([H:9])[C:3][N:4]([H:10])[N:5]=[C:6]1[H:11])([H:7])[H:8]"
N       -1.72511959      -0.39027007      -0.45200774
C       -0.40731572      -0.13731186      -0.03707329
C        0.72874189      -0.97412352      -0.35397219
N        1.75132889      -0.11564873      -0.15634473
N        1.43002061       1.16719789       0.15972873
C        0.13714220       1.18068100       0.23998829
H       -2.42962321      -0.10685455       0.21092770
H       -1.85601054      -1.35466334      -0.71882031
H        0.04287409      -1.01069360       0.85067628
H        2.72293234      -0.36824084      -0.12609920
H       -0.39497096       2.10992761       0.38299645
11
Frame=6 idx=001764 GeodesicLength=0.2731871257493231 rxn_smarts="[N:1]([c:2]1[c:3]([H:9])[n:4]([H:10])[n:5][c:6]1[H:11])([H:7])[H:8]>>[N:1]([C@@:2]1([H:9])[C:3][N:4]([H:10])[N:5]=[C:6]1[H:11])([H:7])[H:8]"
N       -1.72342028      -0.38773956      -0.45551939
C       -0.40766037      -0.13968744      -0.02590925
C        0.72972590      -0.96885354      -0.35308775
N        1.75215277      -0.11174348      -0.16225399
N        1.42899709       1.17240000       0.15298047
C        0.13675264       1.17985288       0.24599047
H       -2.43207250      -0.09410022       0.19865285
H       -1.85812312      -1.35523520      -0.70926889
H        0.04674455      -1.04007458       0.85366345
H        2.72346846      -0.36494199      -0.12415025
H       -0.39656515       2.11012313       0.37890228
11
Frame=7 idx=001764 GeodesicLength=0.3186696770525338 rxn_smarts="[N:1]([c:2]1[c:3]([H:9])[n:4]([H:10])[n:5][c:6]1[H:11])([H:7])[H:8]>>[N:1]([C@@:2]1([H:9])[C:3][N:4]([H:10])[N:5]=[C:6]1[H:11])([H:7])[H:8]"
N       -1.72157340      -0.38516888      -0.45887782
C       -0.40798037      -0.14202285      -0.01460655
C        0.73064605      -0.96367069      -0.35167237
N        1.75290405      -0.10789460      -0.16791399
N        1.42785127       1.17771903       0.14572509
C        0.13638328       1.17923003       0.25137050
H       -2.43416623      -0.08152483       0.18655338
H       -1.86030496      -1.35545529      -0.69987885
H        0.05055171      -1.06987307       0.85614054
H        2.72390463      -0.36157329      -0.12198164
H       -0.39821602       2.11023442       0.37514172
11
Frame=8 idx=001764 GeodesicLength=0.3641530560807715 rxn_smarts="[N:1]([c:2]1[c:3]([H:9])[n:4]([H:10])[n:5][c:6]1[H:11])([H:7])[H:8]>>[N:1]([C@@:2]1([H:9])[C:3][N:4]([H:10])[N:5]=[C:6]1[H:11])([H:7])[H:8]"
N       -1.71957774      -0.38255569      -0.46206822
C       -0.40827576      -0.14432004      -0.00315027
C        0.73151094      -0.95856664      -0.34975305
N        1.75358799      -0.10409680      -0.17333202
N        1.42657941       1.18315874       0.13796721
C        0.13602951       1.17879883       0.25619957
H       -2.43591199      -0.06910845       0.17464553
H       -1.86255141      -1.35534069      -0.69062718
H        0.05428451      -1.10015504       0.85804991
H        2.72424652      -0.35812725      -0.11956505
H       -0.39992198       2.11031303       0.37163357
11
Frame=9 idx=001764 GeodesicLength=0.4096331578719057 rxn_smarts="[N:1]([c:2]1[c:3]([H:9])[n:4]([H:10])[n:5][c:6]1[H:11])([H:7])[H:8]>>[N:1]([C@@:2]1([H:9])[C:3][N:4]([H:10])[N:5]=[C:6]1[H:11])([H:7])[H:8]"
N       -1.71742743      -0.37990501      -0.46507706
C       -0.40854246      -0.14657534       0.00848244
C        0.73232902      -0.95352251      -0.34736758
N        1.75421092      -0.10034259      -0.17851636
N        1.42517183       1.18871255       0.12969070
C        0.13568826       1.17854267       0.26055792
H       -2.43732255      -0.05679666       0.16290233
H       -1.86486651      -1.35491873      -0.68143495
H        0.05794491      -1.13098754       0.85929888
H        2.72449762      -0.35458433      -0.11685012
H       -0.40168361       2.11037749       0.36831379
11
Frame=10 idx=001764 GeodesicLength=0.45510659870264136 rxn_smarts="[N:1]([c:2]1[c:3]([H:9])[n:4]([H:10])[n:5][c:6]1[H:11])([H:7])[H:8]>>[N:1]([C@@:2]1([H:9])[C:3][N:4]([H:10])[N:5]=[C:6]1[H:11])([H:7])[H:8]"
N       -1.71513759      -0.37720198      -0.46787299
C       -0.40877714      -0.14876703       0.02027638
C        0.73310112      -0.94854548      -0.34449039
N        1.75477140      -0.09664321      -0.18345818
N        1.42362462       1.19436254       0.12092081
C        0.13535951       1.17847625       0.26441174
H       -2.43838775      -0.04466879       0.15144397
H       -1.86722394      -1.35416208      -0.67238589
H        0.06150491      -1.16235781       0.85984621
H        2.72465749      -0.35095403      -0.11381346
H       -0.40349263       2.11046164       0.36512180
11
Frame=11 idx=001764 GeodesicLength=0.5005758034807043 rxn_smarts="[N:1]([c:2]1[c:3]([H:9])[n:4]([H:10])[n:5][c:6]1[H:11])([H:7])[H:8]>>[N:1]([C@@:2]1([H:9])[C:3][N:4]([H:10])[N:5]=[C:6]1[H:11])([H:7])[H:8]"
N       -1.71270055      -0.37445047      -0.47044721
C       -0.40898074      -0.15089243       0.03225111
C        0.73383537      -0.94362751      -0.34112371
N        1.75527784      -0.09299368      -0.18815506
N        1.42193871       1.20010610       0.11163429
C        0.13504205       1.17858540       0.26783019
H       -2.43912180      -0.03268914       0.14024667
H       -1.86962068      -1.35309745      -0.66342541
H        0.06494018      -1.19431208       0.85961809
H        2.72473146      -0.34721144      -0.11044024
H       -0.40534183       2.11058269       0.36201131
11
Frame=12 idx=001764 GeodesicLength=0.5460412793296322 rxn_smarts="[N:1]([c:2]1[c:3]([H:9])[n:4]([H:10])[n:5][c:6]1[H:11])([H:7])[H:8]>>[N:1]([C@@:2]1([H:9])[C:3][N:4]([H:10])[N:5]=[C:6]1[H:11])([H:7])[H:8]"
N       -1.71012664      -0.37164515      -0.47278051
C       -0.40914929      -0.15293221       0.04439825
C        0.73453567      -0.93878029      -0.33722746
N        1.75572954      -0.08940410      -0.19260216
N        1.42010812       1.20592757       0.10184092
C        0.13473728       1.17888030       0.27079448
H       -2.43952777      -0.02090210       0.12938413
H       -1.87202797      -1.35171943      -0.65460971
H        0.06822077      -1.22683280       0.85857944
H        2.72472347      -0.34335945      -0.10672916
H       -0.40722316       2.11076768       0.35895178
11
Frame=13 idx=001764 GeodesicLength=0.5915006790191697 rxn_smarts="[N:1]([c:2]1[c:3]([H:9])[n:4]([H:10])[n:5][c:6]1[H:11])([H:7])[H:8]>>[N:1]([C@@:2]1([H:9])[C:3][N:4]([H:10])[N:5]=[C:6]1[H:11])([H:7])[H:8]"
N       -1.70741447      -0.36878459      -0.47486014
C       -0.40928058      -0.15488000       0.05673034
C        0.73521100      -0.93399547      -0.33280425
N        1.75613288      -0.08587132      -0.19679779
N        1.41812533       1.21181971       0.09151040
C        0.13444614       1.17934890       0.27335632
H       -2.43961636      -0.00928374       0.11885623
H       -1.87444264      -1.35004596      -0.64589021
H        0.07133248      -1.25995438       0.85663910
H        2.72463515      -0.33937708      -0.10263627
H       -0.40912893       2.11102393       0.35589628
11
Frame=14 idx=001764 GeodesicLength=0.6369799550933651 rxn_smarts="[N:1]([c:2]1[c:3]([H:9])[n:4]([H:10])[n:5][c:6]1[H:11])([H:7])[H:8]>>[N:1]([C@@:2]1([H:9])[C:3][N:4]([H:10])[N:5]=[C:6]1[H:11])([H:7])[H:8]"
N       -1.70457254      -0.36586690      -0.47667481
C       -0.40937723      -0.15671511       0.06923973
C        0.73586789      -0.92929168      -0.32780601
N        1.75649261      -0.08240602      -0.20073642
N        1.41599490       1.21777001       0.08065258
C        0.13417018       1.18000865       0.27550982
H       -2.43939702       0.00212128       0.10872779
H       -1.87683609      -1.34808770      -0.63731844
H        0.07422750      -1.29366459       0.85376741
H        2.72447521      -0.33526075      -0.09817846
H       -0.41104540       2.11139281       0.35281682
11
Frame=15 idx=001764 GeodesicLength=0.6824135848716053 rxn_smarts="[N:1]([c:2]1[c:3]([H:9])[n:4]([H:10])[n:5][c:6]1[H:11])([H:7])[H:8]>>[N:1]([C@@:2]1([H:9])[C:3][N:4]([H:10])[N:5]=[C:6]1[H:11])([H:7])[H:8]"
N       -1.70159946      -0.36288889      -0.47820778
C       -0.40943395      -0.15843027       0.08193853
C        0.73651565      -0.92464865      -0.32220406
N        1.75681097      -0.07900246      -0.20441500
N        1.41370171       1.22375052       0.06922424
C        0.13391318       1.18082507       0.27728594
H       -2.43888185       0.01333938       0.09898355
H       -1.87920174      -1.34584188      -0.62883982
H        0.07689761      -1.32795550       0.84986193
H        2.72424439      -0.33098026      -0.09331499
H       -0.41296651       2.11183294       0.34968745
11
Frame=16 idx=001764 GeodesicLength=0.7278656104760775 rxn_smarts="[N:1]([c:2]1[c:3]([H:9])[n:4]([H:10])[n:5][c:6]1[H:11])([H:7])[H:8]>>[N:1]([C@@:2]1([H:9])[C:3][N:4]([H:10])[N:5]=[C:6]1[H:11])([H:7])[H:8]"
N       -1.69849170      -0.35985994      -0.47946446
C       -0.40945160      -0.16001324       0.09483263
C        0.73716461      -0.92009391      -0.31595847
N        1.75709153      -0.07566958      -0.20784194
N        1.41123838       1.22976116       0.05719370
C        0.13367899       1.18181755       0.27870894
H       -2.43808186       0.02438133       0.08961948
H       -1.88152248      -1.34334912      -0.62044401
H        0.07930772      -1.36284328       0.84488345
H        2.72394692      -0.32652204      -0.08804818
H       -0.41488051       2.11239108       0.34651886
