16
Frame=0 idx=009590 GeodesicLength=0.0 rxn_smarts="[C:1]([C:2]1([C:3]([H:11])([H:12])[H:13])[N:4]([H:14])[C:5]([H:15])([H:16])[C:6]1=[O:7])([H:8])([H:9])[H:10]>>[C-:6]#[O+:7].[C:1]([C+:2]([C:3]([H:11])([H:12])[H:13])[N:4]([C-:5]([H:15])[H:16])[H:14])([H:8])([H:9])[H:10]"
C        1.57726174      -0.78147333      -0.42790019
C        0.31985102      -0.00929614      -0.14664783
C        0.35490934       1.44956280      -0.50419136
N       -0.85354741      -0.68229148      -0.35347671
C       -1.99497108      -0.22612204       0.22431963
C       -0.38831243       0.06841971       1.78380655
O       -0.05723512      -0.55249302       2.69376975
H        2.37902584      -0.42378565       0.21989441
H        1.91440368      -0.66195632      -1.46337361
H        1.45001973      -1.84796781      -0.22888880
H        1.27084049       1.90004016      -0.12074588
H       -0.48476712       1.99716360      -0.07966752
H        0.34277229       1.58363348      -1.59247854
H       -0.75865192      -1.68711109      -0.36231756
H       -2.26028656       0.80784787       0.07064842
H       -2.81131245      -0.93417071       0.28724924
16
Frame=1 idx=009590 GeodesicLength=0.055028708823857804 rxn_smarts="[C:1]([C:2]1([C:3]([H:11])([H:12])[H:13])[N:4]([H:14])[C:5]([H:15])([H:16])[C:6]1=[O:7])([H:8])([H:9])[H:10]>>[C-:6]#[O+:7].[C:1]([C+:2]([C:3]([H:11])([H:12])[H:13])[N:4]([C-:5]([H:15])[H:16])[H:14])([H:8])([H:9])[H:10]"
C        1.57779716      -0.78102139      -0.41404438
C        0.31918892      -0.00441695      -0.14670199
C        0.35917064       1.45258844      -0.50925167
N       -0.85401167      -0.67590437      -0.37191199
C       -1.99136433      -0.23053168       0.22824489
C       -0.39747528       0.05759189       1.78137172
O       -0.07083464      -0.55753288       2.69715834
H        2.37602466      -0.42347746       0.23836255
H        1.92384580      -0.66910941      -1.44736259
H        1.44743716      -1.84639108      -0.21069053
H        1.29914952       1.89744645      -0.18166292
H       -0.44738719       2.01653375      -0.04332945
H        0.29081600       1.59199562      -1.59474514
H       -0.76037041      -1.68040414      -0.40320965
H       -2.27239781       0.79969580       0.07481076
H       -2.79958853      -0.94706260       0.30296205
16
Frame=2 idx=009590 GeodesicLength=0.10942358186202447 rxn_smarts="[C:1]([C:2]1([C:3]([H:11])([H:12])[H:13])[N:4]([H:14])[C:5]([H:15])([H:16])[C:6]1=[O:7])([H:8])([H:9])[H:10]>>[C-:6]#[O+:7].[C:1]([C+:2]([C:3]([H:11])([H:12])[H:13])[N:4]([C-:5]([H:15])[H:16])[H:14])([H:8])([H:9])[H:10]"
C        1.57807291      -0.78066849      -0.40031750
C        0.31851541       0.00044783      -0.14678151
C        0.36363490       1.45565196      -0.51413847
N       -0.85434827      -0.66937733      -0.39014487
C       -1.98761628      -0.23528819       0.23176255
C       -0.40664956       0.04737340       1.77881034
O       -0.08456972      -0.56141053       2.70073761
H        2.37295533      -0.42288103       0.25621048
H        1.93261785      -0.67671419      -1.43152262
H        1.44438479      -1.84479199      -0.19227114
H        1.32503611       1.89329795      -0.24420929
H       -0.40675976       2.03508018      -0.00723483
H        0.23843315       1.60205203      -1.59358225
H       -0.76169489      -1.67305249      -0.44345133
H       -2.28477790       0.79085251       0.07872326
H       -2.78723409      -0.96057161       0.31740958
16
Frame=3 idx=009590 GeodesicLength=0.1631283161239238 rxn_smarts="[C:1]([C:2]1([C:3]([H:11])([H:12])[H:13])[N:4]([H:14])[C:5]([H:15])([H:16])[C:6]1=[O:7])([H:8])([H:9])[H:10]>>[C-:6]#[O+:7].[C:1]([C+:2]([C:3]([H:11])([H:12])[H:13])[N:4]([C-:5]([H:15])[H:16])[H:14])([H:8])([H:9])[H:10]"
C        1.57808848      -0.78040304      -0.38676315
C        0.31781091       0.00527818      -0.14692722
C        0.36830053       1.45873897      -0.51883855
N       -0.85456954      -0.66274815      -0.40819933
C       -1.98374379      -0.24041103       0.23486542
C       -0.41586467       0.03784893       1.77608557
O       -0.09844872      -0.56397657       2.70447889
H        2.36982854      -0.42198579       0.27338499
H        1.94072561      -0.68474796      -1.41589629
H        1.44088645      -1.84315642      -0.17370598
H        1.34827956       1.88753154      -0.30811526
H       -0.36279754       2.05269155       0.02841007
H        0.18587365       1.61392667      -1.58880717
H       -0.76261746      -1.66512865      -0.48294294
H       -2.29747909       0.78124451       0.08229647
H       -2.77427292      -0.97470272       0.33067450
16
Frame=4 idx=009590 GeodesicLength=0.21612322756479185 rxn_smarts="[C:1]([C:2]1([C:3]([H:11])([H:12])[H:13])[N:4]([H:14])[C:5]([H:15])([H:16])[C:6]1=[O:7])([H:8])([H:9])[H:10]>>[C-:6]#[O+:7].[C:1]([C+:2]([C:3]([H:11])([H:12])[H:13])[N:4]([C-:5]([H:15])[H:16])[H:14])([H:8])([H:9])[H:10]"
C        1.57785631      -0.78021283      -0.37341916
C        0.31706214       0.01005481      -0.14715686
C        0.37316094       1.46184159      -0.52334560
N       -0.85469572      -0.65605313      -0.42609488
C       -1.97977678      -0.24592070       0.23755275
C       -0.42515031       0.02910022       1.77318742
O       -0.11248762      -0.56509154       2.70838763
H        2.36668003      -0.42078218       0.28984468
H        1.94818271      -0.69317646      -1.40052638
H        1.43697730      -1.84147935      -0.15507552
H        1.36868219       1.88014979      -0.37313461
H       -0.31540124       2.06926285       0.06342040
H        0.13337023       1.62768049      -1.58026437
H       -0.76314875      -1.65671545      -0.52164234
H       -2.31056107       0.77080575       0.08544956
H       -2.76075036      -0.98946387       0.34281728
16
Frame=5 idx=009590 GeodesicLength=0.2683472499091333 rxn_smarts="[C:1]([C:2]1([C:3]([H:11])([H:12])[H:13])[N:4]([H:14])[C:5]([H:15])([H:16])[C:6]1=[O:7])([H:8])([H:9])[H:10]>>[C-:6]#[O+:7].[C:1]([C+:2]([C:3]([H:11])([H:12])[H:13])[N:4]([C-:5]([H:15])[H:16])[H:14])([H:8])([H:9])[H:10]"
C        1.57737389      -0.78008408      -0.36030864
C        0.31625227       0.01475735      -0.14747880
C        0.37817878       1.46494724      -0.52765115
N       -0.85473599      -0.64931781      -0.44383905
C       -1.97572399      -0.25182571       0.23981689
C       -0.43452329       0.02118693       1.77008652
O       -0.12667967      -0.56464732       2.71243643
H        2.36351560      -0.41928218       0.30555608
H        1.95498343      -0.70193930      -1.38542138
H        1.43268937      -1.83975718      -0.13644964
H        1.38600434       1.87118037      -0.43905549
H       -0.26448263       2.08465302       0.09759570
H        0.08117413       1.64336428      -1.56778600
H       -0.76327976      -1.64788511      -0.55946676
H       -2.32405627       0.75948250       0.08810401
H       -2.74669019      -1.00483299       0.35386128
16
Frame=6 idx=009590 GeodesicLength=0.319860203672462 rxn_smarts="[C:1]([C:2]1([C:3]([H:11])([H:12])[H:13])[N:4]([H:14])[C:5]([H:15])([H:16])[C:6]1=[O:7])([H:8])([H:9])[H:10]>>[C-:6]#[O+:7].[C:1]([C+:2]([C:3]([H:11])([H:12])[H:13])[N:4]([C-:5]([H:15])[H:16])[H:14])([H:8])([H:9])[H:10]"
C        1.57667393      -0.77999974      -0.34746470
C        0.31537564       0.01937710      -0.14790172
C        0.38335826       1.46804979      -0.53172901
N       -0.85470792      -0.64255057      -0.46147897
C       -1.97162375      -0.25814289       0.24165157
C       -0.44404524       0.01419895       1.76679057
O       -0.14114494      -0.56249674       2.71665138
H        2.36037418      -0.41748809       0.32052536
H        1.96119334      -0.71098402      -1.37062306
H        1.42807067      -1.83797563      -0.11791802
H        1.40012405       1.86062784      -0.50576181
H       -0.20992714       2.09872019       0.13077000
H        0.02944459       1.66099831      -1.55117287
H       -0.76302815      -1.63868720      -0.59648007
H       -2.33803988       0.74719557       0.09021012
H       -2.73209764      -1.02084286       0.36393122
16
Frame=7 idx=009590 GeodesicLength=0.37074130221776297 rxn_smarts="[C:1]([C:2]1([C:3]([H:11])([H:12])[H:13])[N:4]([H:14])[C:5]([H:15])([H:16])[C:6]1=[O:7])([H:8])([H:9])[H:10]>>[C-:6]#[O+:7].[C:1]([C+:2]([C:3]([H:11])([H:12])[H:13])[N:4]([C-:5]([H:15])[H:16])[H:14])([H:8])([H:9])[H:10]"
C        1.57580676      -0.77995613      -0.33489661
C        0.31443214       0.02389970      -0.14841381
C        0.38866987       1.47115521      -0.53555329
N       -0.85463382      -0.63576186      -0.47905438
C       -1.96752789      -0.26487567       0.24303627
C       -0.45375557       0.00820930       1.76331897
O       -0.15594900      -0.55852263       2.72107706
H        2.35732351      -0.41541368       0.33477201
H        1.96687734      -0.72026362      -1.35614533
H        1.42319902      -1.83614924      -0.09953760
H        1.41083452       1.84854592      -0.57322709
H       -0.15156298       2.11131565       0.16280205
H       -0.02169451       1.68059248      -1.53019612
H       -0.76240270      -1.62918160      -0.63274291
H       -2.35259955       0.73390277       0.09170990
H       -2.71701716      -1.03749659       0.37305086
16
Frame=8 idx=009590 GeodesicLength=0.42101880866406244 rxn_smarts="[C:1]([C:2]1([C:3]([H:11])([H:12])[H:13])[N:4]([H:14])[C:5]([H:15])([H:16])[C:6]1=[O:7])([H:8])([H:9])[H:10]>>[C-:6]#[O+:7].[C:1]([C+:2]([C:3]([H:11])([H:12])[H:13])[N:4]([C-:5]([H:15])[H:16])[H:14])([H:8])([H:9])[H:10]"
C        1.57479824      -0.77994206      -0.32263250
C        0.31341838       0.02831198      -0.14900332
C        0.39410021       1.47426151      -0.53908229
N       -0.85453150      -0.62894938      -0.49659599
C       -1.96346665      -0.27203408       0.24397119
C       -0.46369598       0.00331405       1.75967814
O       -0.17117456      -0.55257214       2.72573409
H        2.35439470      -0.41308773       0.34830073
H        1.97208287      -0.72969606      -1.34201292
H        1.41811820      -1.83428307      -0.08141577
H        1.41790943       1.83499919      -0.64128324
H       -0.08931862       2.12224882       0.19342577
H       -0.07197140       1.70210849      -1.50462497
H       -0.76141894      -1.61940308      -0.66831549
H       -2.36780055       0.71953479       0.09255841
H       -2.70144382      -1.05481122       0.38129815
16
Frame=9 idx=009590 GeodesicLength=0.47055435729695977 rxn_smarts="[C:1]([C:2]1([C:3]([H:11])([H:12])[H:13])[N:4]([H:14])[C:5]([H:15])([H:16])[C:6]1=[O:7])([H:8])([H:9])[H:10]>>[C-:6]#[O+:7].[C:1]([C+:2]([C:3]([H:11])([H:12])[H:13])[N:4]([C-:5]([H:15])[H:16])[H:14])([H:8])([H:9])[H:10]"
C        1.57350782      -0.77987439      -0.31067123
C        0.31230988       0.03261191      -0.14964175
C        0.39967052       1.47734885      -0.54229207
N       -0.85436040      -0.62208249      -0.51404687
C       -1.95931204      -0.27966854       0.24448567
C       -0.47389467      -0.00046295       1.75575584
O       -0.18694925      -0.54458840       2.73046314
H        2.35138317      -0.41050756       0.36107539
H        1.97668107      -0.73905363      -1.32814781
H        1.41266841      -1.83229390      -0.06362871
H        1.42110180       1.82007434      -0.70969105
H       -0.02314081       2.13125679       0.22221334
H       -0.12093391       1.72544056      -1.47425036
H       -0.76008350      -1.60930983      -0.70312905
H       -2.38346560       0.70394746       0.09271086
H       -2.68518251      -1.07283821       0.38879467
16
Frame=10 idx=009590 GeodesicLength=0.5193679067010704 rxn_smarts="[C:1]([C:2]1([C:3]([H:11])([H:12])[H:13])[N:4]([H:14])[C:5]([H:15])([H:16])[C:6]1=[O:7])([H:8])([H:9])[H:10]>>[C-:6]#[O+:7].[C:1]([C+:2]([C:3]([H:11])([H:12])[H:13])[N:4]([C-:5]([H:15])[H:16])[H:14])([H:8])([H:9])[H:10]"
C        1.57188962      -0.77975585      -0.29901760
C        0.31109546       0.03678973      -0.15030072
C        0.40535112       1.48043556      -0.54512922
N       -0.85410010      -0.61513775      -0.53140417
C       -1.95499860      -0.28778633       0.24458128
C       -0.48435449      -0.00304222       1.75150022
O       -0.20334730      -0.53443281       2.73519884
H        2.34820647      -0.40774833       0.37312471
H        1.98063904      -0.74822179      -1.31451504
H        1.40682052      -1.83022012      -0.04628353
H        1.42018705       1.80388233      -0.77820615
H        0.04689526       2.13817230       0.24884337
H       -0.16827443       1.75049882      -1.43890018
H       -0.75838882      -1.59890553      -0.73721733
H       -2.39953644       0.68707383       0.09211409
H       -2.66808436      -1.09160184       0.39561143
16
Frame=11 idx=009590 GeodesicLength=0.5676869650798952 rxn_smarts="[C:1]([C:2]1([C:3]([H:11])([H:12])[H:13])[N:4]([H:14])[C:5]([H:15])([H:16])[C:6]1=[O:7])([H:8])([H:9])[H:10]>>[C-:6]#[O+:7].[C:1]([C+:2]([C:3]([H:11])([H:12])[H:13])[N:4]([C-:5]([H:15])[H:16])[H:14])([H:8])([H:9])[H:10]"
C        1.57013749      -0.77968100      -0.28771876
C        0.30980175       0.04080224      -0.15095646
C        0.41107008       1.48351802      -0.54747554
N       -0.85378132      -0.60808956      -0.54877127
C       -1.95064397      -0.29629845       0.24421251
C       -0.49512555      -0.00424847       1.74698548
O       -0.22048207      -0.52179644       2.74007605
H        2.34510215      -0.40494709       0.38451628
H        1.98417336      -0.75723943      -1.30122330
H        1.40085428      -1.82820602      -0.02953660
H        1.41481754       1.78654584      -0.84675896
H        0.12068254       2.14274635       0.27314232
H       -0.21385590       1.77716739      -1.39819143
H       -0.75630931      -1.58822872      -0.77075300
H       -2.41623665       0.66895877       0.09070916
H       -2.65020441      -1.11100343       0.40174351
16
Frame=12 idx=009590 GeodesicLength=0.615662131423717 rxn_smarts="[C:1]([C:2]1([C:3]([H:11])([H:12])[H:13])[N:4]([H:14])[C:5]([H:15])([H:16])[C:6]1=[O:7])([H:8])([H:9])[H:10]>>[C-:6]#[O+:7].[C:1]([C+:2]([C:3]([H:11])([H:12])[H:13])[N:4]([C-:5]([H:15])[H:16])[H:14])([H:8])([H:9])[H:10]"
C        1.56834239      -0.77959547      -0.27686816
C        0.30845189       0.04466430      -0.15158312
C        0.41691662       1.48659862      -0.54933713
N       -0.85351035      -0.60090212      -0.56615450
C       -1.94641360      -0.30525585       0.24349843
C       -0.50628154      -0.00402853       1.74240286
O       -0.23845869      -0.50660071       2.74532781
H        2.34219394      -0.40215071       0.39529032
H        1.98747184      -0.76588165      -1.28843249
H        1.39481461      -1.82621748      -0.01362885
H        1.40488041       1.76831303      -0.91476393
H        0.19791668       2.14478798       0.29446498
H       -0.25688973       1.80510900      -1.35227365
H       -0.75399937      -1.57721331      -0.80390946
H       -2.43369147       0.64947012       0.08858487
H       -2.63174361      -1.13109722       0.40738202
16
Frame=13 idx=009590 GeodesicLength=0.6633992498014011 rxn_smarts="[C:1]([C:2]1([C:3]([H:11])([H:12])[H:13])[N:4]([H:14])[C:5]([H:15])([H:16])[C:6]1=[O:7])([H:8])([H:9])[H:10]>>[C-:6]#[O+:7].[C:1]([C+:2]([C:3]([H:11])([H:12])[H:13])[N:4]([C-:5]([H:15])[H:16])[H:14])([H:8])([H:9])[H:10]"
C        1.56638789      -0.77952739      -0.26644307
C        0.30704201       0.04836992      -0.15212361
C        0.42290415       1.48969919      -0.55060861
N       -0.85324202      -0.59353090      -0.58351568
C       -1.94214631      -0.31467682       0.24243710
C       -0.51777972      -0.00225703       1.73757626
O       -0.25739754      -0.48861089       2.75070148
H        2.33932143      -0.39945665       0.40546874
H        1.99039834      -0.77405824      -1.27601913
H        1.38857199      -1.82433192       0.00133218
H        1.39017125       1.74935305      -0.98191340
H        0.27833741       2.14416419       0.31243233
H       -0.29701189       1.83415217      -1.30087132
H       -0.75145905      -1.56582118      -0.83674670
H       -2.45174447       0.62849575       0.08568481
H       -2.61235346      -1.15196325       0.41260862
16
Frame=14 idx=009590 GeodesicLength=0.7111341427058544 rxn_smarts="[C:1]([C:2]1([C:3]([H:11])([H:12])[H:13])[N:4]([H:14])[C:5]([H:15])([H:16])[C:6]1=[O:7])([H:8])([H:9])[H:10]>>[C-:6]#[O+:7].[C:1]([C+:2]([C:3]([H:11])([H:12])[H:13])[N:4]([C-:5]([H:15])[H:16])[H:14])([H:8])([H:9])[H:10]"
C        1.56427683      -0.77946394      -0.25647728
C        0.30558872       0.05190075      -0.15253414
C        0.42901429       1.49278803      -0.55128999
N       -0.85290227      -0.58588073      -0.60082331
C       -1.93776847      -0.32450466       0.24107889
C       -0.52970544       0.00097225       1.73258024
O       -0.27756385      -0.46780664       2.75633901
H        2.33639764      -0.39699117       0.41508597
H        1.99301451      -0.78155541      -1.26406658
H        1.38216283      -1.82255646       0.01525289
H        1.37037414       1.72995026      -1.04797755
H        0.36161934       2.14059106       0.32663229
H       -0.33374063       1.86387839      -1.24404030
H       -0.74861330      -1.55390036      -0.86927381
H       -2.47022045       0.60604484       0.08203155
H       -2.59193389      -1.17346619       0.41748211
16
Frame=15 idx=009590 GeodesicLength=0.7588433500386003 rxn_smarts="[C:1]([C:2]1([C:3]([H:11])([H:12])[H:13])[N:4]([H:14])[C:5]([H:15])([H:16])[C:6]1=[O:7])([H:8])([H:9])[H:10]>>[C-:6]#[O+:7].[C:1]([C+:2]([C:3]([H:11])([H:12])[H:13])[N:4]([C-:5]([H:15])[H:16])[H:14])([H:8])([H:9])[H:10]"
C        1.56202981      -0.77947011      -0.24705242
C        0.30409977       0.05526550      -0.15278003
C        0.43527696       1.49584215      -0.55135634
N       -0.85265015      -0.57792609      -0.61804145
C       -1.93334863      -0.33472242       0.23956531
C       -0.54187444       0.00582834       1.72744150
O       -0.29864685      -0.44402556       2.76209017
H        2.33350147      -0.39496758       0.42425798
H        1.99536781      -0.78827811      -1.25261663
H        1.37556784      -1.82102076       0.02772484
H        1.34593500       1.71047674      -1.11150041
H        0.44631493       2.13426281       0.33642988
H       -0.36619556       1.89370905      -1.18249497
H       -0.74571847      -1.54142830      -0.90164929
H       -2.48917933       0.58205142       0.07776585
H       -2.57048017      -1.19559708       0.42221602
16
Frame=16 idx=009590 GeodesicLength=0.8067851340787499 rxn_smarts="[C:1]([C:2]1([C:3]([H:11])([H:12])[H:13])[N:4]([H:14])[C:5]([H:15])([H:16])[C:6]1=[O:7])([H:8])([H:9])[H:10]>>[C-:6]#[O+:7].[C:1]([C+:2]([C:3]([H:11])([H:12])[H:13])[N:4]([C-:5]([H:15])[H:16])[H:14])([H:8])([H:9])[H:10]"
C        1.55968732      -0.77959255      -0.23820262
C        0.30260543       0.05844288      -0.15281895
C        0.44164360       1.49887800      -0.55078072
N       -0.85240431      -0.56961715      -0.63509803
C       -1.92880218      -0.34521672       0.23793585
C       -0.55431194       0.01208425       1.72218589
O       -0.32091651      -0.41729245       2.76804171
H        2.33060741      -0.39353482       0.43298441
H        1.99751410      -0.79412408      -1.24173987
H        1.36889768      -1.81982328       0.03868483
H        1.31675749       1.69134367      -1.17228006
H        0.53175046       2.12508770       0.34171487
H       -0.39402208       1.92318312      -1.11666445
H       -0.74268800      -1.52836483      -0.93372648
H       -2.50838131       0.55668063       0.07298010
H       -2.54793713      -1.21813439       0.42678353
