16
Frame=0 idx=004722 GeodesicLength=0.0 rxn_smarts="[C:1]([C:2]1([C:3]([H:10])([H:11])[H:12])[C:4]([H:13])([H:14])[C@:5]1([O:6][H:16])[H:15])([H:7])([H:8])[H:9]>>[C:1]([C@@:5]([C:4]([C:2][C:3]([H:10])([H:11])[H:12])([H:13])[H:14])([O:6][H:16])[H:15])([H:7])([H:8])[H:9]"
C       -1.06017780      -0.56198540      -0.73812835
C        0.53856935       0.48127065      -0.75139522
C        1.65738864      -0.52027062      -0.63080215
C        0.41934182       1.30279967       0.49700496
C       -0.53863834       0.24152299       0.83608501
O       -1.75848790       0.69280500       1.27346584
H       -1.59699806      -1.31133027      -0.12293788
H       -1.78784510       0.09423393      -1.20195313
H       -0.57823255      -1.16719751      -1.50124499
H        1.77112534      -1.01952404       0.34588934
H        2.57086689       0.06364420      -0.78495968
H        1.61928573      -1.28735801      -1.40744767
H        1.29313479       1.32850564       1.14628711
H       -0.03607361       2.28260911       0.37694488
H       -0.11974434      -0.58817292       1.40207575
H       -2.39351490      -0.03155247       1.26111621
16
Frame=1 idx=004722 GeodesicLength=0.07737942517050266 rxn_smarts="[C:1]([C:2]1([C:3]([H:10])([H:11])[H:12])[C:4]([H:13])([H:14])[C@:5]1([O:6][H:16])[H:15])([H:7])([H:8])[H:9]>>[C:1]([C@@:5]([C:4]([C:2][C:3]([H:10])([H:11])[H:12])([H:13])[H:14])([O:6][H:16])[H:15])([H:7])([H:8])[H:9]"
C       -1.07536312      -0.55364834      -0.74733559
C        0.54665211       0.46015219      -0.73828442
C        1.68057782      -0.52037393      -0.62311505
C        0.41474928       1.29370202       0.49780202
C       -0.54368739       0.23112586       0.83857550
O       -1.75840075       0.69113274       1.28758609
H       -1.61683770      -1.31471618      -0.15229094
H       -1.79785994       0.11942187      -1.19589738
H       -0.60413141      -1.14704963      -1.52680869
H        1.82773056      -0.98977001       0.36338118
H        2.58372604       0.06522902      -0.82407205
H        1.62860081      -1.31134996      -1.37497051
H        1.28164185       1.33287558       1.15553927
H       -0.04296167       2.26887795       0.34889808
H       -0.12706462      -0.59615436       1.41040483
H       -2.39737187      -0.02945480       1.28058766
16
Frame=2 idx=004722 GeodesicLength=0.15436893275619773 rxn_smarts="[C:1]([C:2]1([C:3]([H:10])([H:11])[H:12])[C:4]([H:13])([H:14])[C@:5]1([O:6][H:16])[H:15])([H:7])([H:8])[H:9]>>[C:1]([C@@:5]([C:4]([C:2][C:3]([H:10])([H:11])[H:12])([H:13])[H:14])([O:6][H:16])[H:15])([H:7])([H:8])[H:9]"
C       -1.09069049      -0.54469338      -0.75686187
C        0.55466621       0.43792348      -0.72470252
C        1.70432796      -0.52026072      -0.61499971
C        0.40999264       1.28400303       0.49843561
C       -0.54883425       0.22006135       0.84113036
O       -1.75812950       0.68895187       1.30191615
H       -1.63705543      -1.31743802      -0.18311159
H       -1.80772768       0.14524078      -1.18938168
H       -0.63045955      -1.12467466      -1.55337994
H        1.88638268      -0.95615783       0.38052458
H        2.59479667       0.06535447      -0.86577261
H        1.63813436      -1.33689412      -1.33816792
H        1.26967539       1.33714127       1.16453984
H       -0.04958338       2.25389550       0.32082605
H       -0.13439660      -0.60471718       1.41879431
H       -2.40109903      -0.02773582       1.30021094
16
Frame=3 idx=004722 GeodesicLength=0.2309058101823902 rxn_smarts="[C:1]([C:2]1([C:3]([H:10])([H:11])[H:12])[C:4]([H:13])([H:14])[C@:5]1([O:6][H:16])[H:15])([H:7])([H:8])[H:9]>>[C:1]([C@@:5]([C:4]([C:2][C:3]([H:10])([H:11])[H:12])([H:13])[H:14])([O:6][H:16])[H:15])([H:7])([H:8])[H:9]"
C       -1.10609467      -0.53513999      -0.76667320
C        0.56257960       0.41455255      -0.71062649
C        1.72858925      -0.51988574      -0.60653969
C        0.40509272       1.27365779       0.49891019
C       -0.55409660       0.20832160       0.84375974
O       -1.75769252       0.68627715       1.31641039
H       -1.65756899      -1.31946238      -0.21541020
H       -1.81741425       0.17158150      -1.18236881
H       -0.65707375      -1.09996253      -1.58083566
H        1.94685286      -0.91850684       0.39682662
H        2.60380013       0.06358315      -0.90994508
H        1.64812400      -1.36366880      -1.29679345
H        1.25724915       1.34122516       1.17326809
H       -0.05587485       2.23764582       0.29276289
H       -0.14175798      -0.61383850       1.42729978
H       -2.40471412      -0.02637994       1.31995488
16
Frame=4 idx=004722 GeodesicLength=0.30695171969101587 rxn_smarts="[C:1]([C:2]1([C:3]([H:10])([H:11])[H:12])[C:4]([H:13])([H:14])[C@:5]1([O:6][H:16])[H:15])([H:7])([H:8])[H:9]>>[C:1]([C@@:5]([C:4]([C:2][C:3]([H:10])([H:11])[H:12])([H:13])[H:14])([O:6][H:16])[H:15])([H:7])([H:8])[H:9]"
C       -1.12150558      -0.52502665      -0.77672587
C        0.57035953       0.39000834      -0.69603297
C        1.75330059      -0.51920742      -0.59784364
C        0.40007623       1.26262344       0.49923863
C       -0.55950467       0.19590705       0.84648000
O       -1.75712643       0.68314794       1.33101975
H       -1.67829352      -1.32077063      -0.24918232
H       -1.82688553       0.19831065      -1.17482624
H       -0.68381249      -1.07283374      -1.60902424
H        2.00886636      -0.87668452       0.41173209
H        2.61047294       0.05944611      -0.95639978
H        1.65887016      -1.39125291      -1.25068149
H        1.24438718       1.34503695       1.18171141
H       -0.06175284       2.22012894       0.26475037
H       -0.14919147      -0.62348759       1.43599367
H       -2.40826046      -0.02534594       1.33979064
16
Frame=5 idx=004722 GeodesicLength=0.382430457196063 rxn_smarts="[C:1]([C:2]1([C:3]([H:10])([H:11])[H:12])[C:4]([H:13])([H:14])[C@:5]1([O:6][H:16])[H:15])([H:7])([H:8])[H:9]>>[C:1]([C@@:5]([C:4]([C:2][C:3]([H:10])([H:11])[H:12])([H:13])[H:14])([O:6][H:16])[H:15])([H:7])([H:8])[H:9]"
C       -1.13685644      -0.51438581      -0.78697214
C        0.57795265       0.36425377      -0.68088790
C        1.77836797      -0.51817045      -0.58903298
C        0.39496910       1.25083084       0.49943965
C       -0.56508465       0.18282056       0.84929925
O       -1.75644294       0.67961076       1.34566999
H       -1.69911245      -1.32132973      -0.28441929
H       -1.83612396       0.22529383      -1.16671771
H       -0.71050443      -1.04319875      -1.63775950
H        2.07207669      -0.83059065       0.42464298
H        2.61451379       0.05251497      -1.00488357
H        1.67074922      -1.41921017      -1.19968008
H        1.23111574       1.34843566       1.18986328
H       -0.06712803       2.20130579       0.23682733
H       -0.15674035      -0.63361517       1.44494590
H       -2.41175192      -0.02456545       1.35966480
16
Frame=6 idx=004722 GeodesicLength=0.45735008999769494 rxn_smarts="[C:1]([C:2]1([C:3]([H:10])([H:11])[H:12])[C:4]([H:13])([H:14])[C@:5]1([O:6][H:16])[H:15])([H:7])([H:8])[H:9]>>[C:1]([C@@:5]([C:4]([C:2][C:3]([H:10])([H:11])[H:12])([H:13])[H:14])([O:6][H:16])[H:15])([H:7])([H:8])[H:9]"
C       -1.15207596      -0.50328473      -0.79735491
C        0.58532700       0.33725189      -0.66516239
C        1.80370940      -0.51674778      -0.58025642
C        0.38980486       1.23823740       0.49954049
C       -0.57089299       0.16907563       0.85224370
O       -1.75571351       0.67574783       1.36031184
H       -1.71994177      -1.32114371      -0.32109839
H       -1.84510148       0.25237180      -1.15801972
H       -0.73696551      -1.01103095      -1.66684499
H        2.13612714      -0.78017091       0.43491534
H        2.61572817       0.04228150      -1.05505399
H        1.68418043      -1.44696051      -1.14380917
H        1.21747859       1.35130370       1.19772584
H       -0.07188788       2.18120228       0.20905394
H       -0.16449784      -0.64418315       1.45424972
H       -2.41527865      -0.02395030       1.37955911
16
Frame=7 idx=004722 GeodesicLength=0.531674797316863 rxn_smarts="[C:1]([C:2]1([C:3]([H:10])([H:11])[H:12])[C:4]([H:13])([H:14])[C@:5]1([O:6][H:16])[H:15])([H:7])([H:8])[H:9]>>[C:1]([C@@:5]([C:4]([C:2][C:3]([H:10])([H:11])[H:12])([H:13])[H:14])([O:6][H:16])[H:15])([H:7])([H:8])[H:9]"
C       -1.16709467      -0.49178219      -0.80782262
C        0.59243470       0.30894916      -0.64881282
C        1.82920444      -0.51490219      -0.57166219
C        0.38461569       1.22477262       0.49957390
C       -0.57697660       0.15468450       0.85533292
O       -1.75497215       0.67163988       1.37488035
H       -1.74066767      -1.32019848      -0.35920971
H       -1.85379426       0.27938937      -1.14871317
H       -0.76301422      -0.97628875      -1.69606886
H        2.20059276      -0.72538486       0.44188457
H        2.61389978       0.02827590      -1.10649632
H        1.69961155      -1.47390384      -1.08310459
H        1.20352049       1.35348571       1.20530941
H       -0.07591642       2.15979557       0.18148116
H       -0.17255498      -0.65513908       1.46399112
H       -2.41888845      -0.02339333       1.39943684
16
Frame=8 idx=004722 GeodesicLength=0.605418925264516 rxn_smarts="[C:1]([C:2]1([C:3]([H:10])([H:11])[H:12])[C:4]([H:13])([H:14])[C@:5]1([O:6][H:16])[H:15])([H:7])([H:8])[H:9]>>[C:1]([C@@:5]([C:4]([C:2][C:3]([H:10])([H:11])[H:12])([H:13])[H:14])([O:6][H:16])[H:15])([H:7])([H:8])[H:9]"
C       -1.18184923      -0.47994150      -0.81832429
C        0.59923805       0.27927921      -0.63178967
C        1.85474169      -0.51261562      -0.56341076
C        0.37943203       1.21036835       0.49957787
C       -0.58340015       0.13965900       0.85859777
O       -1.75427903       0.66738499       1.38932842
H       -1.76118417      -1.31849170      -0.39874590
H       -1.86218847       0.30620620      -1.13878237
H       -0.78846110      -0.93893730      -1.72521796
H        2.26502254      -0.66622663       0.44486245
H        2.60888303       0.01003199      -1.15874129
H        1.71754419      -1.49940411      -1.01769351
H        1.18929330       1.35482183       1.21263275
H       -0.07909621       2.13707875       0.15415684
H       -0.18103006      -0.66644601       1.47426911
H       -2.42266642      -0.02276743       1.41928053
16
Frame=9 idx=004722 GeodesicLength=0.6785719401298739 rxn_smarts="[C:1]([C:2]1([C:3]([H:10])([H:11])[H:12])[C:4]([H:13])([H:14])[C@:5]1([O:6][H:16])[H:15])([H:7])([H:8])[H:9]>>[C:1]([C@@:5]([C:4]([C:2][C:3]([H:10])([H:11])[H:12])([H:13])[H:14])([O:6][H:16])[H:15])([H:7])([H:8])[H:9]"
C       -1.19630697      -0.46782979      -0.82878617
C        0.60568906       0.24814121      -0.61400900
C        1.88019979      -0.50984837      -0.55568955
C        0.37429829       1.19493618       0.49959876
C       -0.59023793       0.12402289       0.86206570
O       -1.75368496       0.66312019       1.40357663
H       -1.78139807      -1.31601553      -0.43966513
H       -1.87030091       0.33267438      -1.12821490
H       -0.81313162      -0.89901029      -1.75399075
H        2.32882673      -0.60289767       0.44312186
H        2.60058769      -0.01266896      -1.21116485
H        1.73863710      -1.52283405      -0.94788279
H        1.17487931       1.35511875       1.21971533
H       -0.08127972       2.11300777       0.12710528
H       -0.19006961      -0.67803859       1.48517946
H       -2.42670817      -0.02187812       1.43904013
16
Frame=10 idx=004722 GeodesicLength=0.7511702099594687 rxn_smarts="[C:1]([C:2]1([C:3]([H:10])([H:11])[H:12])[C:4]([H:13])([H:14])[C@:5]1([O:6][H:16])[H:15])([H:7])([H:8])[H:9]>>[C:1]([C@@:5]([C:4]([C:2][C:3]([H:10])([H:11])[H:12])([H:13])[H:14])([O:6][H:16])[H:15])([H:7])([H:8])[H:9]"
C       -1.21038313      -0.45550752      -0.83917871
C        0.61176355       0.21543117      -0.59539670
C        1.90544160      -0.50661825      -0.54866190
C        0.36922849       1.17840051       0.49969047
C       -0.59757213       0.10778113       0.86578952
O       -1.75326240       0.65895194       1.41761880
H       -1.80119556      -1.31274927      -0.48200264
H       -1.87807301       0.35868940      -1.11702621
H       -0.83678807      -0.85649217      -1.78218545
H        2.39148022      -0.53536998       0.43596759
H        2.58899731      -0.04033344      -1.26323239
H        1.76334241      -1.54348278      -0.87395023
H        1.16031788       1.35421586       1.22660510
H       -0.08235977       2.08757575       0.10038851
H       -0.19982867      -0.68990673       1.49683534
H       -2.43110872      -0.02058561       1.45873891
16
Frame=11 idx=004722 GeodesicLength=0.8231991421295598 rxn_smarts="[C:1]([C:2]1([C:3]([H:10])([H:11])[H:12])[C:4]([H:13])([H:14])[C@:5]1([O:6][H:16])[H:15])([H:7])([H:8])[H:9]>>[C:1]([C@@:5]([C:4]([C:2][C:3]([H:10])([H:11])[H:12])([H:13])[H:14])([O:6][H:16])[H:15])([H:7])([H:8])[H:9]"
C       -1.22401865      -0.44302340      -0.84946550
C        0.61742572       0.18102400      -0.57581885
C        1.93028234      -0.50290295      -0.54247154
C        0.36426839       1.16065091       0.49992519
C       -0.60546967       0.09093381       0.86979526
O       -1.75302376       0.65496903       1.43138997
H       -1.82046734      -1.30865024      -0.52581670
H       -1.88545809       0.38414109      -1.10521894
H       -0.85921644      -0.81137670      -1.80952601
H        2.45233577      -0.46365217       0.42264618
H        2.57406578      -0.07335420      -1.31432172
H        1.79214062      -1.56061703      -0.79616261
H        1.14570186       1.35191820       1.23335304
H       -0.08217579       2.06069669       0.07407862
H       -0.21046853      -0.70201691       1.50929692
H       -2.43592221      -0.01874013       1.47831669
16
Frame=12 idx=004722 GeodesicLength=0.8948239167331977 rxn_smarts="[C:1]([C:2]1([C:3]([H:10])([H:11])[H:12])[C:4]([H:13])([H:14])[C@:5]1([O:6][H:16])[H:15])([H:7])([H:8])[H:9]>>[C:1]([C@@:5]([C:4]([C:2][C:3]([H:10])([H:11])[H:12])([H:13])[H:14])([O:6][H:16])[H:15])([H:7])([H:8])[H:9]"
C       -1.23716107      -0.43039280      -0.85963943
C        0.62267780       0.14478450      -0.55513390
C        1.95461169      -0.49871289      -0.53729010
C        0.35944384       1.14157165       0.50040455
C       -0.61403775       0.07346989       0.87415106
O       -1.75307982       0.65125958       1.44488926
H       -1.83910506      -1.30364927      -0.57119714
H       -1.89245254       0.40898002      -1.09282775
H       -0.88015430      -0.76360828      -1.83578986
H        2.51080732      -0.38771646       0.40231351
H        2.55584302      -0.11223695      -1.36392018
H        1.82558983      -1.57349718      -0.71472953
H        1.13112800       1.34800866       1.24006358
H       -0.08061431       2.03229442       0.04825347
H       -0.22217627      -0.71437233       1.52268620
H       -2.44132037      -0.01618259       1.49776626
16
Frame=13 idx=004722 GeodesicLength=0.9658401991159291 rxn_smarts="[C:1]([C:2]1([C:3]([H:10])([H:11])[H:12])[C:4]([H:13])([H:14])[C@:5]1([O:6][H:16])[H:15])([H:7])([H:8])[H:9]>>[C:1]([C@@:5]([C:4]([C:2][C:3]([H:10])([H:11])[H:12])([H:13])[H:14])([O:6][H:16])[H:15])([H:7])([H:8])[H:9]"
C       -1.24966496      -0.41773905      -0.86954436
C        0.62745951       0.10643723      -0.53310746
C        1.97815692      -0.49408603      -0.53340511
C        0.35476041       1.12105479       0.50118179
C       -0.62339412       0.05544967       0.87894043
O       -1.75346877       0.64815236       1.45800920
H       -1.85690549      -1.29772569      -0.61796173
H       -1.89885851       0.43309600      -1.07993350
H       -0.89925475      -0.71360847      -1.86043912
H        2.56565319      -0.30857758       0.37428176
H        2.53460819      -0.15634120      -1.41087232
H        1.86440302      -1.58131415      -0.63096080
H        1.11661955       1.34226770       1.24673600
H       -0.07749141       2.00231602       0.02284525
H       -0.23523963      -0.72690322       1.53719167
H       -2.44738315      -0.01247838       1.51703829
16
Frame=14 idx=004722 GeodesicLength=1.0365614249761923 rxn_smarts="[C:1]([C:2]1([C:3]([H:10])([H:11])[H:12])[C:4]([H:13])([H:14])[C@:5]1([O:6][H:16])[H:15])([H:7])([H:8])[H:9]>>[C:1]([C@@:5]([C:4]([C:2][C:3]([H:10])([H:11])[H:12])([H:13])[H:14])([O:6][H:16])[H:15])([H:7])([H:8])[H:9]"
C       -1.26144457      -0.40504339      -0.87927605
C        0.63182170       0.06592591      -0.50955830
C        2.00075460      -0.48904015      -0.53093055
C        0.35026549       1.09899048       0.50245421
C       -0.63362579       0.03684373       0.88424498
O       -1.75429241       0.64561548       1.47080739
H       -1.87373223      -1.29075116      -0.66638892
H       -1.90463983       0.45646472      -1.06662650
H       -0.91615733      -0.66124980      -1.88338905
H        2.61622942      -0.22583164       0.33761573
H        2.51047687      -0.20669060      -1.45487524
H        1.90878109      -1.58316360      -0.54484219
H        1.10235674       1.33449819       1.25360802
H       -0.07270812       1.97065222      -0.00188174
H       -0.24981313      -0.73961790       1.55290749
H       -2.45427250      -0.00760250       1.53613074
16
Frame=15 idx=004722 GeodesicLength=1.106818716018513 rxn_smarts="[C:1]([C:2]1([C:3]([H:10])([H:11])[H:12])[C:4]([H:13])([H:14])[C@:5]1([O:6][H:16])[H:15])([H:7])([H:8])[H:9]>>[C:1]([C@@:5]([C:4]([C:2][C:3]([H:10])([H:11])[H:12])([H:13])[H:14])([O:6][H:16])[H:15])([H:7])([H:8])[H:9]"
C       -1.27226808      -0.39233704      -0.88875685
C        0.63575855       0.02315024      -0.48419877
C        2.02197359      -0.48358462      -0.53002799
C        0.34601650       1.07526814       0.50435846
C       -0.64478414       0.01764766       0.89006911
O       -1.75548370       0.64370688       1.48314484
H       -1.88924033      -1.28264074      -0.71652827
H       -1.90951073       0.47901387      -1.05290429
H       -0.93040253      -0.60663635      -1.90419472
H        2.66117965      -0.13985587       0.29135565
H        2.48357527      -0.26352520      -1.49499833
H        1.95885337      -1.57796079      -0.45699945
H        1.08846249       1.32447925       1.26074561
H       -0.06603983       1.93718894      -0.02574871
H       -0.26613602      -0.75249419       1.56981568
H       -2.46195405      -0.00142018       1.55486804
16
Frame=16 idx=004722 GeodesicLength=1.1768030464965051 rxn_smarts="[C:1]([C:2]1([C:3]([H:10])([H:11])[H:12])[C:4]([H:13])([H:14])[C@:5]1([O:6][H:16])[H:15])([H:7])([H:8])[H:9]>>[C:1]([C@@:5]([C:4]([C:2][C:3]([H:10])([H:11])[H:12])([H:13])[H:14])([O:6][H:16])[H:15])([H:7])([H:8])[H:9]"
C       -1.28188269      -0.37960466      -0.89798982
C        0.63932943      -0.02192041      -0.45679045
C        2.04148473      -0.47782686      -0.53090981
C        0.34201501       1.04983169       0.50708746
C       -0.65695523      -0.00212848       0.89650443
O       -1.75713613       0.64249584       1.49503607
H       -1.90295892      -1.27330801      -0.76846021
H       -1.91329029       0.50074609      -1.03885727
H       -0.94145490      -0.54982785      -1.92258798
H        2.69912755      -0.05120736       0.23447605
H        2.45426225      -0.32726795      -1.53044786
H        2.01479229      -1.56455841      -0.36810848
H        1.07504826       1.31200883       1.26832916
H       -0.05741266       1.90190541      -0.04855081
H       -0.28442022      -0.76554128       1.58804489
H       -2.47054848       0.00620340       1.57322464
