10
Frame=0 idx=002949 GeodesicLength=0.0 rxn_smarts="[O:1]([C:2]([C:3]#[C:4][C:5]#[C:6][H:10])([H:8])[H:9])[H:7]>>[O:1]([C:2](=[C:3]=[C:4]([C:5]#[C:6][H:10])[H:9])[H:8])[H:7]"
O       -2.16634461      -0.19070379       0.45363717
C       -1.20347210      -0.66877867      -0.36753514
C       -0.62077496       0.24066914      -1.41684074
C        0.32550726       0.02215118      -0.52652612
C        1.49594065       0.47343962       0.11161672
C        2.49865185       0.84177423       0.65494472
H       -2.31698146       0.73371785       0.22029323
H       -1.31138777      -1.72835614      -0.58469577
H       -0.09052676      -0.90782160       0.32808550
H        3.38938790       1.18390817       1.12702042
10
Frame=1 idx=002949 GeodesicLength=0.11284296192211395 rxn_smarts="[O:1]([C:2]([C:3]#[C:4][C:5]#[C:6][H:10])([H:8])[H:9])[H:7]>>[O:1]([C:2](=[C:3]=[C:4]([C:5]#[C:6][H:10])[H:9])[H:8])[H:7]"
O       -2.19863153      -0.19370422       0.43083443
C       -1.22272647      -0.67534155      -0.37571168
C       -0.59964365       0.23428152      -1.38990574
C        0.34892316       0.00550672      -0.51012261
C        1.50880446       0.46827627       0.13794225
C        2.51356666       0.85207819       0.66680230
H       -2.30664751       0.74507634       0.23574930
H       -1.35448140      -1.72600002      -0.62133414
H       -0.10282519      -0.94147709       0.33309418
H        3.41366146       1.23130385       1.09265172
10
Frame=2 idx=002949 GeodesicLength=0.22560236698993608 rxn_smarts="[O:1]([C:2]([C:3]#[C:4][C:5]#[C:6][H:10])([H:8])[H:9])[H:7]>>[O:1]([C:2](=[C:3]=[C:4]([C:5]#[C:6][H:10])[H:9])[H:8])[H:7]"
O       -2.23356966      -0.19811917       0.40354407
C       -1.24109547      -0.68268435      -0.38382220
C       -0.57797201       0.22617784      -1.36128498
C        0.37193243      -0.00741631      -0.48963894
C        1.51840593       0.47228627       0.16902272
C        2.52340333       0.87699898       0.68180300
H       -2.30194506       0.75123653       0.24734721
H       -1.39199276      -1.72381852      -0.65743345
H       -0.11523966      -0.97114339       0.34175268
H        3.44807294       1.25648213       1.04870989
10
Frame=3 idx=002949 GeodesicLength=0.33823898752381765 rxn_smarts="[O:1]([C:2]([C:3]#[C:4][C:5]#[C:6][H:10])([H:8])[H:9])[H:7]>>[O:1]([C:2](=[C:3]=[C:4]([C:5]#[C:6][H:10])[H:9])[H:8])[H:7]"
O       -2.26658246      -0.19897936       0.37731193
C       -1.26009435      -0.68954011      -0.39150188
C       -0.55717871       0.21610907      -1.33192272
C        0.39593725      -0.02299966      -0.47062982
C        1.53156267       0.47233486       0.19451625
C        2.53837176       0.89601119       0.68840325
H       -2.29435972       0.75798819       0.26272264
H       -1.43188243      -1.71945127      -0.69382604
H       -0.12737746      -1.00238276       0.34900192
H        3.47160346       1.29090984       1.01592447
10
Frame=4 idx=002949 GeodesicLength=0.4508835685593347 rxn_smarts="[O:1]([C:2]([C:3]#[C:4][C:5]#[C:6][H:10])([H:8])[H:9])[H:7]>>[O:1]([C:2](=[C:3]=[C:4]([C:5]#[C:6][H:10])[H:9])[H:8])[H:7]"
O       -2.29963230      -0.19695060       0.34967612
C       -1.27988464      -0.69551020      -0.39956894
C       -0.53543847       0.20557005      -1.29986321
C        0.42085911      -0.04066149      -0.44940459
C        1.54693861       0.46836154       0.22107549
C        2.56193697       0.90083111       0.69037720
H       -2.28624582       0.76430848       0.28013185
H       -1.47331749      -1.71190844      -0.73300550
H       -0.14110564      -1.03549032       0.35630007
H        3.48588967       1.34144988       0.98428151
10
Frame=5 idx=002949 GeodesicLength=0.5634388082094024 rxn_smarts="[O:1]([C:2]([C:3]#[C:4][C:5]#[C:6][H:10])([H:8])[H:9])[H:7]>>[O:1]([C:2](=[C:3]=[C:4]([C:5]#[C:6][H:10])[H:9])[H:8])[H:7]"
O       -2.33315340      -0.19518914       0.31972488
C       -1.29920649      -0.70235949      -0.40743861
C       -0.51462863       0.19277629      -1.26675225
C        0.44562059      -0.05629236      -0.42676177
C        1.56175593       0.47017932       0.24641812
C        2.57698157       0.92374494       0.69529327
H       -2.28125876       0.76668018       0.29663793
H       -1.51133123      -1.70434050      -0.77179490
H       -0.15405122      -1.06625161       0.36526071
H        3.50927165       1.37105236       0.94941261
10
Frame=6 idx=002949 GeodesicLength=0.6759347147908907 rxn_smarts="[O:1]([C:2]([C:3]#[C:4][C:5]#[C:6][H:10])([H:8])[H:9])[H:7]>>[O:1]([C:2](=[C:3]=[C:4]([C:5]#[C:6][H:10])[H:9])[H:8])[H:7]"
O       -2.36588124      -0.19026657       0.28910416
C       -1.31924026      -0.70863942      -0.41525697
C       -0.49389270       0.17835005      -1.23154718
C        0.47112977      -0.07400047      -0.40314441
C        1.57956587       0.46879036       0.26943053
C        2.59769234       0.93821975       0.69532655
H       -2.27608934       0.76840403       0.31476661
H       -1.55052490      -1.69394869      -0.81201543
H       -0.16789217      -1.09818956       0.37439598
H        3.52513264       1.41128052       0.91894015
10
Frame=7 idx=002949 GeodesicLength=0.7883635693534997 rxn_smarts="[O:1]([C:2]([C:3]#[C:4][C:5]#[C:6][H:10])([H:8])[H:9])[H:7]>>[O:1]([C:2](=[C:3]=[C:4]([C:5]#[C:6][H:10])[H:9])[H:8])[H:7]"
O       -2.39852190      -0.18410076       0.25657848
C       -1.33943305      -0.71520416      -0.42312053
C       -0.47371027       0.16201794      -1.19444019
C        0.49683553      -0.09156824      -0.37790219
C        1.59832147       0.46919892       0.29101923
C        2.61589725       0.95884490       0.69542038
H       -2.27274845       0.76744613       0.33336976
H       -1.58831202      -1.68206233      -0.85328892
H       -0.18192102      -1.12961421       0.38470497
H        3.54359247       1.44504180       0.88765902
10
Frame=8 idx=002949 GeodesicLength=0.9007279369421741 rxn_smarts="[O:1]([C:2]([C:3]#[C:4][C:5]#[C:6][H:10])([H:8])[H:9])[H:7]>>[O:1]([C:2](=[C:3]=[C:4]([C:5]#[C:6][H:10])[H:9])[H:8])[H:7]"
O       -2.43097337      -0.17638220       0.22217892
C       -1.35995168      -0.72180769      -0.43108608
C       -0.45400918       0.14407242      -1.15476013
C        0.52271313      -0.10928946      -0.35044855
C        1.61842014       0.47039854       0.31152604
C        2.63462353       0.98043249       0.69410305
H       -2.27176138       0.76399317       0.35220377
H       -1.62487017      -1.66806045      -0.89616670
H       -0.19658441      -1.16088716       0.39640629
H        3.56239338       1.47753033       0.85604340
10
Frame=9 idx=002949 GeodesicLength=1.013049127509904 rxn_smarts="[O:1]([C:2]([C:3]#[C:4][C:5]#[C:6][H:10])([H:8])[H:9])[H:7]>>[O:1]([C:2](=[C:3]=[C:4]([C:5]#[C:6][H:10])[H:9])[H:8])[H:7]"
O       -2.46257665      -0.16544273       0.18598276
C       -1.38104559      -0.72797277      -0.43930158
C       -0.43419704       0.12404750      -1.11207452
C        0.54919929      -0.12913570      -0.32068519
C        1.64114947       0.46898634       0.33078503
C        2.65719555       0.99644231       0.68997024
H       -2.27148096       0.75909080       0.37226350
H       -1.66144096      -1.65062029      -0.94137283
H       -0.21270919      -1.19332145       0.40933940
H        3.57590607       1.51792599       0.82509319
10
Frame=10 idx=002949 GeodesicLength=1.125343928332379 rxn_smarts="[O:1]([C:2]([C:3]#[C:4][C:5]#[C:6][H:10])([H:8])[H:9])[H:7]>>[O:1]([C:2](=[C:3]=[C:4]([C:5]#[C:6][H:10])[H:9])[H:8])[H:7]"
O       -2.49451653      -0.15485735       0.14683853
C       -1.40211375      -0.73461443      -0.44787340
C       -0.41565496       0.10320960      -1.06561389
C        0.57503150      -0.14686004      -0.28704400
C        1.66370166       0.47199676       0.35018069
C        2.67746040       1.01952091       0.68553564
H       -2.27676744       0.74963687       0.39156445
H       -1.69405495      -1.63132332      -0.98898100
H       -0.22936310      -1.22435403       0.42495954
H        3.59627718       1.54764503       0.79043344
10
Frame=11 idx=002949 GeodesicLength=1.237510172282786 rxn_smarts="[O:1]([C:2]([C:3]#[C:4][C:5]#[C:6][H:10])([H:8])[H:9])[H:7]>>[O:1]([C:2](=[C:3]=[C:4]([C:5]#[C:6][H:10])[H:9])[H:8])[H:7]"
O       -2.52460067      -0.14023846       0.10646951
C       -1.42375588      -0.74052680      -0.45670406
C       -0.39714377       0.07976576      -1.01535650
C        0.60148542      -0.16780838      -0.25072615
C        1.69014600       0.47017925       0.36712659
C        2.70236860       1.03526490       0.67752258
H       -2.28302015       0.73922754       0.41149135
H       -1.72639045      -1.60735954      -1.03918641
H       -0.24800325      -1.25719544       0.44220082
H        3.60891415       1.58869117       0.75716227
10
Frame=12 idx=002949 GeodesicLength=1.3496213664650216 rxn_smarts="[O:1]([C:2]([C:3]#[C:4][C:5]#[C:6][H:10])([H:8])[H:9])[H:7]>>[O:1]([C:2](=[C:3]=[C:4]([C:5]#[C:6][H:10])[H:9])[H:8])[H:7]"
O       -2.55408692      -0.12526691       0.06344285
C       -1.44531311      -0.74660848      -0.46613695
C       -0.38007092       0.05524959      -0.96031704
C        0.62720171      -0.18754137      -0.20991824
C        1.71728819       0.47078009       0.38336003
C        2.72555615       1.05631882       0.66806065
H       -2.29469304       0.72436558       0.43109909
H       -1.75428715      -1.58001505      -1.09260150
H       -0.26778244      -1.28951625       0.46240609
H        3.62618754       1.62223399       0.72060502
10
Frame=13 idx=002949 GeodesicLength=1.461663622682414 rxn_smarts="[O:1]([C:2]([C:3]#[C:4][C:5]#[C:6][H:10])([H:8])[H:9])[H:7]>>[O:1]([C:2](=[C:3]=[C:4]([C:5]#[C:6][H:10])[H:9])[H:8])[H:7]"
O       -2.58205730      -0.10827179       0.01831296
C       -1.46690568      -0.75217823      -0.47619465
C       -0.36419225       0.02911444      -0.89970286
C        0.65239019      -0.20813768      -0.16436050
C        1.74707335       0.46956676       0.39751823
C        2.75166012       1.07411120       0.65445031
H       -2.31090223       0.70639930       0.45028874
H       -1.77817504      -1.54756762      -1.14941931
H       -0.28981661      -1.32236918       0.48593542
H        3.64092545       1.65933280       0.68317166
10
Frame=14 idx=002949 GeodesicLength=1.5736745273488497 rxn_smarts="[O:1]([C:2]([C:3]#[C:4][C:5]#[C:6][H:10])([H:8])[H:9])[H:7]>>[O:1]([C:2](=[C:3]=[C:4]([C:5]#[C:6][H:10])[H:9])[H:8])[H:7]"
O       -2.60917843      -0.09150543      -0.02983405
C       -1.48792181      -0.75726691      -0.48747329
C       -0.35038214       0.00302742      -0.83161591
C        0.67594010      -0.22690598      -0.11153617
C        1.77767524       0.46976229       0.41175311
C        2.77984859       1.09076220       0.63727920
H       -2.33496934       0.68298927       0.46846817
H       -1.79458041      -1.50937594      -1.21095339
H       -0.31424407      -1.35498014       0.51359410
H        3.65781227       1.69349322       0.64031824
10
Frame=15 idx=002949 GeodesicLength=1.6854340733931337 rxn_smarts="[O:1]([C:2]([C:3]#[C:4][C:5]#[C:6][H:10])([H:8])[H:9])[H:7]>>[O:1]([C:2](=[C:3]=[C:4]([C:5]#[C:6][H:10])[H:9])[H:8])[H:7]"
O       -2.63169818      -0.06940937      -0.07830240
C       -1.50842746      -0.76113580      -0.49925122
C       -0.33749135      -0.02773067      -0.75836989
C        0.69959007      -0.25018164      -0.05517755
C        1.81405440       0.46130371       0.41844573
C        2.80598753       1.10768457       0.61614939
H       -2.35986496       0.65869568       0.48635577
H       -1.80708494      -1.46372737      -1.27431803
H       -0.34164659      -1.39018946       0.54456323
H        3.66658147       1.73469035       0.59990497
10
Frame=16 idx=002949 GeodesicLength=1.7970299174562592 rxn_smarts="[O:1]([C:2]([C:3]#[C:4][C:5]#[C:6][H:10])([H:8])[H:9])[H:7]>>[O:1]([C:2](=[C:3]=[C:4]([C:5]#[C:6][H:10])[H:9])[H:8])[H:7]"
O       -2.65378173      -0.05082856      -0.12983388
C       -1.52687753      -0.76382016      -0.51310838
C       -0.32880329      -0.05574031      -0.67418024
C        0.71948170      -0.26746380       0.01218377
C        1.84883420       0.45750374       0.42588215
C        2.83519244       1.12160361       0.58961122
H       -2.39753927       0.62539463       0.50217424
H       -1.80562720      -1.40957861      -1.34335970
H       -0.37162115      -1.42471543       0.58027970
H        3.68074184       1.76764489       0.55035112
