10
Frame=0 idx=003073 GeodesicLength=0.0 rxn_smarts="[N:1]([C:2](=[O:3])[C:4]([C:5]#[N:6])([H:9])[H:10])([H:7])[H:8]>>[N:1]([C:2](=[O:3])[N:6]=[C:5]=[C:4]([H:9])[H:10])([H:7])[H:8]"
N       -0.93342817       1.16932254       0.09478795
C       -0.80350147      -0.13164154      -0.25081562
O       -1.53634815      -1.03728385      -0.32860694
C        1.17086967      -0.81455000       0.67747439
C        1.00566020      -0.44107803      -0.62015137
N        0.63860633      -0.05766530      -1.68693856
H       -1.89402221       1.47347841       0.10186082
H       -0.27458148       1.80804772      -0.31430028
H        1.59804893      -0.11821274       1.38239749
H        1.02869635      -1.85041720       0.94429211
10
Frame=1 idx=003073 GeodesicLength=0.10374780845401523 rxn_smarts="[N:1]([C:2](=[O:3])[C:4]([C:5]#[N:6])([H:9])[H:10])([H:7])[H:8]>>[N:1]([C:2](=[O:3])[N:6]=[C:5]=[C:4]([H:9])[H:10])([H:7])[H:8]"
N       -0.95952674       1.19487544       0.05496724
C       -0.79333697      -0.11777419      -0.22465275
O       -1.53590971      -1.02261746      -0.23605201
C        1.16963016      -0.84751974       0.67988472
C        1.03203647      -0.43296214      -0.60836920
N        0.66315471      -0.01617110      -1.66026031
H       -1.92514097       1.48206930       0.06185307
H       -0.32066073       1.83978041      -0.37483829
H        1.60765359      -0.18104094       1.40711630
H        1.06210019      -1.89863959       0.90035124
10
Frame=2 idx=003073 GeodesicLength=0.20608193666859495 rxn_smarts="[N:1]([C:2](=[O:3])[C:4]([C:5]#[N:6])([H:9])[H:10])([H:7])[H:8]>>[N:1]([C:2](=[O:3])[N:6]=[C:5]=[C:4]([H:9])[H:10])([H:7])[H:8]"
N       -0.98688992       1.21835399       0.01308152
C       -0.78217410      -0.10197632      -0.19713704
O       -1.53299723      -1.00222371      -0.13756274
C        1.16918221      -0.88212277       0.68064429
C        1.05952280      -0.42438319      -0.59557082
N        0.69035503       0.02798750      -1.63087339
H       -1.95731222       1.48815042       0.02056699
H       -0.36902822       1.86863678      -0.43805592
H        1.61647938      -0.24738830       1.43076809
H        1.09286227      -1.94503441       0.85413902
10
Frame=3 idx=003073 GeodesicLength=0.30741446386955357 rxn_smarts="[N:1]([C:2](=[O:3])[C:4]([C:5]#[N:6])([H:9])[H:10])([H:7])[H:8]>>[N:1]([C:2](=[O:3])[N:6]=[C:5]=[C:4]([H:9])[H:10])([H:7])[H:8]"
N       -1.01541024       1.23965597      -0.03147853
C       -0.76964755      -0.08372511      -0.16801952
O       -1.52656718      -0.97496453      -0.03229578
C        1.16938079      -0.91859414       0.67965483
C        1.08858904      -0.41475078      -0.58123858
N        0.72096427       0.07533960      -1.59807802
H       -1.99046110       1.49131712      -0.02036621
H       -0.42111793       1.89417474      -0.50678136
H        1.62377510      -0.31820632       1.45392291
H        1.12049480      -1.99024655       0.80468026
10
Frame=4 idx=003073 GeodesicLength=0.40781596106399454 rxn_smarts="[N:1]([C:2](=[O:3])[C:4]([C:5]#[N:6])([H:9])[H:10])([H:7])[H:8]>>[N:1]([C:2](=[O:3])[N:6]=[C:5]=[C:4]([H:9])[H:10])([H:7])[H:8]"
N       -1.04550609       1.25816047      -0.07903982
C       -0.75549452      -0.06263160      -0.13647278
O       -1.51569544      -0.93951161       0.08092969
C        1.17029698      -0.95691505       0.67647571
C        1.11937817      -0.40381625      -0.56518021
N        0.75528439       0.12708339      -1.56087620
H       -2.02494823       1.49099545      -0.06235217
H       -0.47705363       1.91524635      -0.58096866
H        1.62992017      -0.39422371       1.47608464
H        1.14381820      -2.03438744       0.75139979
10
Frame=5 idx=003073 GeodesicLength=0.5074580139371323 rxn_smarts="[N:1]([C:2](=[O:3])[C:4]([C:5]#[N:6])([H:9])[H:10])([H:7])[H:8]>>[N:1]([C:2](=[O:3])[N:6]=[C:5]=[C:4]([H:9])[H:10])([H:7])[H:8]"
N       -1.07749346       1.27305052      -0.13037209
C       -0.73925193      -0.03794350      -0.10176194
O       -1.49911541      -0.89368582       0.20375027
C        1.17165122      -0.99716855       0.67073682
C        1.15230118      -0.39104794      -0.54681203
N        0.79434635       0.18495826      -1.51761146
H       -2.06104100       1.48618480      -0.10551771
H       -0.53784532       1.93021131      -0.66243819
H        1.63509396      -0.47689355       1.49693967
H        1.16135442      -2.07766554       0.69308666
10
Frame=6 idx=003073 GeodesicLength=0.6062190428209357 rxn_smarts="[N:1]([C:2](=[O:3])[C:4]([C:5]#[N:6])([H:9])[H:10])([H:7])[H:8]>>[N:1]([C:2](=[O:3])[N:6]=[C:5]=[C:4]([H:9])[H:10])([H:7])[H:8]"
N       -1.11162019       1.28306353      -0.18676893
C       -0.72009665      -0.00835894      -0.06288821
O       -1.47479164      -0.83442268       0.33772801
C        1.17291872      -1.03953116       0.66193545
C        1.18818103      -0.37552284      -0.52505928
N        0.84000609       0.25145277      -1.46559301
H       -2.09867226       1.47601676      -0.14786043
H       -0.60561213       1.93577127      -0.75548722
H        1.63865276      -0.56834117       1.51631627
H        1.17103428      -2.12012753       0.62767736
10
Frame=7 idx=003073 GeodesicLength=0.7033235097819874 rxn_smarts="[N:1]([C:2](=[O:3])[C:4]([C:5]#[N:6])([H:9])[H:10])([H:7])[H:8]>>[N:1]([C:2](=[O:3])[N:6]=[C:5]=[C:4]([H:9])[H:10])([H:7])[H:8]"
N       -1.14830275       1.28594880      -0.24919691
C       -0.69710836       0.02797442      -0.01838979
O       -1.43973608      -0.75690024       0.48635806
C        1.17317724      -1.08411954       0.64889871
C        1.22777309      -0.35628048      -0.49885730
N        0.89473643       0.33126412      -1.39995056
H       -2.13784186       1.45904902      -0.18947600
H       -0.68220587       1.92582024      -0.86434997
H        1.63989108      -0.67150820       1.53296265
H        1.16961707      -2.16124815       0.55200111
10
Frame=8 idx=003073 GeodesicLength=0.7945717924125836 rxn_smarts="[N:1]([C:2](=[O:3])[C:4]([C:5]#[N:6])([H:9])[H:10])([H:7])[H:8]>>[N:1]([C:2](=[O:3])[N:6]=[C:5]=[C:4]([H:9])[H:10])([H:7])[H:8]"
N       -1.18775220       1.27653817      -0.31865976
C       -0.67007079       0.07222655       0.03331550
O       -1.39145145      -0.65506708       0.65195882
C        1.17041553      -1.12918859       0.62948106
C        1.27046631      -0.33335680      -0.46905207
N        0.96003851       0.42947420      -1.31417789
H       -2.17805063       1.43196881      -0.23292182
H       -0.76400909       1.89187432      -0.98647423
H        1.63860508      -0.78644283       1.54256867
H        1.15180872      -2.19802675       0.46396173
10
Frame=9 idx=003073 GeodesicLength=0.8729087663508482 rxn_smarts="[N:1]([C:2](=[O:3])[C:4]([C:5]#[N:6])([H:9])[H:10])([H:7])[H:8]>>[N:1]([C:2](=[O:3])[N:6]=[C:5]=[C:4]([H:9])[H:10])([H:7])[H:8]"
N       -1.22807583       1.24821951      -0.39431709
C       -0.63906561       0.12589275       0.09354183
O       -1.32680175      -0.52182953       0.83412856
C        1.16125101      -1.17171253       0.60087768
C        1.31668454      -0.30315303      -0.43481979
N        1.03672532       0.55057206      -1.19849439
H       -2.21603462       1.39372299      -0.27408692
H       -0.84760417       1.81725745      -1.12588018
H        1.63094580      -0.91415746       1.54123136
H        1.11197531      -2.22481222       0.35781895
10
Frame=10 idx=003073 GeodesicLength=0.934557794661853 rxn_smarts="[N:1]([C:2](=[O:3])[C:4]([C:5]#[N:6])([H:9])[H:10])([H:7])[H:8]>>[N:1]([C:2](=[O:3])[N:6]=[C:5]=[C:4]([H:9])[H:10])([H:7])[H:8]"
N       -1.26332386       1.19722140      -0.46610288
C       -0.60805832       0.18498676       0.15927000
O       -1.25049474      -0.36301984       1.01635909
C        1.14260533      -1.20297414       0.56206693
C        1.36362481      -0.26449607      -0.39972847
N        1.11217011       0.68033833      -1.05889538
H       -2.24621848       1.34428737      -0.31400915
H       -0.91396099       1.69689212      -1.26086553
H        1.61283544      -1.04201912       1.52387113
H        1.05082070      -2.23121680       0.23803427
10
Frame=11 idx=003073 GeodesicLength=1.0013979741323487 rxn_smarts="[N:1]([C:2](=[O:3])[C:4]([C:5]#[N:6])([H:9])[H:10])([H:7])[H:8]>>[N:1]([C:2](=[O:3])[N:6]=[C:5]=[C:4]([H:9])[H:10])([H:7])[H:8]"
N       -1.28910911       1.12715107      -0.52543969
C       -0.58296799       0.24048660       0.22211533
O       -1.17932007      -0.20385208       1.17005880
C        1.11595146      -1.21681436       0.51896320
C        1.40692468      -0.22279556      -0.36889651
N        1.17312136       0.79582452      -0.91712520
H       -2.26261387       1.29770925      -0.34350576
H       -0.95023653       1.54766483      -1.36904410
H        1.58646277      -1.15143393       1.49229787
H        0.98178731      -2.21394035       0.12057605
10
Frame=12 idx=003073 GeodesicLength=1.0816368319879206 rxn_smarts="[N:1]([C:2](=[O:3])[C:4]([C:5]#[N:6])([H:9])[H:10])([H:7])[H:8]>>[N:1]([C:2](=[O:3])[N:6]=[C:5]=[C:4]([H:9])[H:10])([H:7])[H:8]"
N       -1.30541047       1.05180720      -0.56646065
C       -0.56579295       0.28677497       0.27559009
O       -1.12206829      -0.06267117       1.28678874
C        1.08692434      -1.21624703       0.47789303
C        1.44593195      -0.18378149      -0.34329935
N        1.21521103       0.88375398      -0.79453537
H       -2.26720515       1.26062372      -0.36556305
H       -0.96162724       1.39710384      -1.44183924
H        1.55597689      -1.23650397       1.45436109
H        0.91805989      -2.18086005       0.01706473
10
Frame=13 idx=003073 GeodesicLength=1.1686839724066829 rxn_smarts="[N:1]([C:2](=[O:3])[C:4]([C:5]#[N:6])([H:9])[H:10])([H:7])[H:8]>>[N:1]([C:2](=[O:3])[N:6]=[C:5]=[C:4]([H:9])[H:10])([H:7])[H:8]"
N       -1.31511259       0.97987099      -0.59205355
C       -0.55492657       0.32458604       0.32010082
O       -1.07779534       0.06024898       1.37504459
C        1.05853619      -1.20754523       0.44051351
C        1.48062782      -0.15109184      -0.32382782
N        1.24468532       0.94878503      -0.69177335
H       -2.26553013       1.22941789      -0.38517707
H       -0.95845809       1.25858764      -1.48616626
H        1.52510871      -1.30150972       1.41429944
H        0.86286469      -2.14134979      -0.07096031
10
Frame=14 idx=003073 GeodesicLength=1.2582550913591843 rxn_smarts="[N:1]([C:2](=[O:3])[C:4]([C:5]#[N:6])([H:9])[H:10])([H:7])[H:8]>>[N:1]([C:2](=[O:3])[N:6]=[C:5]=[C:4]([H:9])[H:10])([H:7])[H:8]"
N       -1.32049021       0.91546811      -0.60648466
C       -0.54905420       0.35453251       0.35677433
O       -1.04227501       0.17041970       1.44358583
C        1.03183883      -1.19472780       0.40641345
C        1.51177126      -0.12469016      -0.30991889
N        1.26709937       0.99778908      -0.60250124
H       -2.26158882       1.20036559      -0.40412814
H       -0.94786595       1.13350415      -1.51129851
H        1.49541532      -1.35234576       1.37382938
H        0.81514941      -2.10031542      -0.14627153
10
Frame=15 idx=003073 GeodesicLength=1.3494378030859913 rxn_smarts="[N:1]([C:2](=[O:3])[C:4]([C:5]#[N:6])([H:9])[H:10])([H:7])[H:8]>>[N:1]([C:2](=[O:3])[N:6]=[C:5]=[C:4]([H:9])[H:10])([H:7])[H:8]"
N       -1.32291060       0.85741245      -0.61357523
C       -0.54597213       0.38023279       0.38890409
O       -1.01243570       0.27299941       1.49868510
C        1.00647755      -1.17949036       0.37434224
C        1.54070302      -0.10275482      -0.29963046
N        1.28603186       1.03566140      -0.52209375
H       -2.25725409       1.17029988      -0.42274112
H       -0.93303504       1.01837132      -1.52350725
H        1.46600247      -1.39414905       1.33314658
H        0.77239266      -2.05858301      -0.21353022
10
Frame=16 idx=003073 GeodesicLength=1.4433919462678244 rxn_smarts="[N:1]([C:2](=[O:3])[C:4]([C:5]#[N:6])([H:9])[H:10])([H:7])[H:8]>>[N:1]([C:2](=[O:3])[N:6]=[C:5]=[C:4]([H:9])[H:10])([H:7])[H:8]"
N       -1.32402399       0.80232085      -0.61552181
C       -0.54557603       0.40221897       0.41856650
O       -0.98784755       0.37022098       1.54400961
C        0.98253559      -1.16211258       0.34299880
C        1.56885136      -0.08193524      -0.28900709
N        1.30154815       1.06650655      -0.44734155
H       -2.24944036       1.14805397      -0.43961358
H       -0.91681320       0.90022446      -1.52728116
H        1.43584497      -1.43098158       1.29150715
H        0.73492106      -2.01451639      -0.27831688
