11
Frame=0 idx=010251 GeodesicLength=0.0 rxn_smarts="[C:1](#[C:2][c:3]1[c:4]([H:9])[n:5]([H:10])[n:6][c:7]1[H:11])[H:8]>>[C:1](#[C:2][C@:7]1([H:11])[C+:3]=[C:4]([H:9])[N:5]([H:10])[N-:6]1)[H:8]"
C        2.28925450      -0.21996800      -0.51653551
C        1.26359580       0.24980648      -0.09922732
C        0.00936373       0.19137265       1.25439192
C       -0.95725527      -0.74012943       0.82423756
N       -1.49602877      -0.33467716      -0.34394797
N       -1.01393633       0.73799936      -0.86822515
C       -0.00880490       1.08574808       0.06294672
H        3.20507983      -0.65454587      -0.84132204
H       -1.32799326      -1.63587304       1.29877843
H       -2.22857510      -0.81394058      -0.85311108
H        0.26529974       2.13420749       0.08201441
11
Frame=1 idx=010251 GeodesicLength=0.06686369949162586 rxn_smarts="[C:1](#[C:2][c:3]1[c:4]([H:9])[n:5]([H:10])[n:6][c:7]1[H:11])[H:8]>>[C:1](#[C:2][C@:7]1([H:11])[C+:3]=[C:4]([H:9])[N:5]([H:10])[N-:6]1)[H:8]"
C        2.31369067      -0.22080116      -0.51701761
C        1.28125181       0.23814504      -0.10487397
C        0.01504411       0.18188456       1.23681199
C       -0.96342442      -0.74068655       0.82234803
N       -1.51477170      -0.32952189      -0.33948974
N       -1.02425307       0.73613498      -0.87113382
C       -0.01018822       1.07763891       0.04983106
H        3.24389233      -0.63876480      -0.82224944
H       -1.32669426      -1.63991225       1.29596293
H       -2.26914841      -0.79243570      -0.83127250
H        0.25460115       2.12831886       0.08108306
11
Frame=2 idx=010251 GeodesicLength=0.13360734827677392 rxn_smarts="[C:1](#[C:2][c:3]1[c:4]([H:9])[n:5]([H:10])[n:6][c:7]1[H:11])[H:8]>>[C:1](#[C:2][C@:7]1([H:11])[C+:3]=[C:4]([H:9])[N:5]([H:10])[N-:6]1)[H:8]"
C        2.33855195      -0.22182328      -0.51682528
C        1.29917601       0.22601231      -0.11039964
C        0.02058841       0.17217305       1.21874364
C       -0.96974099      -0.74117445       0.82044546
N       -1.53400878      -0.32389417      -0.33454305
N       -1.03478883       0.73413384      -0.87418097
C       -0.01158449       1.06924687       0.03619809
H        3.28239347      -0.62215014      -0.80334712
H       -1.32546302      -1.64404144       1.29275260
H       -2.30903680      -0.77041075      -0.80872435
H        0.24391306       2.12192816       0.07988061
11
Frame=3 idx=010251 GeodesicLength=0.20024651479215846 rxn_smarts="[C:1](#[C:2][c:3]1[c:4]([H:9])[n:5]([H:10])[n:6][c:7]1[H:11])[H:8]>>[C:1](#[C:2][C@:7]1([H:11])[C+:3]=[C:4]([H:9])[N:5]([H:10])[N-:6]1)[H:8]"
C        2.36399099      -0.22261197      -0.51586186
C        1.31743544       0.21363223      -0.11577052
C        0.02600086       0.16226918       1.20012385
C       -0.97605757      -0.74167230       0.81843151
N       -1.55361094      -0.31787975      -0.32917275
N       -1.04553380       0.73192386      -0.87744916
C       -0.01306008       1.06061634       0.02199226
H        3.32037911      -0.60531442      -0.78441806
H       -1.32400507      -1.64845108       1.28893317
H       -2.34857232      -0.74761770      -0.78518228
H        0.23303337       2.11510561       0.07837384
11
Frame=4 idx=010251 GeodesicLength=0.266741751771098 rxn_smarts="[C:1](#[C:2][c:3]1[c:4]([H:9])[n:5]([H:10])[n:6][c:7]1[H:11])[H:8]>>[C:1](#[C:2][C@:7]1([H:11])[C+:3]=[C:4]([H:9])[N:5]([H:10])[N-:6]1)[H:8]"
C        2.38982082      -0.22300171      -0.51431443
C        1.33592863       0.20115290      -0.12101800
C        0.03132486       0.15226746       1.18102789
C       -0.98240715      -0.74200765       0.81646459
N       -1.57374102      -0.31115548      -0.32306480
N       -1.05668844       0.72979228      -0.88066365
C       -0.01468284       1.05192585       0.00735628
H        3.35741204      -0.58897684      -0.76562790
H       -1.32227578      -1.65304644       1.28454549
H       -2.38664512      -0.72495427      -0.76144878
H        0.22195400       2.10800391       0.07674331
11
Frame=5 idx=010251 GeodesicLength=0.33314297174830193 rxn_smarts="[C:1](#[C:2][c:3]1[c:4]([H:9])[n:5]([H:10])[n:6][c:7]1[H:11])[H:8]>>[C:1](#[C:2][C@:7]1([H:11])[C+:3]=[C:4]([H:9])[N:5]([H:10])[N-:6]1)[H:8]"
C        2.41617863      -0.22311725      -0.51216738
C        1.35477017       0.18839428      -0.12620863
C        0.03660657       0.14191086       1.16128728
C       -0.98870162      -0.74243801       0.81434139
N       -1.59427250      -0.30391695      -0.31637578
N       -1.06814525       0.72750689      -0.88399529
C       -0.01638711       1.04294747      -0.00785637
H        3.39416652      -0.57227141      -0.74675291
H       -1.32073400      -1.65768845       1.27974080
H       -2.42421161      -0.70171350      -0.73688154
H        0.21073019       2.10038608       0.07486844
11
Frame=6 idx=010251 GeodesicLength=0.39948032694042646 rxn_smarts="[C:1](#[C:2][c:3]1[c:4]([H:9])[n:5]([H:10])[n:6][c:7]1[H:11])[H:8]>>[C:1](#[C:2][C@:7]1([H:11])[C+:3]=[C:4]([H:9])[N:5]([H:10])[N-:6]1)[H:8]"
C        2.44319484      -0.22294935      -0.50932541
C        1.37404832       0.17527701      -0.13136969
C        0.04184726       0.13105739       1.14074679
C       -0.99487718      -0.74314067       0.81189349
N       -1.61508660      -0.29635291      -0.30926336
N       -1.07982623       0.72483654      -0.88764186
C       -0.01815633       1.03351921      -0.02381683
H        3.43101822      -0.55474364      -0.72746911
H       -1.31941027      -1.66249635       1.27440753
H       -2.46209356      -0.67709526      -0.71071995
H        0.19934153       2.09208804       0.07255841
11
Frame=7 idx=010251 GeodesicLength=0.4657045600856448 rxn_smarts="[C:1](#[C:2][c:3]1[c:4]([H:9])[n:5]([H:10])[n:6][c:7]1[H:11])[H:8]>>[C:1](#[C:2][C@:7]1([H:11])[C+:3]=[C:4]([H:9])[N:5]([H:10])[N-:6]1)[H:8]"
C        2.47060764      -0.22253537      -0.50600636
C        1.39366875       0.16189130      -0.13649503
C        0.04708343       0.11975596       1.11950383
C       -1.00100204      -0.74393457       0.80929448
N       -1.63631270      -0.28810402      -0.30139434
N       -1.09191210       0.72212427      -0.89126778
C       -0.02002932       1.02380875      -0.04032906
H        3.46755554      -0.53681587      -0.70815961
H       -1.31854994      -1.66718239       1.26882588
H       -2.49898654      -0.65224233      -0.68404117
H        0.18787729       2.08323427       0.07006917
11
Frame=8 idx=010251 GeodesicLength=0.5317879875098886 rxn_smarts="[C:1](#[C:2][c:3]1[c:4]([H:9])[n:5]([H:10])[n:6][c:7]1[H:11])[H:8]>>[C:1](#[C:2][C@:7]1([H:11])[C+:3]=[C:4]([H:9])[N:5]([H:10])[N-:6]1)[H:8]"
C        2.49833355      -0.22134655      -0.50232903
C        1.41360070       0.14868010      -0.14155145
C        0.05232606       0.10822304       1.09759253
C       -1.00698258      -0.74467701       0.80662834
N       -1.65791675      -0.27900717      -0.29257843
N       -1.10456851       0.71959001      -0.89469360
C       -0.02214916       1.01409026      -0.05730035
H        3.50318207      -0.51989918      -0.68873644
H       -1.31764302      -1.67191214       1.26276481
H       -2.53431654      -0.62783667      -0.65732105
H        0.17613418       2.07409530       0.06752468
11
Frame=9 idx=010251 GeodesicLength=0.5978142058974091 rxn_smarts="[C:1](#[C:2][c:3]1[c:4]([H:9])[n:5]([H:10])[n:6][c:7]1[H:11])[H:8]>>[C:1](#[C:2][C@:7]1([H:11])[C+:3]=[C:4]([H:9])[N:5]([H:10])[N-:6]1)[H:8]"
C        2.52666951      -0.22018458      -0.49792989
C        1.43405928       0.13489246      -0.14657228
C        0.05753613       0.09585928       1.07465709
C       -1.01286910      -0.74588130       0.80346666
N       -1.67964605      -0.26964453      -0.28338504
N       -1.11742490       0.71653083      -0.89850166
C       -0.02429660       1.00368013      -0.07516267
H        3.53936093      -0.50109280      -0.66883877
H       -1.31754298      -1.67663324       1.25640520
H       -2.57025777      -0.60149450      -0.62855265
H        0.16441155       2.06396825       0.06441400
11
Frame=10 idx=010251 GeodesicLength=0.6637031786429164 rxn_smarts="[C:1](#[C:2][c:3]1[c:4]([H:9])[n:5]([H:10])[n:6][c:7]1[H:11])[H:8]>>[C:1](#[C:2][C@:7]1([H:11])[C+:3]=[C:4]([H:9])[N:5]([H:10])[N-:6]1)[H:8]"
C        2.55522832      -0.21849717      -0.49313501
C        1.45484829       0.12115779      -0.15148465
C        0.06273206       0.08313301       1.05094704
C       -1.01868223      -0.74703552       0.80023183
N       -1.70167722      -0.25936808      -0.27317062
N       -1.13087317       0.71364379      -0.90208091
C       -0.02668434       0.99317046      -0.09354732
H        3.57485649      -0.48274642      -0.64886077
H       -1.31763056      -1.68132007       1.24964150
H       -2.60469968      -0.57555167      -0.59969575
H        0.15258205       2.05341388       0.06115466
11
Frame=11 idx=010251 GeodesicLength=0.7294761631227311 rxn_smarts="[C:1](#[C:2][c:3]1[c:4]([H:9])[n:5]([H:10])[n:6][c:7]1[H:11])[H:8]>>[C:1](#[C:2][C@:7]1([H:11])[C+:3]=[C:4]([H:9])[N:5]([H:10])[N-:6]1)[H:8]"
C        2.58412963      -0.21652908      -0.48782755
C        1.47613799       0.10734675      -0.15620051
C        0.06789049       0.06973120       1.02625638
C       -1.02435731      -0.74847218       0.79661915
N       -1.72368134      -0.24864650      -0.26239083
N       -1.14472449       0.71060598      -0.90571302
C       -0.02925392       0.98228214      -0.11262885
H        3.61019592      -0.46377427      -0.62866706
H       -1.31839017      -1.68588358       1.24269031
H       -2.63861808      -0.54880325      -0.56973837
H        0.14067128       2.04214277       0.05760035
11
Frame=12 idx=010251 GeodesicLength=0.7950949770701284 rxn_smarts="[C:1](#[C:2][c:3]1[c:4]([H:9])[n:5]([H:10])[n:6][c:7]1[H:11])[H:8]>>[C:1](#[C:2][C@:7]1([H:11])[C+:3]=[C:4]([H:9])[N:5]([H:10])[N-:6]1)[H:8]"
C        2.61315233      -0.21386295      -0.48222424
C        1.49783778       0.09395262      -0.16063296
C        0.07302172       0.05593875       1.00070647
C       -1.02987287      -0.74989441       0.79286374
N       -1.74568506      -0.23714286      -0.25069023
N       -1.15920868       0.70786225      -0.90901093
C       -0.03215692       0.97141111      -0.13216968
H        3.64470090      -0.44576472      -0.60851862
H       -1.31947587      -1.69025364       1.23555815
H       -2.67089488      -0.52276594      -0.53992181
H        0.12858155       2.03051978       0.05404011
11
Frame=13 idx=010251 GeodesicLength=0.8605992826760063 rxn_smarts="[C:1](#[C:2][c:3]1[c:4]([H:9])[n:5]([H:10])[n:6][c:7]1[H:11])[H:8]>>[C:1](#[C:2][C@:7]1([H:11])[C+:3]=[C:4]([H:9])[N:5]([H:10])[N-:6]1)[H:8]"
C        2.64240449      -0.21103793      -0.47610301
C        1.52001215       0.08049061      -0.16479070
C        0.07807880       0.04140137       0.97406777
C       -1.03533954      -0.75150859       0.78879167
N       -1.76758577      -0.22510762      -0.23833388
N       -1.17416897       0.70508381      -0.91225218
C       -0.03528802       0.96017286      -0.15242147
H        3.67906417      -0.42701696      -0.58820360
H       -1.32124435      -1.69448390       1.22825618
H       -2.70249958      -0.49612971      -0.50916379
H        0.11656660       2.01813606       0.05015302
11
Frame=14 idx=010251 GeodesicLength=0.9259612742829472 rxn_smarts="[C:1](#[C:2][c:3]1[c:4]([H:9])[n:5]([H:10])[n:6][c:7]1[H:11])[H:8]>>[C:1](#[C:2][C@:7]1([H:11])[C+:3]=[C:4]([H:9])[N:5]([H:10])[N-:6]1)[H:8]"
C        2.67174522      -0.20750544      -0.46967492
C        1.54262934       0.06755316      -0.16856681
C        0.08307507       0.02635625       0.94638355
C       -1.04065155      -0.75313633       0.78451984
N       -1.78930288      -0.21239958      -0.22513484
N       -1.18978286       0.70261640      -0.91514820
C       -0.03881386       0.94893624      -0.17319553
H        3.71270679      -0.40917554      -0.56786065
H       -1.32338208      -1.69850354       1.22083000
H       -2.73265990      -0.47007688      -0.47836476
H        0.10443672       2.00533525       0.04621231
11
Frame=15 idx=010251 GeodesicLength=0.9912029420559998 rxn_smarts="[C:1](#[C:2][c:3]1[c:4]([H:9])[n:5]([H:10])[n:6][c:7]1[H:11])[H:8]>>[C:1](#[C:2][C@:7]1([H:11])[C+:3]=[C:4]([H:9])[N:5]([H:10])[N-:6]1)[H:8]"
C        2.70120707      -0.20355518      -0.46283786
C        1.56570843       0.05489938      -0.17195293
C        0.08797917       0.01057513       0.91747191
C       -1.04588138      -0.75486826       0.77996650
N       -1.81076450      -0.19914047      -0.21122187
N       -1.20599047       0.70033500      -0.91780812
C       -0.04269885       0.93750867      -0.19462596
H        3.74597052      -0.39134984      -0.54737507
H       -1.32608584      -1.70231931       1.21331861
H       -2.76180787      -0.44397940      -0.44700206
H        0.09236373       1.99189428       0.04206685
11
Frame=16 idx=010251 GeodesicLength=1.0563255639571458 rxn_smarts="[C:1](#[C:2][c:3]1[c:4]([H:9])[n:5]([H:10])[n:6][c:7]1[H:11])[H:8]>>[C:1](#[C:2][C@:7]1([H:11])[C+:3]=[C:4]([H:9])[N:5]([H:10])[N-:6]1)[H:8]"
C        2.73077927      -0.19888364      -0.45564276
C        1.58925229       0.04278822      -0.17491092
C        0.09278912      -0.00594446       0.88720056
C       -1.05096648      -0.75669994       0.77510313
N       -1.83187642      -0.18538941      -0.19660976
N       -1.22285591       0.69831543      -0.92017966
C       -0.04703549       0.92598994      -0.21671862
H        3.77872766      -0.37413087      -0.52664333
H       -1.32922603      -1.70593663       1.20573507
H       -2.78985694      -0.41799161      -0.41509948
H        0.08026893       1.97788297       0.03776578
