12
Frame=0 idx=003036 GeodesicLength=0.0 rxn_smarts="[O:1]=[C:2]([C:3]([C:4]([C:5](=[O:6])[H:12])([H:10])[H:11])([H:8])[H:9])[H:7]>>[H:8][H:12].[O:1]1[C:2]([H:7])=[C:3]([H:9])[C:4]([H:10])([H:11])[C:5]1=[O:6]"
O       -0.60453706      -0.62975361      -1.29171376
C       -1.22913032      -0.66658155      -0.18634689
C       -0.62260562       0.03582684       0.85051009
C        0.35263519       0.98192168       0.22888251
C        0.91767911       0.10675273      -0.88909791
O        1.65965043       0.28935421      -1.78455747
H       -2.06312547      -1.35913746      -0.07706210
H        0.46180132      -0.98069176       0.68948717
H       -1.03169554       0.11301848       1.84552932
H       -0.12100126       1.84381574      -0.24475094
H        1.15346669       1.30630736       0.89173650
H        1.12686252      -1.04083267      -0.03261654
12
Frame=1 idx=003036 GeodesicLength=0.08822298348950429 rxn_smarts="[O:1]=[C:2]([C:3]([C:4]([C:5](=[O:6])[H:12])([H:10])[H:11])([H:8])[H:9])[H:7]>>[H:8][H:12].[O:1]1[C:2]([H:7])=[C:3]([H:9])[C:4]([H:10])([H:11])[C:5]1=[O:6]"
O       -0.61605227      -0.62129752      -1.29828057
C       -1.23467622      -0.66436856      -0.18865399
C       -0.62038366       0.03046870       0.85044095
C        0.35111394       0.98274142       0.22915387
C        0.92348062       0.11326643      -0.88756433
O        1.65053556       0.28040914      -1.79853697
H       -2.06767697      -1.35822543      -0.07840135
H        0.47273370      -0.99360321       0.70398855
H       -1.04273450       0.12093684       1.83904904
H       -0.12104943       1.84779866      -0.23970718
H        1.14924644       1.30601683       0.89622508
H        1.15546279      -1.04414329      -0.02771310
12
Frame=2 idx=003036 GeodesicLength=0.17639649736093999 rxn_smarts="[O:1]=[C:2]([C:3]([C:4]([C:5](=[O:6])[H:12])([H:10])[H:11])([H:8])[H:9])[H:7]>>[H:8][H:12].[O:1]1[C:2]([H:7])=[C:3]([H:9])[C:4]([H:10])([H:11])[C:5]1=[O:6]"
O       -0.62819440      -0.61220616      -1.30508719
C       -1.24051887      -0.66191531      -0.19111356
C       -0.61819375       0.02497710       0.85022657
C        0.34951414       0.98351957       0.22934723
C        0.92923864       0.11980628      -0.88612386
O        1.64116935       0.27072028      -1.81218109
H       -2.07224335      -1.35740124      -0.07983538
H        0.48373453      -1.00663088       0.71886695
H       -1.05335931       0.12854534       1.83227047
H       -0.12109333       1.85180011      -0.23463970
H        1.14488515       1.30564896       0.90069392
H        1.18506118      -1.04686406      -0.02242435
12
Frame=3 idx=003036 GeodesicLength=0.26453613712129115 rxn_smarts="[O:1]=[C:2]([C:3]([C:4]([C:5](=[O:6])[H:12])([H:10])[H:11])([H:8])[H:9])[H:7]>>[H:8][H:12].[O:1]1[C:2]([H:7])=[C:3]([H:9])[C:4]([H:10])([H:11])[C:5]1=[O:6]"
O       -0.64101461      -0.60242044      -1.31214872
C       -1.24667961      -0.65920787      -0.19373996
C       -0.61604492       0.01934769       0.84984392
C        0.34783304       0.98425012       0.22944965
C        0.93493725       0.12635931      -0.88479114
O        1.63155185       0.26023144      -1.82546852
H       -2.07683052      -1.35666792      -0.08138753
H        0.49479284      -1.01977379       0.73414856
H       -1.06353005       0.13578883       1.82522154
H       -0.12112581       1.85582032      -0.22955429
H        1.14038298       1.30519030       0.90512805
H        1.21572754      -1.04891799      -0.01670154
12
Frame=4 idx=003036 GeodesicLength=0.3526844678044513 rxn_smarts="[O:1]=[C:2]([C:3]([C:4]([C:5](=[O:6])[H:12])([H:10])[H:11])([H:8])[H:9])[H:7]>>[H:8][H:12].[O:1]1[C:2]([H:7])=[C:3]([H:9])[C:4]([H:10])([H:11])[C:5]1=[O:6]"
O       -0.65457296      -0.59187071      -1.31948011
C       -1.25318337      -0.65623115      -0.19654755
C       -0.61394437       0.01356966       0.84926915
C        0.34606931       0.98492205       0.22944860
C        0.94055795       0.13290765      -0.88358314
O        1.62167413       0.24887516      -1.83837736
H       -2.08144565      -1.35602740      -0.08308800
H        0.50589766      -1.03303153       0.74986885
H       -1.07321522       0.14261587       1.81792870
H       -0.12113682       1.85985630      -0.22445311
H        1.13574247       1.30462156       0.90951234
H        1.24755688      -1.05020746      -0.01049837
12
Frame=5 idx=003036 GeodesicLength=0.4408566689996115 rxn_smarts="[O:1]=[C:2]([C:3]([C:4]([C:5](=[O:6])[H:12])([H:10])[H:11])([H:8])[H:9])[H:7]>>[H:8][H:12].[O:1]1[C:2]([H:7])=[C:3]([H:9])[C:4]([H:10])([H:11])[C:5]1=[O:6]"
O       -0.66892054      -0.58049552      -1.32709084
C       -1.26004962      -0.65297260      -0.19955013
C       -0.61189822       0.00763392       0.84847914
C        0.34422250       0.98552691       0.22933355
C        0.94608572       0.13943986      -0.88251564
O        1.61152806       0.23658779      -1.85089454
H       -2.08609573      -1.35548004      -0.08496474
H        0.51703886      -1.04640804       0.76605387
H       -1.08238759       0.14897917       1.81041873
H       -0.12111752       1.86390693      -0.21933581
H        1.13096750       1.30392415       0.91383372
H        1.28062658      -1.05064252      -0.00376730
12
Frame=6 idx=003036 GeodesicLength=0.5290617518056457 rxn_smarts="[O:1]=[C:2]([C:3]([C:4]([C:5](=[O:6])[H:12])([H:10])[H:11])([H:8])[H:9])[H:7]>>[H:8][H:12].[O:1]1[C:2]([H:7])=[C:3]([H:9])[C:4]([H:10])([H:11])[C:5]1=[O:6]"
O       -0.68412098      -0.56820960      -1.33499132
C       -1.26730719      -0.64941014      -0.20276481
C       -0.60990975       0.00152091       0.84744760
C        0.34229255       0.98605005       0.22909282
C        0.95150210       0.14593142      -0.88160447
O        1.60109102       0.22327645      -1.86300029
H       -2.09078597      -1.35502680      -0.08706106
H        0.52821184      -1.05990462       0.78273571
H       -1.09101748       0.15482204       1.80272275
H       -0.12105474       1.86796586      -0.21420190
H        1.12606195       1.30307573       0.91807746
H        1.31503665      -1.05009129       0.00354751
12
Frame=7 idx=003036 GeodesicLength=0.6173233206103491 rxn_smarts="[O:1]=[C:2]([C:3]([C:4]([C:5](=[O:6])[H:12])([H:10])[H:11])([H:8])[H:9])[H:7]>>[H:8][H:12].[O:1]1[C:2]([H:7])=[C:3]([H:9])[C:4]([H:10])([H:11])[C:5]1=[O:6]"
O       -0.70023186      -0.55494287      -1.34318251
C       -1.27498004      -0.64552724      -0.20620535
C       -0.60798113      -0.00478858       0.84614947
C        0.34028060       0.98647830       0.22871807
C        0.95679165       0.15237094      -0.88086837
O        1.59034705       0.20885374      -1.87467626
H       -2.09552557      -1.35466565      -0.08941209
H        0.53941250      -1.07352952       0.79994265
H       -1.09908688       0.16010264       1.79486131
H       -0.12093764       1.87202896      -0.20904397
H        1.12103186       1.30205115       0.92223271
H        1.35087945      -1.04843185       0.01148433
12
Frame=8 idx=003036 GeodesicLength=0.7056604580888247 rxn_smarts="[O:1]=[C:2]([C:3]([C:4]([C:5](=[O:6])[H:12])([H:10])[H:11])([H:8])[H:9])[H:7]>>[H:8][H:12].[O:1]1[C:2]([H:7])=[C:3]([H:9])[C:4]([H:10])([H:11])[C:5]1=[O:6]"
O       -0.71732243      -0.54060244      -1.35165342
C       -1.28310198      -0.64129957      -0.20988643
C       -0.60611462      -0.01132261       0.84455730
C        0.33818848       0.98679097       0.22820103
C        0.96193664       0.15873039      -0.88032315
O        1.57926231       0.19319862      -1.88589886
H       -2.10032309      -1.35439001      -0.09207672
H        0.55064458      -1.08729042       0.81771406
H       -1.10657720       0.16476948       1.78685311
H       -0.12074905       1.87608471      -0.20385409
H        1.11588324       1.30081995       0.92628880
H        1.38827311      -1.04548907       0.02007836
12
Frame=9 idx=003036 GeodesicLength=0.7938427119997259 rxn_smarts="[O:1]=[C:2]([C:3]([C:4]([C:5](=[O:6])[H:12])([H:10])[H:11])([H:8])[H:9])[H:7]>>[H:8][H:12].[O:1]1[C:2]([H:7])=[C:3]([H:9])[C:4]([H:10])([H:11])[C:5]1=[O:6]"
O       -0.73543003      -0.52502535      -1.36040608
C       -1.29171203      -0.63665394      -0.21383522
C       -0.60427449      -0.01816437       0.84264507
C        0.33603337       0.98694101       0.22753808
C        0.96693850       0.16490568      -0.87994872
O        1.56765530       0.17612435      -1.89665978
H       -2.10515554      -1.35418831      -0.09516226
H        0.56193674      -1.10116945       0.83610571
H       -1.11346527       0.16872682       1.77868427
H       -0.12044452       1.88009523      -0.19862871
H        1.11062335       1.29935861       0.93023882
H        1.42729463      -1.04095029       0.02942882
12
Frame=10 idx=003036 GeodesicLength=0.8820493008296565 rxn_smarts="[O:1]=[C:2]([C:3]([C:4]([C:5](=[O:6])[H:12])([H:10])[H:11])([H:8])[H:9])[H:7]>>[H:8][H:12].[O:1]1[C:2]([H:7])=[C:3]([H:9])[C:4]([H:10])([H:11])[C:5]1=[O:6]"
O       -0.75460328      -0.50821393      -1.36941053
C       -1.30082791      -0.63159836      -0.21805486
C       -0.60248788      -0.02529675       0.84037815
C        0.33380053       0.98694246       0.22671996
C        0.97177157       0.17097052      -0.87980004
O        1.55561031       0.15752759      -1.90688379
H       -2.11006094      -1.35403829      -0.09868917
H        0.57328747      -1.11517845       0.85512216
H       -1.11971915       0.17194351       1.77041178
H       -0.12004362       1.88408056      -0.19335013
H        1.10525164       1.29763955       0.93407623
H        1.46802126      -1.03477841       0.03948024
12
Frame=11 idx=003036 GeodesicLength=0.9703102360544819 rxn_smarts="[O:1]=[C:2]([C:3]([C:4]([C:5](=[O:6])[H:12])([H:10])[H:11])([H:8])[H:9])[H:7]>>[H:8][H:12].[O:1]1[C:2]([H:7])=[C:3]([H:9])[C:4]([H:10])([H:11])[C:5]1=[O:6]"
O       -0.77487018      -0.49010734      -1.37864908
C       -1.31047712      -0.62610085      -0.22256250
C       -0.60075474      -0.03275211       0.83772262
C        0.33149505       0.98677271       0.22574173
C        0.97642641       0.17691045      -0.87989760
O        1.54306804       0.13727602      -1.91652709
H       -2.11506051      -1.35391232      -0.10271763
H        0.58468992      -1.12931341       0.87481406
H       -1.12532181       0.17436571       1.76205612
H       -0.11952826       1.88802713      -0.18800272
H        1.09977481       1.29562476       0.93779778
H        1.51055839      -1.02679074       0.05022430
12
Frame=12 idx=003036 GeodesicLength=1.0585928256015409 rxn_smarts="[O:1]=[C:2]([C:3]([C:4]([C:5](=[O:6])[H:12])([H:10])[H:11])([H:8])[H:9])[H:7]>>[H:8][H:12].[O:1]1[C:2]([H:7])=[C:3]([H:9])[C:4]([H:10])([H:11])[C:5]1=[O:6]"
O       -0.79625276      -0.47063514      -1.38809488
C       -1.32068625      -0.62012212      -0.22737558
C       -0.59906825      -0.04056876       0.83464152
C        0.32912101       0.98641388       0.22459850
C        0.98089856       0.18272051      -0.88026401
O        1.52995376       0.11519930      -1.92552380
H       -2.12016439      -1.35378121      -0.10732778
H        0.59616352      -1.14356208       0.89522174
H       -1.13024676       0.17592625       1.75363938
H       -0.11888382       1.89192441      -0.18256873
H        1.09419716       1.29328334       0.94140150
H        1.55496821      -1.01679837       0.06165214
12
Frame=13 idx=003036 GeodesicLength=1.1468912921426977 rxn_smarts="[O:1]=[C:2]([C:3]([C:4]([C:5](=[O:6])[H:12])([H:10])[H:11])([H:8])[H:9])[H:7]>>[H:8][H:12].[O:1]1[C:2]([H:7])=[C:3]([H:9])[C:4]([H:10])([H:11])[C:5]1=[O:6]"
O       -0.81875563      -0.44975529      -1.39771236
C       -1.33148082      -0.61362285      -0.23250883
C       -0.59742502      -0.04878255       0.83109728
C        0.32668494       0.98584383       0.22328796
C        0.98518827       0.18839809      -0.88092143
O        1.51619332       0.09114418      -1.93380640
H       -2.12539540      -1.35360301      -0.11259178
H        0.60771660      -1.15791731       0.91639498
H       -1.13447701       0.17656881       1.74517201
H       -0.11809465       1.89575724      -0.17702515
H        1.08852560       1.29057469       0.94488980
H        1.60131981      -1.00460582       0.07372392
12
Frame=14 idx=003036 GeodesicLength=1.2351908088618089 rxn_smarts="[O:1]=[C:2]([C:3]([C:4]([C:5](=[O:6])[H:12])([H:10])[H:11])([H:8])[H:9])[H:7]>>[H:8][H:12].[O:1]1[C:2]([H:7])=[C:3]([H:9])[C:4]([H:10])([H:11])[C:5]1=[O:6]"
O       -0.84237743      -0.42742030      -1.40745478
C       -1.34289409      -0.60655297      -0.23797638
C       -0.59581844      -0.05744288       0.82704442
C        0.32419335       0.98503546       0.22180742
C        0.98929692       0.19394275      -0.88189805
O        1.50169622       0.06491342      -1.94126367
H       -2.13078045      -1.35332097      -0.11860702
H        0.61937052      -1.17235460       0.93840688
H       -1.13798783       0.17622071       1.73666204
H       -0.11714412       1.89950568      -0.17134464
H        1.08276425       1.28745445       0.94826641
H        1.64968111      -0.98998076       0.08635736
12
Frame=15 idx=003036 GeodesicLength=1.3234721875401545 rxn_smarts="[O:1]=[C:2]([C:3]([C:4]([C:5](=[O:6])[H:12])([H:10])[H:11])([H:8])[H:9])[H:7]>>[H:8][H:12].[O:1]1[C:2]([H:7])=[C:3]([H:9])[C:4]([H:10])([H:11])[C:5]1=[O:6]"
O       -0.86708997      -0.40361794      -1.41727580
C       -1.35495408      -0.59886289      -0.24378930
C       -0.59424253      -0.06659666       0.82243433
C        0.32165412       0.98396031       0.22015453
C        0.99323265       0.19936370      -0.88322458
O        1.48637671       0.03633028      -1.94776434
H       -2.13636070      -1.35286090      -0.12545749
H        0.63113852      -1.18685042       0.96133192
H       -1.14075601       0.17481323       1.72811312
H       -0.11601926       1.90314746      -0.16549725
H        1.07691745       1.28387374       0.95153714
H        1.70010309      -0.97269991       0.09943772
12
Frame=16 idx=003036 GeodesicLength=1.4117065725814117 rxn_smarts="[O:1]=[C:2]([C:3]([C:4]([C:5](=[O:6])[H:12])([H:10])[H:11])([H:8])[H:9])[H:7]>>[H:8][H:12].[O:1]1[C:2]([H:7])=[C:3]([H:9])[C:4]([H:10])([H:11])[C:5]1=[O:6]"
O       -0.89284790      -0.37834985      -1.42712610
C       -1.36768827      -0.59050054      -0.24995970
C       -0.59269193      -0.07629437       0.81721462
C        0.31907811       0.98258931       0.21832824
C        0.99700925       0.20467967      -0.88493945
O        1.47014083       0.00520286      -1.95312881
H       -2.14218626      -1.35214136      -0.13323273
H        0.64303649      -1.20136359       0.98526043
H       -1.14275931       0.17227207       1.71952295
H       -0.11470434       1.90665927      -0.15944808
H        1.07099116       1.27977888       0.95471332
H        1.75262216      -0.95253233       0.11279530
