14
Frame=0 idx=004425 GeodesicLength=0.0 rxn_smarts="[C:1]([C@@:2]1([O:3][H:10])[C:4]([H:11])([H:12])[C@:5]1([O:6][H:14])[H:13])([H:7])([H:8])[H:9]>>[C:1](=[C:2]([O:3][H:10])[C:4]([C:5](=[O:6])[H:13])([H:11])[H:12])([H:7])[H:9].[H:8][H:14]"
C       -0.96790164       0.26023017      -0.96910106
C       -0.33591898       0.60832822       0.20910925
O        0.22310468       1.86796771       0.32080554
C       -0.05743428      -0.38662596       1.29124597
C        1.09771687      -0.70525884       0.41387380
O        1.08967112      -1.62453432      -0.44889401
H       -1.64000543      -0.58803084      -0.96198551
H       -0.02366442      -0.48613018      -1.86364355
H       -1.22278721       1.06036969      -1.65325707
H       -0.07906683       2.26508531       1.14027202
H        0.19261085       0.05407629       2.25244661
H       -0.78839542      -1.18620739       1.36977586
H        1.94751125      -0.01788879       0.46585151
H        0.56455946      -1.12138108      -1.56649941
14
Frame=1 idx=004425 GeodesicLength=0.07954224670932715 rxn_smarts="[C:1]([C@@:2]1([O:3][H:10])[C:4]([H:11])([H:12])[C@:5]1([O:6][H:14])[H:13])([H:7])([H:8])[H:9]>>[C:1](=[C:2]([O:3][H:10])[C:4]([C:5](=[O:6])[H:13])([H:11])[H:12])([H:7])[H:9].[H:8][H:14]"
C       -0.96597356       0.27264914      -0.96874430
C       -0.32245915       0.60900167       0.20893692
O        0.23111214       1.86882145       0.33827809
C       -0.05090408      -0.39053405       1.28832124
C        1.10980932      -0.70151661       0.41394812
O        1.10814234      -1.63057082      -0.44169289
H       -1.66452093      -0.55414318      -0.95466254
H       -0.03528147      -0.51454381      -1.87669568
H       -1.21577481       1.08098137      -1.64585412
H       -0.13088223       2.28098740       1.12544490
H        0.19601204       0.04382316       2.25315283
H       -0.78113950      -1.19171837       1.35570599
H        1.96152432      -0.01698090       0.47168007
H        0.56033555      -1.15625644      -1.56781864
14
Frame=2 idx=004425 GeodesicLength=0.15893413680511892 rxn_smarts="[C:1]([C@@:2]1([O:3][H:10])[C:4]([H:11])([H:12])[C@:5]1([O:6][H:14])[H:13])([H:7])([H:8])[H:9]>>[C:1](=[C:2]([O:3][H:10])[C:4]([C:5](=[O:6])[H:13])([H:11])[H:12])([H:7])[H:9].[H:8][H:14]"
C       -0.96418973       0.28525975      -0.96835946
C       -0.30953277       0.60971778       0.20888820
O        0.23769924       1.86975969       0.35678372
C       -0.04464144      -0.39479055       1.28507157
C        1.12212033      -0.69696564       0.41398795
O        1.12796579      -1.63541091      -0.43477912
H       -1.68900575      -0.51875243      -0.94699412
H       -0.04857791      -0.54439370      -1.88902797
H       -1.20815399       1.10172592      -1.63858979
H       -0.17990833       2.29537089       1.10845457
H        0.19856854       0.03279262       2.25380646
H       -0.77363079      -1.19798428       1.34068829
H        1.97528280      -0.01478149       0.47827927
H        0.55600399      -1.19154765      -1.56820957
14
Frame=3 idx=004425 GeodesicLength=0.23826328900428412 rxn_smarts="[C:1]([C@@:2]1([O:3][H:10])[C:4]([H:11])([H:12])[C@:5]1([O:6][H:14])[H:13])([H:7])([H:8])[H:9]>>[C:1](=[C:2]([O:3][H:10])[C:4]([C:5](=[O:6])[H:13])([H:11])[H:12])([H:7])[H:9].[H:8][H:14]"
C       -0.96256085       0.29806135      -0.96795062
C       -0.29709245       0.61050077       0.20893296
O        0.24293976       1.87072292       0.37627355
C       -0.03860872      -0.39938972       1.28145346
C        1.13462568      -0.69165273       0.41396145
O        1.14907058      -1.63905061      -0.42822497
H       -1.71343664      -0.48181260      -0.93894890
H       -0.06367109      -0.57580798      -1.90053565
H       -1.19986108       1.12257515      -1.63153253
H       -0.22641463       2.30844493       1.08956413
H        0.20036685       0.02095211       2.25434550
H       -0.76584119      -1.20493034       1.32470935
H        1.98878771      -0.01139721       0.48562158
H        0.55169606      -1.22721604      -1.56766931
14
Frame=4 idx=004425 GeodesicLength=0.3175657124469908 rxn_smarts="[C:1]([C@@:2]1([O:3][H:10])[C:4]([H:11])([H:12])[C@:5]1([O:6][H:14])[H:13])([H:7])([H:8])[H:9]>>[C:1](=[C:2]([O:3][H:10])[C:4]([C:5](=[O:6])[H:13])([H:11])[H:12])([H:7])[H:9].[H:8][H:14]"
C       -0.96108584       0.31105412      -0.96752146
C       -0.28511971       0.61136790       0.20905095
O        0.24683542       1.87168744       0.39675660
C       -0.03277154      -0.40433771       1.27741683
C        1.14729923      -0.68559981       0.41383982
O        1.17140971      -1.64142968      -0.42211647
H       -1.73779698      -0.44318856      -0.93049575
H       -0.08074782      -0.60898738      -1.91105180
H       -1.19076246       1.14348042      -1.62475367
H       -0.27058925       2.32034450       1.06895476
H        0.20147070       0.00824726       2.25469697
H       -0.75770901      -1.21250523       1.30772280
H        2.00201387      -0.00689184       0.49369336
H        0.54755367      -1.26324142      -1.56619294
14
Frame=5 idx=004425 GeodesicLength=0.3966890369781371 rxn_smarts="[C:1]([C@@:2]1([O:3][H:10])[C:4]([H:11])([H:12])[C@:5]1([O:6][H:14])[H:13])([H:7])([H:8])[H:9]>>[C:1](=[C:2]([O:3][H:10])[C:4]([C:5](=[O:6])[H:13])([H:11])[H:12])([H:7])[H:9].[H:8][H:14]"
C       -0.95978565       0.32420739      -0.96708592
C       -0.27365896       0.61231663       0.20923718
O        0.24932638       1.87262130       0.41824126
C       -0.02711724      -0.40966011       1.27291347
C        1.16010047      -0.67880307       0.41359801
O        1.19491206      -1.64242186      -0.41656223
H       -1.76202100      -0.40278008      -0.92166838
H       -0.10006746      -0.64417742      -1.92029237
H       -1.18069669       1.16434183      -1.61834917
H       -0.31238954       2.33122517       1.04681483
H        0.20191094      -0.00538425       2.25479540
H       -0.74918448      -1.22069722       1.28967816
H        2.01489786      -0.00127534       0.50248006
H        0.54377330      -1.29951295      -1.56380032
14
Frame=6 idx=004425 GeodesicLength=0.4757242389463939 rxn_smarts="[C:1]([C@@:2]1([O:3][H:10])[C:4]([H:11])([H:12])[C@:5]1([O:6][H:14])[H:13])([H:7])([H:8])[H:9]>>[C:1](=[C:2]([O:3][H:10])[C:4]([C:5](=[O:6])[H:13])([H:11])[H:12])([H:7])[H:9].[H:8][H:14]"
C       -0.95872598       0.33748304      -0.96664576
C       -0.26273616       0.61336123       0.20948385
O        0.25042730       1.87345448       0.44060817
C       -0.02167323      -0.41533586       1.26793426
C        1.17297457      -0.67130041       0.41322397
O        1.21946282      -1.64202475      -0.41166081
H       -1.78599939      -0.36065518      -0.91245035
H       -0.12172620      -0.68145457      -1.92805089
H       -1.16973293       1.18505517      -1.61239279
H       -0.35173183       2.34125723       1.02340261
H        0.20170676      -0.01993151       2.25461750
H       -0.74032584      -1.22943637       1.27056956
H        2.02740910       0.00536464       0.51198293
H        0.54067102      -1.33583713      -1.56062226
14
Frame=7 idx=004425 GeodesicLength=0.5546376263982046 rxn_smarts="[C:1]([C@@:2]1([O:3][H:10])[C:4]([H:11])([H:12])[C@:5]1([O:6][H:14])[H:13])([H:7])([H:8])[H:9]>>[C:1](=[C:2]([O:3][H:10])[C:4]([C:5](=[O:6])[H:13])([H:11])[H:12])([H:7])[H:9].[H:8][H:14]"
C       -0.95795076       0.35083764      -0.96619651
C       -0.25239264       0.61449758       0.20979452
O        0.25010495       1.87412772       0.46379316
C       -0.01645592      -0.42135944       1.26246604
C        1.18585770      -0.66312287       0.41271553
O        1.24492177      -1.64021083      -0.40748504
H       -1.80961200      -0.31691660      -0.90287868
H       -0.14581054      -0.72089963      -1.93405837
H       -1.15789322       1.20554264      -1.60692960
H       -0.38848670       2.35061982       0.99888885
H        0.20088423      -0.03540243       2.25412509
H       -0.73116033      -1.23866882       1.25039227
H        2.03948431       0.01296227       0.52218388
H        0.53850915      -1.37200705      -1.55681113
14
Frame=8 idx=004425 GeodesicLength=0.6333537367820673 rxn_smarts="[C:1]([C@@:2]1([O:3][H:10])[C:4]([H:11])([H:12])[C@:5]1([O:6][H:14])[H:13])([H:7])([H:8])[H:9]>>[C:1](=[C:2]([O:3][H:10])[C:4]([C:5](=[O:6])[H:13])([H:11])[H:12])([H:7])[H:9].[H:8][H:14]"
C       -0.95750408       0.36422815      -0.96573177
C       -0.24267247       0.61570802       0.21018107
O        0.24832574       1.87460430       0.48776556
C       -0.01147597      -0.42773934       1.25649667
C        1.19867489      -0.65430957       0.41206977
O        1.27112616      -1.63695619      -0.40410715
H       -1.83275494      -0.27166939      -0.89301174
H       -0.17233019      -0.76260454      -1.93799946
H       -1.14520034       1.22572530      -1.60198048
H       -0.42254121       2.35954172       0.97340033
H        0.19948152      -0.05182377       2.25327310
H       -0.72169849      -1.24833921       1.22915103
H        2.05103931       0.02144012       0.53304213
H        0.53753007      -1.40780560      -1.55254906
14
Frame=9 idx=004425 GeodesicLength=0.7113826969764717 rxn_smarts="[C:1]([C@@:2]1([O:3][H:10])[C:4]([H:11])([H:12])[C@:5]1([O:6][H:14])[H:13])([H:7])([H:8])[H:9]>>[C:1](=[C:2]([O:3][H:10])[C:4]([C:5](=[O:6])[H:13])([H:11])[H:12])([H:7])[H:9].[H:8][H:14]"
C       -0.95740438       0.37768052      -0.96523814
C       -0.23367782       0.61705300       0.21073206
O        0.24549904       1.87466990       0.51222583
C       -0.00682112      -0.43437554       1.25015633
C        1.21135340      -0.64498386       0.41129335
O        1.29777370      -1.63242607      -0.40159926
H       -1.85497884      -0.22554854      -0.88319552
H       -0.20114506      -0.80606263      -1.93938799
H       -1.13205057       1.24550590      -1.59737815
H       -0.45389057       2.36795923       0.94689142
H        0.19751917      -0.06896988       2.25212345
H       -0.71221152      -1.25840328       1.20711978
H        2.06212519       0.03062802       0.54445086
H        0.53790937      -1.44272677      -1.54819401
14
Frame=10 idx=004425 GeodesicLength=0.7894566475371909 rxn_smarts="[C:1]([C@@:2]1([O:3][H:10])[C:4]([H:11])([H:12])[C@:5]1([O:6][H:14])[H:13])([H:7])([H:8])[H:9]>>[C:1](=[C:2]([O:3][H:10])[C:4]([C:5](=[O:6])[H:13])([H:11])[H:12])([H:7])[H:9].[H:8][H:14]"
C       -0.95770923       0.39113049      -0.96471200
C       -0.22536585       0.61846355       0.21137661
O        0.24127534       1.87438930       0.53736895
C       -0.00243088      -0.44133452       1.24334458
C        1.22382651      -0.63513284       0.41039681
O        1.32481080      -1.62654631      -0.39989596
H       -1.87649866      -0.17834590      -0.87326585
H       -0.23202812      -0.85151567      -1.93836801
H       -1.11838831       1.26493708      -1.59314836
H       -0.48238692       2.37623854       0.91949271
H        0.19505826      -0.08701406       2.25056240
H       -0.70250034      -1.26877473       1.18417410
H        2.07258820       0.04049907       0.55638344
H        0.53974921      -1.47699400      -1.54370942
14
Frame=11 idx=004425 GeodesicLength=0.8675623437789963 rxn_smarts="[C:1]([C@@:2]1([O:3][H:10])[C:4]([H:11])([H:12])[C@:5]1([O:6][H:14])[H:13])([H:7])([H:8])[H:9]>>[C:1](=[C:2]([O:3][H:10])[C:4]([C:5](=[O:6])[H:13])([H:11])[H:12])([H:7])[H:9].[H:8][H:14]"
C       -0.95845192       0.40456274      -0.96414794
C       -0.21775937       0.61994769       0.21212193
O        0.23569390       1.87369066       0.56309313
C        0.00167242      -0.44857165       1.23608992
C        1.23602153      -0.62482096       0.40938009
O        1.35203751      -1.61940267      -0.39899915
H       -1.89714515      -0.13034757      -0.86333464
H       -0.26462729      -0.89867214      -1.93477745
H       -1.10446288       1.28399173      -1.58919295
H       -0.50796427       2.38447689       0.89128083
H        0.19215083      -0.10588352       2.24857815
H       -0.69263819      -1.27936516       1.16041086
H        2.08239375       0.05093689       0.56874387
H        0.54307912      -1.51054293      -1.53924664
14
Frame=12 idx=004425 GeodesicLength=0.9457148904335345 rxn_smarts="[C:1]([C@@:2]1([O:3][H:10])[C:4]([H:11])([H:12])[C@:5]1([O:6][H:14])[H:13])([H:7])([H:8])[H:9]>>[C:1](=[C:2]([O:3][H:10])[C:4]([C:5](=[O:6])[H:13])([H:11])[H:12])([H:7])[H:9].[H:8][H:14]"
C       -0.95968431       0.41796257      -0.96352871
C       -0.21089209       0.62150305       0.21297704
O        0.22878471       1.87251102       0.58927817
C        0.00546563      -0.45604399       1.22842707
C        1.24786316      -0.61410678       0.40825366
O        1.37926925      -1.61109114      -0.39886720
H       -1.91680138      -0.08193272      -0.85350041
H       -0.29841245      -0.94714078      -1.92865926
H       -1.09060385       1.30268383      -1.58536374
H       -0.53045475       2.39280254       0.86232966
H        0.18883970      -0.12549967       2.24616352
H       -0.68269553      -1.29008849       1.13593543
H        2.09149868       0.06184180       0.58143911
H        0.54782324      -1.54340125      -1.53488435
14
Frame=13 idx=004425 GeodesicLength=1.0238602784453015 rxn_smarts="[C:1]([C@@:2]1([O:3][H:10])[C:4]([H:11])([H:12])[C@:5]1([O:6][H:14])[H:13])([H:7])([H:8])[H:9]>>[C:1](=[C:2]([O:3][H:10])[C:4]([C:5](=[O:6])[H:13])([H:11])[H:12])([H:7])[H:9].[H:8][H:14]"
C       -0.96148161       0.43130828      -0.96281610
C       -0.20481126       0.62311915       0.21395469
O        0.22054955       1.87080477       0.61579164
C        0.00891756      -0.46370446       1.22039841
C        1.25926939      -0.60303528       0.40703151
O        1.40633187      -1.60172178      -0.39943342
H       -1.93537711      -0.03359685      -0.84385736
H       -0.33268985      -0.99636739      -1.92025681
H       -1.07723041       1.32105396      -1.58144127
H       -0.54954512       2.40136376       0.83268292
H        0.18516200      -0.14577056       2.24331576
H       -0.67274541      -1.30086101       1.11085716
H        2.09983651       0.07313100       0.59437766
H        0.55381390      -1.57572359      -1.53060481
14
Frame=14 idx=004425 GeodesicLength=1.1018994100742314 rxn_smarts="[C:1]([C@@:2]1([O:3][H:10])[C:4]([H:11])([H:12])[C@:5]1([O:6][H:14])[H:13])([H:7])([H:8])[H:9]>>[C:1](=[C:2]([O:3][H:10])[C:4]([C:5](=[O:6])[H:13])([H:11])[H:12])([H:7])[H:9].[H:8][H:14]"
C       -0.96388995       0.44461385      -0.96200004
C       -0.19951885       0.62479073       0.21504458
O        0.21102416       1.86856990       0.64257029
C        0.01203034      -0.47150691       1.21202441
C        1.27017919      -0.59164142       0.40571367
O        1.43307120      -1.59139547      -0.40060611
H       -1.95285702       0.01432536      -0.83446808
H       -0.36689471      -1.04599016      -1.90987806
H       -1.06464330       1.33917213      -1.57727295
H       -0.56511974       2.41024215       0.80244708
H        0.18117909      -0.16661951       2.24001696
H       -0.66281200      -1.31159564       1.08526586
H        2.10737122       0.08473644       0.60745881
H        0.56088037      -1.60770144      -1.52631641
14
Frame=15 idx=004425 GeodesicLength=1.179800598847429 rxn_smarts="[C:1]([C@@:2]1([O:3][H:10])[C:4]([H:11])([H:12])[C@:5]1([O:6][H:14])[H:13])([H:7])([H:8])[H:9]>>[C:1](=[C:2]([O:3][H:10])[C:4]([C:5](=[O:6])[H:13])([H:11])[H:12])([H:7])[H:9].[H:8][H:14]"
C       -0.96697961       0.45790717      -0.96105395
C       -0.19502433       0.62650846       0.21624024
O        0.20025668       1.86580800       0.66960230
C        0.01480389      -0.47941886       1.20332088
C        1.28054643      -0.57993643       0.40429666
O        1.45939145      -1.58019335      -0.40229204
H       -1.96931585       0.06157538      -0.82532821
H       -0.40053971      -1.09571482      -1.89793137
H       -1.05311293       1.35712836      -1.57272597
H       -0.57703332       2.41951666       0.77166434
H        0.17693566      -0.18799170       2.23625521
H       -0.65292082      -1.32223337       1.05923002
H        2.11407741       0.09662718       0.62060931
H        0.56891504      -1.63958267      -1.52188741
14
Frame=16 idx=004425 GeodesicLength=1.25757026916136 rxn_smarts="[C:1]([C@@:2]1([O:3][H:10])[C:4]([H:11])([H:12])[C@:5]1([O:6][H:14])[H:13])([H:7])([H:8])[H:9]>>[C:1](=[C:2]([O:3][H:10])[C:4]([C:5](=[O:6])[H:13])([H:11])[H:12])([H:7])[H:9].[H:8][H:14]"
C       -0.97084897       0.47120778      -0.95992549
C       -0.19136351       0.62825645       0.21754935
O        0.18824805       1.86248242       0.69689204
C        0.01721933      -0.48743131       1.19430249
C        1.29034451      -0.56790382       0.40278709
O        1.48526781      -1.56816716      -0.40440390
H       -1.98490894       0.10796714      -0.81638502
H       -0.43332452      -1.14534371      -1.88481652
H       -1.04285162       1.37498034      -1.56769950
H       -0.58498821       2.42931415       0.74030246
H        0.17242807      -0.20986676       2.23202704
H       -0.64309647      -1.33277065       1.03278868
H        2.11993150       0.10882594       0.63379781
H        0.57794297      -1.67155082      -1.51721653
