18
Frame=0 idx=003408 GeodesicLength=0.0 rxn_smarts="[C:1]([C@@:2]1([H:10])[C:3]([H:11])([H:12])[C:4]([H:13])([H:14])[C@:5]1([C:6]([H:16])([H:17])[H:18])[H:15])([H:7])([H:8])[H:9]>>[C:1]([C@@:2]1([H:10])[C:3]([H:11])([H:12])[C:4]([H:13])([H:14])[C:5]1)([H:7])([H:8])[H:9].[C:6]([H:15])([H:16])([H:17])[H:18]"
C       -1.56355238       0.69770375       0.18270656
C       -0.67081104      -0.34151350       0.84678438
C       -0.67912366      -1.69089841       0.06379430
C        0.59099382      -1.21527573      -0.69962991
C        0.81667901      -0.43455598       0.56270356
C        1.61632554       1.52911199      -0.15010165
H       -1.40336033       1.68811824       0.61399606
H       -1.39300070       0.76218528      -0.89452294
H       -2.61426567       0.43888981       0.33444403
H       -0.90962980      -0.39058946       1.91198681
H       -0.49247012      -2.55427781       0.69743956
H       -1.56418337      -1.86601082      -0.54799739
H        0.27954654      -0.65191507      -1.58499850
H        1.35202802      -1.94255245      -0.98302420
H        1.64996609       0.57955976       0.62707335
H        0.65932522       1.80282669      -0.57503239
H        1.98420147       2.31017695       0.51479193
H        2.34133129       1.27901671      -0.92041359
18
Frame=1 idx=003408 GeodesicLength=0.059953159997178505 rxn_smarts="[C:1]([C@@:2]1([H:10])[C:3]([H:11])([H:12])[C:4]([H:13])([H:14])[C@:5]1([C:6]([H:16])([H:17])[H:18])[H:15])([H:7])([H:8])[H:9]>>[C:1]([C@@:2]1([H:10])[C:3]([H:11])([H:12])[C:4]([H:13])([H:14])[C:5]1)([H:7])([H:8])[H:9].[C:6]([H:15])([H:16])([H:17])[H:18]"
C       -1.56678270       0.69727729       0.18180372
C       -0.67007779      -0.33858477       0.84513237
C       -0.67876299      -1.69301317       0.06926377
C        0.58316039      -1.21930731      -0.71041118
C        0.81258434      -0.43200910       0.54545020
C        1.61947178       1.52792872      -0.14411389
H       -1.40082452       1.68978950       0.60602454
H       -1.40493961       0.75571022      -0.89707382
H       -2.61661481       0.44062765       0.34296485
H       -0.89977636      -0.38345623       1.91237838
H       -0.48813955      -2.55449049       0.70414432
H       -1.56803070      -1.86780005      -0.53629228
H        0.26328598      -0.66132295      -1.59596309
H        1.34344795      -1.94711724      -0.99394119
H        1.67382687       0.56826714       0.63853100
H        0.67757147       1.80000158      -0.60403935
H        1.94964843       2.31571298       0.53285609
H        2.37095181       1.30178621      -0.89671444
18
Frame=2 idx=003408 GeodesicLength=0.11982337931951187 rxn_smarts="[C:1]([C@@:2]1([H:10])[C:3]([H:11])([H:12])[C:4]([H:13])([H:14])[C@:5]1([C:6]([H:16])([H:17])[H:18])[H:15])([H:7])([H:8])[H:9]>>[C:1]([C@@:2]1([H:10])[C:3]([H:11])([H:12])[C:4]([H:13])([H:14])[C:5]1)([H:7])([H:8])[H:9].[C:6]([H:15])([H:16])([H:17])[H:18]"
C       -1.57000125       0.69688212       0.18071701
C       -0.66921437      -0.33548104       0.84334334
C       -0.67817495      -1.69505659       0.07490237
C        0.57519058      -1.22342305      -0.72126255
C        0.80846846      -0.42914573       0.52783042
C        1.62247502       1.52671811      -0.13821417
H       -1.39857958       1.69146581       0.59784957
H       -1.41665995       0.74936794      -0.89966810
H       -2.61885761       0.44228390       0.35115751
H       -0.88956873      -0.37590201       1.91258858
H       -0.48334549      -2.55444955       0.71116169
H       -1.57170505      -1.86971930      -0.52418870
H        0.24661966      -0.67110612      -1.60697316
H        1.33480931      -1.95170459      -1.00487271
H        1.69716039       0.55646763       0.64930654
H        0.69688262       1.79784638      -0.63213885
H        1.91489189       2.31946032       0.55055171
H        2.39960906       1.32549576      -0.87209051
18
Frame=3 idx=003408 GeodesicLength=0.1796255689021849 rxn_smarts="[C:1]([C@@:2]1([H:10])[C:3]([H:11])([H:12])[C:4]([H:13])([H:14])[C@:5]1([C:6]([H:16])([H:17])[H:18])[H:15])([H:7])([H:8])[H:9]>>[C:1]([C@@:2]1([H:10])[C:3]([H:11])([H:12])[C:4]([H:13])([H:14])[C:5]1)([H:7])([H:8])[H:9].[C:6]([H:15])([H:16])([H:17])[H:18]"
C       -1.57326556       0.69649717       0.17946824
C       -0.66824384      -0.33220412       0.84142285
C       -0.67735097      -1.69701586       0.08068985
C        0.56709005      -1.22758287      -0.73218489
C        0.80430941      -0.42596177       0.50986621
C        1.62543236       1.52547112      -0.13244586
H       -1.39667578       1.69313331       0.58948910
H       -1.42824861       0.74312682      -0.90230233
H       -2.62105411       0.44382218       0.35907379
H       -0.87904446      -0.36795449       1.91261812
H       -0.47806852      -2.55414834       0.71845454
H       -1.57519286      -1.87176365      -0.51171589
H        0.22954655      -0.68122119      -1.61801606
H        1.32613562      -1.95625472      -1.01583622
H        1.71991996       0.54422419       0.65950087
H        0.71727108       1.79636447      -0.65931103
H        1.88008677       2.32152256       0.56773607
H        2.42735290       1.34994518      -0.84650736
18
Frame=4 idx=003408 GeodesicLength=0.23946625416872824 rxn_smarts="[C:1]([C@@:2]1([H:10])[C:3]([H:11])([H:12])[C:4]([H:13])([H:14])[C@:5]1([C:6]([H:16])([H:17])[H:18])[H:15])([H:7])([H:8])[H:9]>>[C:1]([C@@:2]1([H:10])[C:3]([H:11])([H:12])[C:4]([H:13])([H:14])[C:5]1)([H:7])([H:8])[H:9].[C:6]([H:15])([H:16])([H:17])[H:18]"
C       -1.57669336       0.69610346       0.17809426
C       -0.66720652      -0.32874304       0.83940490
C       -0.67629851      -1.69888551       0.08660132
C        0.55888849      -1.23176791      -0.74322299
C        0.80012454      -0.42244424       0.49158084
C        1.62848573       1.52418887      -0.12683800
H       -1.39521052       1.69479465       0.58098160
H       -1.43986597       0.73692501      -0.90499789
H       -2.62336235       0.44521778       0.36680643
H       -0.86825429      -0.35960179       1.91253740
H       -0.47228733      -2.55357562       0.72599917
H       -1.57853880      -1.87395017      -0.49891806
H        0.21206946      -0.69166208      -1.62914919
H        1.31750481      -1.96073722      -1.02691335
H        1.74213650       0.53160585       0.66924037
H        0.73877783       1.79551655      -0.68560461
H        1.84537611       2.32205276       0.58431343
H        2.45435417       1.37496265      -0.81991564
18
Frame=5 idx=003408 GeodesicLength=0.2989466984963297 rxn_smarts="[C:1]([C@@:2]1([H:10])[C:3]([H:11])([H:12])[C:4]([H:13])([H:14])[C@:5]1([C:6]([H:16])([H:17])[H:18])[H:15])([H:7])([H:8])[H:9]>>[C:1]([C@@:2]1([H:10])[C:3]([H:11])([H:12])[C:4]([H:13])([H:14])[C:5]1)([H:7])([H:8])[H:9].[C:6]([H:15])([H:16])([H:17])[H:18]"
C       -1.58012582       0.69568313       0.17651138
C       -0.66606624      -0.32510627       0.83715016
C       -0.67491839      -1.70063126       0.09264229
C        0.55050842      -1.23589793      -0.75419601
C        0.79571784      -0.41858700       0.47296468
C        1.63151085       1.52282197      -0.12136286
H       -1.39412624       1.69640544       0.57220657
H       -1.45129948       0.73082650      -0.90766851
H       -2.62545856       0.44638452       0.37415717
H       -0.85719444      -0.35091947       1.91202678
H       -0.46595034      -2.55272088       0.73372566
H       -1.58145247      -1.87623757      -0.48575568
H        0.19420278      -0.70229542      -1.64006382
H        1.30875393      -1.96503611      -1.03782468
H        1.76360269       0.51848836       0.67847293
H        0.76118485       1.79564363      -0.71044124
H        1.81121780       2.32092793       0.60006134
H        2.47989282       1.40025042      -0.79260617
18
Frame=6 idx=003408 GeodesicLength=0.35853412543729674 rxn_smarts="[C:1]([C@@:2]1([H:10])[C:3]([H:11])([H:12])[C:4]([H:13])([H:14])[C@:5]1([C:6]([H:16])([H:17])[H:18])[H:15])([H:7])([H:8])[H:9]>>[C:1]([C@@:2]1([H:10])[C:3]([H:11])([H:12])[C:4]([H:13])([H:14])[C:5]1)([H:7])([H:8])[H:9].[C:6]([H:15])([H:16])([H:17])[H:18]"
C       -1.58379574       0.69523607       0.17484945
C       -0.66485797      -0.32129779       0.83480972
C       -0.67327338      -1.70223738       0.09878049
C        0.54202201      -1.23996840      -0.76531235
C        0.79127411      -0.41442662       0.45403527
C        1.63474253       1.52137801      -0.11608413
H       -1.39349272       1.69799292       0.56326102
H       -1.46297095       0.72470939      -0.91040123
H       -2.62773212       0.44742142       0.38150192
H       -0.84585025      -0.34189967       1.91142078
H       -0.45902718      -2.55156142       0.74165566
H       -1.58420337      -1.87859069      -0.47227693
H        0.17589326      -0.71313800      -1.65106983
H        1.30004252      -1.96916411      -1.04893910
H        1.78445779       0.50500951       0.68746391
H        0.78477105       1.79621665      -0.73465167
H        1.77707959       2.31851341       0.61499256
H        2.50492082       1.42580670      -0.76403553
18
Frame=7 idx=003408 GeodesicLength=0.4179337405067327 rxn_smarts="[C:1]([C@@:2]1([H:10])[C:3]([H:11])([H:12])[C:4]([H:13])([H:14])[C@:5]1([C:6]([H:16])([H:17])[H:18])[H:15])([H:7])([H:8])[H:9]>>[C:1]([C@@:2]1([H:10])[C:3]([H:11])([H:12])[C:4]([H:13])([H:14])[C:5]1)([H:7])([H:8])[H:9].[C:6]([H:15])([H:16])([H:17])[H:18]"
C       -1.58758229       0.69472452       0.17309495
C       -0.66358128      -0.31731565       0.83228565
C       -0.67133998      -1.70371685       0.10497886
C        0.53336070      -1.24394535      -0.77645982
C        0.78663807      -0.40990980       0.43477899
C        1.63814176       1.51988508      -0.11098780
H       -1.39322647       1.69953272       0.55412383
H       -1.47472240       0.71854995      -0.91307643
H       -2.62995603       0.44822024       0.38875581
H       -0.83426546      -0.33256177       1.91048260
H       -0.45156016      -2.55011481       0.74965960
H       -1.58663278      -1.88106952      -0.45849294
H        0.15716233      -0.72416558      -1.66194355
H        1.29124155      -1.97305051      -1.06008777
H        1.80453193       0.49119477       0.69620000
H        0.80945531       1.79744127      -0.75784566
H        1.74334411       2.31492502       0.62887190
H        2.52899107       1.45137627      -0.73433821
18
Frame=8 idx=003408 GeodesicLength=0.47731063693924747 rxn_smarts="[C:1]([C@@:2]1([H:10])[C:3]([H:11])([H:12])[C:4]([H:13])([H:14])[C@:5]1([C:6]([H:16])([H:17])[H:18])[H:15])([H:7])([H:8])[H:9]>>[C:1]([C@@:2]1([H:10])[C:3]([H:11])([H:12])[C:4]([H:13])([H:14])[C:5]1)([H:7])([H:8])[H:9].[C:6]([H:15])([H:16])([H:17])[H:18]"
C       -1.59166229       0.69414791       0.17125676
C       -0.66228639      -0.31314614       0.82963857
C       -0.66910249      -1.70504084       0.11124246
C        0.52460214      -1.24780304      -0.78768563
C        0.78185964      -0.40503482       0.41524440
C        1.64182859       1.51831417      -0.10606260
H       -1.39352156       1.70102644       0.54481055
H       -1.48674924       0.71233058      -0.91577559
H       -2.63236789       0.44878056       0.39595888
H       -0.82250958      -0.32290315       1.90934943
H       -0.44348099      -2.54835039       0.75779162
H       -1.58877781      -1.88364375      -0.44444973
H        0.13804699      -0.73534583      -1.67279207
H        1.28251339      -1.97666549      -1.07133730
H        1.82396369       0.47698133       0.70479872
H        0.83520562       1.79933239      -0.78003277
H        1.71023174       2.31022837       0.64171339
H        2.55220644       1.47679168      -0.70366907
18
Frame=9 idx=003408 GeodesicLength=0.53662895035873 rxn_smarts="[C:1]([C@@:2]1([H:10])[C:3]([H:11])([H:12])[C:4]([H:13])([H:14])[C@:5]1([C:6]([H:16])([H:17])[H:18])[H:15])([H:7])([H:8])[H:9]>>[C:1]([C@@:2]1([H:10])[C:3]([H:11])([H:12])[C:4]([H:13])([H:14])[C:5]1)([H:7])([H:8])[H:9].[C:6]([H:15])([H:16])([H:17])[H:18]"
C       -1.59602124       0.69349134       0.16934517
C       -0.66096748      -0.30878612       0.82684418
C       -0.66654465      -1.70619512       0.11755560
C        0.51572190      -1.25151450      -0.79897884
C        0.77690055      -0.39979106       0.39541503
C        1.64580988       1.51666374      -0.10129376
H       -1.39434546       1.70246576       0.53529386
H       -1.49908169       0.70601022      -0.91846719
H       -2.63492216       0.44908743       0.40315683
H       -0.81057272      -0.31292674       1.90796496
H       -0.43477218      -2.54625061       0.76600818
H       -1.59059967      -1.88630963      -0.43013995
H        0.11853310      -0.74665445      -1.68356629
H        1.27381516      -1.97996937      -1.08268413
H        1.84271023       0.46234638       0.71330103
H        0.86203388       1.80185664      -0.80122445
H        1.67775692       2.30454791       0.65344468
H        2.57454564       1.50192817      -0.67197491
18
Frame=10 idx=003408 GeodesicLength=0.5958897118467026 rxn_smarts="[C:1]([C@@:2]1([H:10])[C:3]([H:11])([H:12])[C:4]([H:13])([H:14])[C@:5]1([C:6]([H:16])([H:17])[H:18])[H:15])([H:7])([H:8])[H:9]>>[C:1]([C@@:2]1([H:10])[C:3]([H:11])([H:12])[C:4]([H:13])([H:14])[C:5]1)([H:7])([H:8])[H:9].[C:6]([H:15])([H:16])([H:17])[H:18]"
C       -1.60067754       0.69274521       0.16737604
C       -0.65962969      -0.30423146       0.82389719
C       -0.66365156      -1.70716602       0.12390426
C        0.50671545      -1.25505444      -0.81034236
C        0.77174027      -0.39416802       0.37528721
C        1.65010681       1.51492937      -0.09666781
H       -1.39570309       1.70384753       0.52556191
H       -1.51177701       0.69955489      -0.92113456
H       -2.63762377       0.44913274       0.41040088
H       -0.79846210      -0.30263553       1.90631412
H       -0.42540814      -2.54380074       0.77427953
H       -1.59207531      -1.88906221      -0.41556893
H        0.09861569      -0.75807059      -1.69425052
H        1.26514376      -1.98292562      -1.09414452
H        1.86075337       0.44726308       0.72176128
H        0.88996045       1.80496746      -0.82144850
H        1.64595300       2.29801573       0.66399635
H        2.59601944       1.52665861      -0.63922156
18
Frame=11 idx=003408 GeodesicLength=0.6551017066636956 rxn_smarts="[C:1]([C@@:2]1([H:10])[C:3]([H:11])([H:12])[C:4]([H:13])([H:14])[C@:5]1([C:6]([H:16])([H:17])[H:18])[H:15])([H:7])([H:8])[H:9]>>[C:1]([C@@:2]1([H:10])[C:3]([H:11])([H:12])[C:4]([H:13])([H:14])[C:5]1)([H:7])([H:8])[H:9].[C:6]([H:15])([H:16])([H:17])[H:18]"
C       -1.60565317       0.69190123       0.16536347
C       -0.65827829      -0.29947528       0.82079355
C       -0.66040705      -1.70793812       0.13027668
C        0.49758168      -1.25840030      -0.82178122
C        0.76636278      -0.38815398       0.35485628
C        1.65473711       1.51310577      -0.09216702
H       -1.39760631       1.70516923       0.51560095
H       -1.52489346       0.69293041      -0.92376377
H       -2.64048339       0.44891107       0.41773884
H       -0.78618431      -0.29202532       1.90438614
H       -0.41535931      -2.54098107       0.78258165
H       -1.59318356      -1.89189573      -0.40073973
H        0.07829108      -0.76957886      -1.70483367
H        1.25650206      -1.98550158      -1.10573696
H        1.87808357       0.43169443       0.73022391
H        0.91900861       1.80862108      -0.84072846
H        1.61484652       2.29075283       0.67331719
H        2.61663544       1.55086422      -0.60538782
18
Frame=12 idx=003408 GeodesicLength=0.7142752478869652 rxn_smarts="[C:1]([C@@:2]1([H:10])[C:3]([H:11])([H:12])[C:4]([H:13])([H:14])[C@:5]1([C:6]([H:16])([H:17])[H:18])[H:15])([H:7])([H:8])[H:9]>>[C:1]([C@@:2]1([H:10])[C:3]([H:11])([H:12])[C:4]([H:13])([H:14])[C:5]1)([H:7])([H:8])[H:9].[C:6]([H:15])([H:16])([H:17])[H:18]"
C       -1.61096833       0.69095149       0.16332076
C       -0.65691778      -0.29450961       0.81752922
C       -0.65679440      -1.70849562       0.13666223
C        0.48831941      -1.26153069      -0.83330103
C        0.76075293      -0.38173579       0.33411633
C        1.65971377       1.51118793      -0.08777172
H       -1.40006732       1.70642824       0.50539619
H       -1.53848524       0.68610285      -0.92634050
H       -2.64350946       0.44841765       0.42521610
H       -0.77374458      -0.28108805       1.90217093
H       -0.40459502      -2.53776983       0.79089286
H       -1.59390304      -1.89480522      -0.38565298
H        0.05755515      -0.78116737      -1.71530572
H        1.24789228      -1.98766607      -1.11748077
H        1.89469087       0.41559842       0.73872462
H        0.94920768       1.81277035      -0.85908461
H        1.58445603       2.28287604       0.68136282
H        2.63639706       1.57443525      -0.57045474
18
Frame=13 idx=003408 GeodesicLength=0.7734197708766385 rxn_smarts="[C:1]([C@@:2]1([H:10])[C:3]([H:11])([H:12])[C:4]([H:13])([H:14])[C@:5]1([C:6]([H:16])([H:17])[H:18])[H:15])([H:7])([H:8])[H:9]>>[C:1]([C@@:2]1([H:10])[C:3]([H:11])([H:12])[C:4]([H:13])([H:14])[C:5]1)([H:7])([H:8])[H:9].[C:6]([H:15])([H:16])([H:17])[H:18]"
C       -1.61664160       0.68988869       0.16126033
C       -0.65555231      -0.28932511       0.81409991
C       -0.65279593      -1.70882161       0.14305091
C        0.47892843      -1.26442506      -0.84490630
C        0.75489588      -0.37489913       0.31306170
C        1.66504448       1.50917015      -0.08346010
H       -1.40309999       1.70762169       0.49493289
H       -1.55260141       0.67903936      -0.92884936
H       -2.64670806       0.44764833       0.43287392
H       -0.76114828      -0.26981238       1.89965790
H       -0.39308401      -2.53414282       0.79919261
H       -1.59421050      -1.89778515      -0.37030863
H        0.03640559      -0.79282707      -1.72565573
H        1.23931739      -1.98938904      -1.12939332
H        1.91056533       0.39892763       0.74728931
H        0.98058837       1.81736663      -0.87652875
H        1.55479641       2.27449753       0.68809494
H        2.65530023       1.59726736      -0.53441224
18
Frame=14 idx=003408 GeodesicLength=0.8325449102087733 rxn_smarts="[C:1]([C@@:2]1([H:10])[C:3]([H:11])([H:12])[C:4]([H:13])([H:14])[C@:5]1([C:6]([H:16])([H:17])[H:18])[H:15])([H:7])([H:8])[H:9]>>[C:1]([C@@:2]1([H:10])[C:3]([H:11])([H:12])[C:4]([H:13])([H:14])[C:5]1)([H:7])([H:8])[H:9].[C:6]([H:15])([H:16])([H:17])[H:18]"
C       -1.62268996       0.68870588       0.15919375
C       -0.65418531      -0.28391117       0.81050084
C       -0.64839263      -1.70889813       0.14943360
C        0.46940860      -1.26706348      -0.85660131
C        0.74877708      -0.36762844       0.29168597
C        1.67073184       1.50704618      -0.07920930
H       -1.40671931       1.70874640       0.48419537
H       -1.56728717       0.67170734      -0.93127410
H       -2.65008277       0.44659942       0.44075066
H       -0.74839951      -0.25818330       1.89683585
H       -0.38079289      -2.53007294       0.80746183
H       -1.59408097      -1.90082982      -0.35470455
H        0.01483994      -0.80455150      -1.73587220
H        1.23077995      -1.99064102      -1.14149181
H        1.92569506       0.38163055       0.75593497
H        1.01318554       1.82235947      -0.89306741
H        1.52587728       2.26572349       0.69348047
H        2.67333522       1.61926106      -0.49725264
18
Frame=15 idx=003408 GeodesicLength=0.8916588533025941 rxn_smarts="[C:1]([C@@:2]1([H:10])[C:3]([H:11])([H:12])[C:4]([H:13])([H:14])[C@:5]1([C:6]([H:16])([H:17])[H:18])[H:15])([H:7])([H:8])[H:9]>>[C:1]([C@@:2]1([H:10])[C:3]([H:11])([H:12])[C:4]([H:13])([H:14])[C:5]1)([H:7])([H:8])[H:9].[C:6]([H:15])([H:16])([H:17])[H:18]"
C       -1.62912876       0.68739657       0.15713370
C       -0.65282004      -0.27825666       0.80672767
C       -0.64356434      -1.70870578       0.15580080
C        0.45976065      -1.26942492      -0.86838978
C        0.74238215      -0.35990746       0.26998377
C        1.67677414       1.50480860      -0.07499590
H       -1.41094145       1.70979843       0.47317039
H       -1.58258316       0.66407570      -0.93359555
H       -2.65363475       0.44526771       0.44888350
H       -0.73550305      -0.24618464       1.89369365
H       -0.36768720      -2.52553099       0.81568034
H       -1.59348734      -1.90393223      -0.33883862
H       -0.00714292      -0.81633480      -1.74594249
H        1.22228322      -1.99139080      -1.15379383
H        1.94006392       0.36365420       0.76467318
H        1.04703986       1.82768853      -0.90870453
H        1.49770033       2.25666003       0.69748267
H        2.69048874       1.64031852      -0.45896895
18
Frame=16 idx=003408 GeodesicLength=0.9507695041688918 rxn_smarts="[C:1]([C@@:2]1([H:10])[C:3]([H:11])([H:12])[C:4]([H:13])([H:14])[C@:5]1([C:6]([H:16])([H:17])[H:18])[H:15])([H:7])([H:8])[H:9]>>[C:1]([C@@:2]1([H:10])[C:3]([H:11])([H:12])[C:4]([H:13])([H:14])[C:5]1)([H:7])([H:8])[H:9].[C:6]([H:15])([H:16])([H:17])[H:18]"
C       -1.63597225       0.68595436       0.15509212
C       -0.65145972      -0.27234910       0.80277587
C       -0.63828973      -1.70822367       0.16214337
C        0.44998611      -1.27148838      -0.88027428
C        0.73569673      -0.35171896       0.24795078
C        1.68316489       1.50244872      -0.07079507
H       -1.41578485       1.71077315       0.46184472
H       -1.59852567       0.65611360      -0.93579362
H       -2.65736329       0.44364982       0.45730574
H       -0.72246424      -0.23379715       1.89021975
H       -0.35373127      -2.52048462       0.82382857
H       -1.59240015      -1.90708455      -0.32270830
H       -0.02954235      -0.82817271      -1.75585248
H        1.21383085      -1.99160715      -1.16631562
H        1.95365459       0.34494205       0.77350733
H        1.08219353       1.83329115      -0.92343536
H        1.47026727       2.24740807       0.70006862
H        2.70673956       1.66034535      -0.41956213
