12
Frame=0 idx=007473 GeodesicLength=0.0 rxn_smarts="[N:1]([c:2]1[c:3]([H:10])[n:4]([H:11])[c:5](=[O:6])[n:7]1[H:12])([H:8])[H:9]>>[N:1]([C:2]([C:5]([N+:4](=[C-:3][H:10])[H:11])=[O:6])=[N:7][H:12])([H:8])[H:9]"
N        2.07179315      -0.73866969       0.28855085
C        0.82849788      -0.38176292       0.07417717
C       -0.70827400       1.95389362      -0.59540807
N       -1.34043419       1.01527538       0.03692078
C       -0.81742071      -0.31838612       0.35076370
O       -1.40842473      -0.97794587       1.19163778
N       -0.04367165      -0.91000742      -0.75640842
H        2.52787127      -1.46646656      -0.24297370
H        2.62493153      -0.22884644       0.95283287
H       -1.39484131       2.81736038      -0.63969458
H       -2.26498899       1.09656332       0.45374103
H       -0.07503829      -1.86100768      -1.11413946
12
Frame=1 idx=007473 GeodesicLength=0.10306692905120868 rxn_smarts="[N:1]([c:2]1[c:3]([H:10])[n:4]([H:11])[c:5](=[O:6])[n:7]1[H:12])([H:8])[H:9]>>[N:1]([C:2]([C:5]([N+:4](=[C-:3][H:10])[H:11])=[O:6])=[N:7][H:12])([H:8])[H:9]"
N        2.05061643      -0.71277222       0.28260484
C        0.80766558      -0.35859229       0.03775486
C       -0.67122435       1.91421744      -0.58803427
N       -1.35590990       0.99341151       0.02412170
C       -0.84315482      -0.33715892       0.34881245
O       -1.41697614      -0.98511321       1.20854115
N       -0.05898728      -0.93285215      -0.76847719
H        2.53014718      -1.41427703      -0.26320061
H        2.58136781      -0.20132459       0.96407868
H       -1.30962491       2.81351460      -0.62208947
H       -2.25806977       1.11389996       0.47730110
H       -0.05584983      -1.89295310      -1.10141323
12
Frame=2 idx=007473 GeodesicLength=0.20635705859526673 rxn_smarts="[N:1]([c:2]1[c:3]([H:10])[n:4]([H:11])[c:5](=[O:6])[n:7]1[H:12])([H:8])[H:9]>>[N:1]([C:2]([C:5]([N+:4](=[C-:3][H:10])[H:11])=[O:6])=[N:7][H:12])([H:8])[H:9]"
N        2.02984978      -0.68745497       0.27598248
C        0.78699910      -0.33777430       0.00272585
C       -0.63888295       1.87354265      -0.58540688
N       -1.36962164       0.97370192       0.01376335
C       -0.86718794      -0.35403557       0.34826024
O       -1.42496228      -0.99073086       1.22505487
N       -0.07327115      -0.95415656      -0.77973290
H        2.53070105      -1.36543764      -0.27980533
H        2.53871797      -0.17339574       0.97242439
H       -1.22522334       2.80727042      -0.59921314
H       -2.25057041       1.12927676       0.49570821
H       -0.03654819      -1.92080611      -1.08976115
12
Frame=3 idx=007473 GeodesicLength=0.30977566243253957 rxn_smarts="[N:1]([c:2]1[c:3]([H:10])[n:4]([H:11])[c:5](=[O:6])[n:7]1[H:12])([H:8])[H:9]>>[N:1]([C:2]([C:5]([N+:4](=[C-:3][H:10])[H:11])=[O:6])=[N:7][H:12])([H:8])[H:9]"
N        2.00979040      -0.66432793       0.26952987
C        0.76702299      -0.31917832      -0.02976483
C       -0.60887629       1.83425363      -0.58232514
N       -1.38055295       0.95696579       0.00849720
C       -0.88940508      -0.36901379       0.34991667
O       -1.43284474      -0.99587228       1.24114159
N       -0.08641581      -0.97255008      -0.79029661
H        2.53080682      -1.31800079      -0.29628009
H        2.49719917      -0.14906487       0.98057002
H       -1.14623081       2.79634670      -0.58165448
H       -2.24299496       1.14357598       0.51140495
H       -0.01749874      -1.94313404      -1.08073914
12
Frame=4 idx=007473 GeodesicLength=0.4133045376361505 rxn_smarts="[N:1]([c:2]1[c:3]([H:10])[n:4]([H:11])[c:5](=[O:6])[n:7]1[H:12])([H:8])[H:9]>>[N:1]([C:2]([C:5]([N+:4](=[C-:3][H:10])[H:11])=[O:6])=[N:7][H:12])([H:8])[H:9]"
N        1.99037028      -0.64276922       0.26325462
C        0.74763890      -0.30242818      -0.06029043
C       -0.58140098       1.79594447      -0.58000472
N       -1.38955704       0.94220228       0.00629900
C       -0.91010940      -0.38247912       0.35312910
O       -1.44061174      -1.00050363       1.25682555
N       -0.09857131      -0.98897862      -0.80037544
H        2.53012862      -1.27273848      -0.31134246
H        2.45705843      -0.12620657       0.98741815
H       -1.07069633       2.78250797      -0.56579450
H       -2.23565390       1.15690788       0.52460077
H        0.00140447      -1.96145880      -1.07371965
12
Frame=5 idx=007473 GeodesicLength=0.5169187332684401 rxn_smarts="[N:1]([c:2]1[c:3]([H:10])[n:4]([H:11])[c:5](=[O:6])[n:7]1[H:12])([H:8])[H:9]>>[N:1]([C:2]([C:5]([N+:4](=[C-:3][H:10])[H:11])=[O:6])=[N:7][H:12])([H:8])[H:9]"
N        1.97159578      -0.62269650       0.25730270
C        0.72890673      -0.28722887      -0.08900285
C       -0.55602424       1.75885404      -0.57781900
N       -1.39690316       0.92902798       0.00664743
C       -0.92941157      -0.39461453       0.35766941
O       -1.44829052      -1.00484040       1.27202961
N       -0.10981015      -1.00356922      -0.81017350
H        2.52865203      -1.22996816      -0.32479904
H        2.41845310      -0.10438341       0.99295231
H       -0.99869828       2.76611750      -0.55205629
H       -2.22857290       1.16948223       0.53601538
H        0.02010319      -1.97618066      -1.06876617
12
Frame=6 idx=007473 GeodesicLength=0.6205996167735156 rxn_smarts="[N:1]([c:2]1[c:3]([H:10])[n:4]([H:11])[c:5](=[O:6])[n:7]1[H:12])([H:8])[H:9]>>[N:1]([C:2]([C:5]([N+:4](=[C-:3][H:10])[H:11])=[O:6])=[N:7][H:12])([H:8])[H:9]"
N        1.95345312      -0.60381714       0.25159879
C        0.71078026      -0.27334920      -0.11619610
C       -0.53273816       1.72280313      -0.57627046
N       -1.40302801       0.91704576       0.00867363
C       -0.94747874      -0.40558068       0.36330996
O       -1.45585370      -1.00879180       1.28694376
N       -0.12022691      -1.01678631      -0.81973059
H        2.52654802      -1.18925131      -0.33689636
H        2.38116368      -0.08355534       0.99750086
H       -0.92955968       2.74784696      -0.53942179
H       -2.22171986       1.18150989       0.54596446
H        0.03866000      -1.98807396      -1.06547616
12
Frame=7 idx=007473 GeodesicLength=0.7243395847539604 rxn_smarts="[N:1]([c:2]1[c:3]([H:10])[n:4]([H:11])[c:5](=[O:6])[n:7]1[H:12])([H:8])[H:9]>>[N:1]([C:2]([C:5]([N+:4](=[C-:3][H:10])[H:11])=[O:6])=[N:7][H:12])([H:8])[H:9]"
N        1.93592673      -0.58614050       0.24623656
C        0.69328229      -0.26061560      -0.14192690
C       -0.51118874       1.68790372      -0.57492206
N       -1.40804039       0.90607925       0.01220712
C       -0.96439278      -0.41548029       0.36995986
O       -1.46334282      -1.01246652       1.30156558
N       -0.12988774      -1.02868612      -0.82913235
H        2.52394545      -1.15037400      -0.34787120
H        2.34514708      -0.06383620       1.00135225
H       -0.86344702       2.72786779      -0.52848021
H       -2.21501410       1.19310924       0.55485148
H        0.05701205      -1.99736077      -1.06384013
12
Frame=8 idx=007473 GeodesicLength=0.8281210167071203 rxn_smarts="[N:1]([c:2]1[c:3]([H:10])[n:4]([H:11])[c:5](=[O:6])[n:7]1[H:12])([H:8])[H:9]>>[N:1]([C:2]([C:5]([N+:4](=[C-:3][H:10])[H:11])=[O:6])=[N:7][H:12])([H:8])[H:9]"
N        1.91899417      -0.56951977       0.24118308
C        0.67637809      -0.24888600      -0.16635797
C       -0.49127588       1.65406382      -0.57391361
N       -1.41215617       0.89593173       0.01685694
C       -0.98025263      -0.42442079       0.37751059
O       -1.47074278      -1.01583359       1.31601631
N       -0.13886415      -1.03951077      -0.83841033
H        2.52094420      -1.11308601      -0.35788439
H        2.31028170      -0.04518208       1.00467461
H       -0.80001806       2.70654537      -0.51879850
H       -2.20845768       1.20436324       0.56277746
H        0.07516920      -2.00446514      -1.06365417
12
Frame=9 idx=007473 GeodesicLength=0.931941820637437 rxn_smarts="[N:1]([c:2]1[c:3]([H:10])[n:4]([H:11])[c:5](=[O:6])[n:7]1[H:12])([H:8])[H:9]>>[N:1]([C:2]([C:5]([N+:4](=[C-:3][H:10])[H:11])=[O:6])=[N:7][H:12])([H:8])[H:9]"
N        1.90263819      -0.55386603       0.23643362
C        0.66005284      -0.23803267      -0.18959243
C       -0.47283932       1.62125200      -0.57312485
N       -1.41549677       0.88647508       0.02241520
C       -0.99512689      -0.43248730       0.38589432
O       -1.47804580      -1.01890663       1.33035806
N       -0.14721262      -1.04937250      -0.84760958
H        2.51759322      -1.07730863      -0.36700082
H        2.27652354      -0.02752436       1.00755184
H       -0.73914386       2.68407753      -0.51031110
H       -2.20205942       1.21531659       0.56982606
H        0.09311690      -2.00962308      -1.06484033
12
Frame=10 idx=007473 GeodesicLength=1.0357867933449012 rxn_smarts="[N:1]([c:2]1[c:3]([H:10])[n:4]([H:11])[c:5](=[O:6])[n:7]1[H:12])([H:8])[H:9]>>[N:1]([C:2]([C:5]([N+:4](=[C-:3][H:10])[H:11])=[O:6])=[N:7][H:12])([H:8])[H:9]"
N        1.88685210      -0.53919142       0.23202478
C        0.64430983      -0.22795975      -0.21166081
C       -0.45564700       1.58950258      -0.57235018
N       -1.41810755       0.87763459       0.02883752
C       -1.00906586      -0.43974646       0.39507490
O       -1.48527438      -1.02174282       1.34462080
N       -0.15497509      -1.05831093      -0.85677455
H        2.51398062      -1.04284840      -0.37538727
H        2.24382422      -0.01101719       1.01020014
H       -0.68094223       2.66064484      -0.50336638
H       -2.19578533       1.22600903       0.57616116
H        0.11083068      -2.01297406      -1.06738012
12
Frame=11 idx=007473 GeodesicLength=1.1396451364710953 rxn_smarts="[N:1]([c:2]1[c:3]([H:10])[n:4]([H:11])[c:5](=[O:6])[n:7]1[H:12])([H:8])[H:9]>>[N:1]([C:2]([C:5]([N+:4](=[C-:3][H:10])[H:11])=[O:6])=[N:7][H:12])([H:8])[H:9]"
N        1.87162930      -0.52548805       0.22797230
C        0.62915005      -0.21858024      -0.23260605
C       -0.43951160       1.55881389      -0.57142413
N       -1.42002810       0.86934019       0.03606848
C       -1.02211019      -0.44625494       0.40501942
O       -1.49243701      -1.02437396       1.35883400
N       -0.16218849      -1.06636231      -0.86594486
H        2.51015861      -1.00962692      -0.38311170
H        2.21215966       0.00428328       1.01272822
H       -0.62547781       2.63645135      -0.49815196
H       -2.18963583       1.23643662       0.58186139
H        0.12829143      -2.01463891      -1.07124511
12
Frame=12 idx=007473 GeodesicLength=1.2435085100120746 rxn_smarts="[N:1]([c:2]1[c:3]([H:10])[n:4]([H:11])[c:5](=[O:6])[n:7]1[H:12])([H:8])[H:9]>>[N:1]([C:2]([C:5]([N+:4](=[C-:3][H:10])[H:11])=[O:6])=[N:7][H:12])([H:8])[H:9]"
N        1.85695878      -0.51267986       0.22424558
C        0.61454749      -0.20981788      -0.25250460
C       -0.42434754       1.52911768      -0.57036590
N       -1.42134393       0.86151444       0.04396455
C       -1.03430504      -0.45207409       0.41569792
O       -1.49951385      -1.02678169       1.37307864
N       -0.16889718      -1.07362852      -0.87513536
H        2.50616169      -0.97755475      -0.39023839
H        2.18148953       0.01840879       1.01519461
H       -0.57258591       2.61167932      -0.49446655
H       -2.18366334       1.24661592       0.58688228
H        0.14549930      -2.01479938      -1.07635278
12
Frame=13 idx=007473 GeodesicLength=1.347365741278016 rxn_smarts="[N:1]([c:2]1[c:3]([H:10])[n:4]([H:11])[c:5](=[O:6])[n:7]1[H:12])([H:8])[H:9]>>[N:1]([C:2]([C:5]([N+:4](=[C-:3][H:10])[H:11])=[O:6])=[N:7][H:12])([H:8])[H:9]"
N        1.84283167      -0.50076327       0.22085214
C        0.60049545      -0.20161353      -0.27139271
C       -0.41000831       1.50040130      -0.56906617
N       -1.42208382       0.85410112       0.05248385
C       -1.04568127      -0.45724570       0.42709293
O       -1.50651159      -1.02897550       1.38738803
N       -0.17513546      -1.08014208      -0.88437201
H        2.50202568      -0.94658101      -0.39681315
H        2.15180621       0.03135519       1.01764478
H       -0.52226029       2.58650177      -0.49237142
H       -2.17791253       1.25651317       0.59121630
H        0.16243428      -2.01355145      -1.08266257
12
Frame=14 idx=007473 GeodesicLength=1.4512126341071803 rxn_smarts="[N:1]([c:2]1[c:3]([H:10])[n:4]([H:11])[c:5](=[O:6])[n:7]1[H:12])([H:8])[H:9]>>[N:1]([C:2]([C:5]([N+:4](=[C-:3][H:10])[H:11])=[O:6])=[N:7][H:12])([H:8])[H:9]"
N        1.82923602      -0.48968166       0.21776171
C        0.58696684      -0.19391443      -0.28933026
C       -0.39642156       1.47260577      -0.56753833
N       -1.42231211       0.84703870       0.06152040
C       -1.05627279      -0.46181286       0.43919102
O       -1.51341466      -1.03092511       1.40183354
N       -0.18094240      -1.08597983      -0.89366043
H        2.49777343      -0.91663689      -0.40289180
H        2.12308644       0.04316926       1.02009620
H       -0.47432948       2.56104828      -0.49165714
H       -2.17246170       1.26611659       0.59477303
H        0.17909199      -2.01102783      -1.09009795
12
Frame=15 idx=007473 GeodesicLength=1.555041354261071 rxn_smarts="[N:1]([c:2]1[c:3]([H:10])[n:4]([H:11])[c:5](=[O:6])[n:7]1[H:12])([H:8])[H:9]>>[N:1]([C:2]([C:5]([N+:4](=[C-:3][H:10])[H:11])=[O:6])=[N:7][H:12])([H:8])[H:9]"
N        1.81616184      -0.47941303       0.21496132
C        0.57394431      -0.18667673      -0.30635782
C       -0.38349098       1.44569997      -0.56573795
N       -1.42206582       0.84028024       0.07101832
C       -1.06610351      -0.46580683       0.45198656
O       -1.52021703      -1.03261353       1.41646479
N       -0.18635177      -1.09118350      -0.90301321
H        2.49342659      -0.88767910      -0.40851675
H        2.09532330       0.05388026       1.02256050
H       -0.42869892       2.53544065      -0.49223752
H       -2.16738692       1.27538892       0.59747814
H        0.19545889      -2.00731731      -1.09860639
12
Frame=16 idx=007473 GeodesicLength=1.65884727954503 rxn_smarts="[N:1]([c:2]1[c:3]([H:10])[n:4]([H:11])[c:5](=[O:6])[n:7]1[H:12])([H:8])[H:9]>>[N:1]([C:2]([C:5]([N+:4](=[C-:3][H:10])[H:11])=[O:6])=[N:7][H:12])([H:8])[H:9]"
N        1.80359911      -0.46992509       0.21242802
C        0.56140613      -0.17986103      -0.32251766
C       -0.37114273       1.41964478      -0.56364779
N       -1.42138693       0.83378213       0.08091564
C       -1.07519384      -0.46925388       0.46547965
O       -1.52690543      -1.03401187       1.43133938
N       -0.19139693      -1.09579750      -0.91243638
H        2.48900039      -0.85966806      -0.41373117
H        2.06850943       0.06352621       1.02503942
H       -0.38523906       2.50977408      -0.49396732
H       -2.16277536       1.28429298       0.59923160
H        0.21152522      -2.00250276      -1.10813339
