13
Frame=0 idx=001191 GeodesicLength=0.0 rxn_smarts="[O:1]([C:2]12[C:3]([H:8])([H:9])[N:4]([C:5]1([H:10])[H:11])[C:6]2([H:12])[H:13])[H:7]>>[O:1]([C:3]([C:2]12[N:4]([C:5]1([H:10])[H:11])[C:6]2([H:12])[H:13])([H:8])[H:9])[H:7]"
O        1.05915102      -1.04152689       1.38198668
C        0.16636800       0.01250851       0.24142140
C       -0.33540727      -1.25774798      -0.06820043
N       -0.93902784       0.72638890      -0.94204139
C       -0.92255739       0.97244000       0.52757476
C        0.54528748       0.75587206      -0.98669021
H        1.92526749      -1.21726093       0.99616466
H        0.10604876      -1.84817791      -0.86127804
H       -1.17465770      -1.66690238       0.47802868
H       -0.61444359       1.97944615       0.81429142
H       -1.79948974       0.62630152       1.06853762
H        0.99780717       0.21533026      -1.81549037
H        0.98565358       1.74332868      -0.83430481
13
Frame=1 idx=001191 GeodesicLength=0.042223578814421396 rxn_smarts="[O:1]([C:2]12[C:3]([H:8])([H:9])[N:4]([C:5]1([H:10])[H:11])[C:6]2([H:12])[H:13])[H:7]>>[O:1]([C:3]([C:2]12[N:4]([C:5]1([H:10])[H:11])[C:6]2([H:12])[H:13])([H:8])[H:9])[H:7]"
O        1.05419781      -1.05143018       1.37947619
C        0.17407518       0.01875007       0.24797806
C       -0.33180053      -1.25493010      -0.06566675
N       -0.93642134       0.70497307      -0.93659463
C       -0.92101046       0.97369956       0.52948683
C        0.54759659       0.75767952      -0.98523469
H        1.91972593      -1.22565582       0.99249055
H        0.10504039      -1.84337114      -0.86350243
H       -1.17589991      -1.66223856       0.47523701
H       -0.62006429       1.98612252       0.80388003
H       -1.79556623       0.62769093       1.07435188
H        1.00456571       0.21721183      -1.81161438
H        0.97556116       1.75149831      -0.84028766
13
Frame=2 idx=001191 GeodesicLength=0.08444994490998166 rxn_smarts="[O:1]([C:2]12[C:3]([H:8])([H:9])[N:4]([C:5]1([H:10])[H:11])[C:6]2([H:12])[H:13])[H:7]>>[O:1]([C:3]([C:2]12[N:4]([C:5]1([H:10])[H:11])[C:6]2([H:12])[H:13])([H:8])[H:9])[H:7]"
O        1.04920509      -1.06102814       1.37687615
C        0.18167582       0.02493843       0.25444234
C       -0.32826542      -1.25222218      -0.06317809
N       -0.93346930       0.68409191      -0.93090239
C       -0.91945861       0.97492962       0.53139519
C        0.54989342       0.75944812      -0.98378233
H        1.91416558      -1.23378011       0.98879939
H        0.10408334      -1.83866958      -0.86565307
H       -1.17708711      -1.65767192       0.47251204
H       -0.62567746       1.99249953       0.79363851
H       -1.79175684       0.62906672       1.07994655
H        1.01108907       0.21907908      -1.80785222
H        0.96560242       1.75931851      -0.84624208
13
Frame=3 idx=001191 GeodesicLength=0.12667969924445782 rxn_smarts="[O:1]([C:2]12[C:3]([H:8])([H:9])[N:4]([C:5]1([H:10])[H:11])[C:6]2([H:12])[H:13])[H:7]>>[O:1]([C:3]([C:2]12[N:4]([C:5]1([H:10])[H:11])[C:6]2([H:12])[H:13])([H:8])[H:9])[H:7]"
O        1.04417780      -1.07032658       1.37419263
C        0.18917457       0.03107459       0.26081830
C       -0.32479969      -1.24962321      -0.06073134
N       -0.93019440       0.66373213      -0.92498543
C       -0.91790109       0.97613145       0.53330089
C        0.55218033       0.76118046      -0.98233142
H        1.90858413      -1.24165675       0.98508718
H        0.10317562      -1.83406895      -0.86773479
H       -1.17822386      -1.65319891       0.46985314
H       -0.63128276       1.99859191       0.78355629
H       -1.78805444       0.63042444       1.08533697
H        1.01739688       0.22092900      -1.80419327
H        0.95576690       1.76681042      -0.85216916
13
Frame=4 idx=001191 GeodesicLength=0.16893570575620398 rxn_smarts="[O:1]([C:2]12[C:3]([H:8])([H:9])[N:4]([C:5]1([H:10])[H:11])[C:6]2([H:12])[H:13])[H:7]>>[O:1]([C:3]([C:2]12[N:4]([C:5]1([H:10])[H:11])[C:6]2([H:12])[H:13])([H:8])[H:9])[H:7]"
O        1.03912274      -1.07933158       1.37143275
C        0.19657666       0.03716090       0.26711054
C       -0.32140131      -1.24712839      -0.05832714
N       -0.92661316       0.64387032      -0.91885053
C       -0.91633692       0.97730562       0.53520656
C        0.55446018       0.76287850      -0.98087802
H        1.90298096      -1.24930890       0.98135131
H        0.10231522      -1.82956483      -0.86975412
H       -1.17931606      -1.64881480       0.46725436
H       -0.63688392       2.00441432       0.77361857
H       -1.78445144       0.63176703       1.09053535
H        1.02350500       0.22276214      -1.80062920
H        0.94604204       1.77398966      -0.85807043
13
Frame=5 idx=001191 GeodesicLength=0.21120005748415913 rxn_smarts="[O:1]([C:2]12[C:3]([H:8])([H:9])[N:4]([C:5]1([H:10])[H:11])[C:6]2([H:12])[H:13])[H:7]>>[O:1]([C:3]([C:2]12[N:4]([C:5]1([H:10])[H:11])[C:6]2([H:12])[H:13])([H:8])[H:9])[H:7]"
O        1.03404341      -1.08804880       1.36859900
C        0.20388097       0.04319493       0.27331976
C       -0.31807359      -1.24473937      -0.05596414
N       -0.92274269       0.62450357      -0.91252355
C       -0.91476640       0.97845292       0.53711099
C        0.55673407       0.76454213      -0.97942331
H        1.89736218      -1.25672740       0.97759263
H        0.10149150      -1.82515758      -0.87171785
H       -1.18036752      -1.64452093       0.46471985
H       -0.64247118       2.00997230       0.76382961
H       -1.78094694       0.63308796       1.09554979
H        1.02942504       0.22457430      -1.79715367
H        0.93643115       1.78086596      -0.86393911
13
Frame=6 idx=001191 GeodesicLength=0.25346843483514403 rxn_smarts="[O:1]([C:2]12[C:3]([H:8])([H:9])[N:4]([C:5]1([H:10])[H:11])[C:6]2([H:12])[H:13])[H:7]>>[O:1]([C:3]([C:2]12[N:4]([C:5]1([H:10])[H:11])[C:6]2([H:12])[H:13])([H:8])[H:9])[H:7]"
O        1.02894238      -1.09648600       1.36569336
C        0.21108863       0.04917609       0.27944733
C       -0.31481718      -1.24245518      -0.05364414
N       -0.91860499       0.60562361      -0.90601634
C       -0.91318964       0.97957380       0.53901669
C        0.55900357       0.76617047      -0.97796713
H        1.89173594      -1.26390010       0.97381681
H        0.10070010      -1.82084644      -0.87363044
H       -1.18138392      -1.64031664       0.46224556
H       -0.64803280       2.01526943       0.75419566
H       -1.77754314       0.63438671       1.10038015
H        1.03516080       0.22636003      -1.79376759
H        0.92694024       1.78744422      -0.86976992
13
Frame=7 idx=001191 GeodesicLength=0.29574905025491144 rxn_smarts="[O:1]([C:2]12[C:3]([H:8])([H:9])[N:4]([C:5]1([H:10])[H:11])[C:6]2([H:12])[H:13])[H:7]>>[O:1]([C:3]([C:2]12[N:4]([C:5]1([H:10])[H:11])[C:6]2([H:12])[H:13])([H:8])[H:9])[H:7]"
O        1.02382459      -1.10464844       1.36272417
C        0.21820418       0.05510616       0.28549657
C       -0.31163055      -1.24027382      -0.05136664
N       -0.91421431       0.58721246      -0.89934152
C       -0.91160638       0.98066979       0.54092372
C        0.56126979       0.76776638      -0.97650837
H        1.88610040      -1.27085078       0.97002215
H        0.09994077      -1.81662856      -0.87549792
H       -1.18236976      -1.63619852       0.45982854
H       -0.65357348       2.02032105       0.74470258
H       -1.77423106       0.63566248       1.10504347
H        1.04072594       0.22812070      -1.79046322
H        0.91755987       1.79374109      -0.87556354
13
Frame=8 idx=001191 GeodesicLength=0.3380373681198875 rxn_smarts="[O:1]([C:2]12[C:3]([H:8])([H:9])[N:4]([C:5]1([H:10])[H:11])[C:6]2([H:12])[H:13])[H:7]>>[O:1]([C:3]([C:2]12[N:4]([C:5]1([H:10])[H:11])[C:6]2([H:12])[H:13])([H:8])[H:9])[H:7]"
O        1.01869333      -1.11254111       1.35969280
C        0.22522839       0.06098397       0.29146982
C       -0.30851472      -1.23819345      -0.04913213
N       -0.90958637       0.56926205      -0.89251088
C       -0.91001656       0.98174111       0.54283489
C        0.56353470       0.76932857      -0.97504595
H        1.88045923      -1.27757783       0.96620859
H        0.09921248      -1.81250326      -0.87732198
H       -1.18332811      -1.63216459       0.45746856
H       -0.65908851       2.02513326       0.73535109
H       -1.77101243       0.63691485       1.10954137
H        1.04612490       0.22985518      -1.78724226
H        0.90829367       1.79976124      -0.88131391
13
Frame=9 idx=001191 GeodesicLength=0.38033524645935657 rxn_smarts="[O:1]([C:2]12[C:3]([H:8])([H:9])[N:4]([C:5]1([H:10])[H:11])[C:6]2([H:12])[H:13])[H:7]>>[O:1]([C:3]([C:2]12[N:4]([C:5]1([H:10])[H:11])[C:6]2([H:12])[H:13])([H:8])[H:9])[H:7]"
O        1.01355170      -1.12017236       1.35660419
C        0.23216562       0.06681144       0.29736894
C       -0.30546683      -1.23621211      -0.04693864
N       -0.90473497       0.55175765      -0.88553893
C       -0.90841964       0.98278917       0.54474823
C        0.56579785       0.77085915      -0.97357952
H        1.87481335      -1.28409355       0.96237711
H        0.09851161      -1.80846477      -0.87910822
H       -1.18426274      -1.62820982       0.45516151
H       -0.66457847       2.02971574       0.72613344
H       -1.76787812       0.63814233       1.11388666
H        1.05136874       0.23156021      -1.78409404
H        0.89913190       1.80551692      -0.88702074
13
Frame=10 idx=001191 GeodesicLength=0.42263980165135706 rxn_smarts="[O:1]([C:2]12[C:3]([H:8])([H:9])[N:4]([C:5]1([H:10])[H:11])[C:6]2([H:12])[H:13])[H:7]>>[O:1]([C:3]([C:2]12[N:4]([C:5]1([H:10])[H:11])[C:6]2([H:12])[H:13])([H:8])[H:9])[H:7]"
O        1.00839962      -1.12754679       1.35346524
C        0.23901753       0.07258814       0.30319552
C       -0.30248717      -1.23432963      -0.04478855
N       -0.89967632       0.53469009      -0.87843320
C       -0.90681464       0.98381343       0.54666737
C        0.56805987       0.77235811      -0.97211153
H        1.86916688      -1.29038863       0.95853781
H        0.09783498      -1.80451159      -0.88086330
H       -1.18517937      -1.62433570       0.45290142
H       -0.67003218       2.03407130       0.71705493
H       -1.76482845       0.63934274       1.11808299
H        1.05645926       0.23323448      -1.78102341
H        0.89007998       1.81101404      -0.89268528
13
Frame=11 idx=001191 GeodesicLength=0.4649557565993391 rxn_smarts="[O:1]([C:2]12[C:3]([H:8])([H:9])[N:4]([C:5]1([H:10])[H:11])[C:6]2([H:12])[H:13])[H:7]>>[O:1]([C:3]([C:2]12[N:4]([C:5]1([H:10])[H:11])[C:6]2([H:12])[H:13])([H:8])[H:9])[H:7]"
O        1.00324200      -1.13467295       1.35027850
C        0.24578786       0.07831538       0.30895323
C       -0.29957425      -1.23254371      -0.04267950
N       -0.89442090       0.51804412      -0.87120470
C       -0.90520170       0.98481550       0.54859137
C        0.57032219       0.77382732      -0.97063925
H        1.86351988      -1.29648155       0.95468522
H        0.09718100      -1.80064045      -0.88258984
H       -1.18608088      -1.62053644       0.45068797
H       -0.67545597       2.03821270       0.70810264
H       -1.76185663       0.64051625       1.12214154
H        1.06140951       0.23487790      -1.77802050
H        0.88112789       1.81626593      -0.89830668
13
Frame=12 idx=001191 GeodesicLength=0.5072766869580267 rxn_smarts="[O:1]([C:2]12[C:3]([H:8])([H:9])[N:4]([C:5]1([H:10])[H:11])[C:6]2([H:12])[H:13])[H:7]>>[O:1]([C:3]([C:2]12[N:4]([C:5]1([H:10])[H:11])[C:6]2([H:12])[H:13])([H:8])[H:9])[H:7]"
O        0.99808094      -1.14155579       1.34704726
C        0.25247742       0.08399296       0.31464264
C       -0.29672886      -1.23085342      -0.04061273
N       -0.88898270       0.50181078      -0.86386369
C       -0.90358154       0.98579567       0.55052057
C        0.57258440       0.77526661      -0.96916427
H        1.85787824      -1.30236422       0.95082545
H        0.09654713      -1.79685015      -0.88429152
H       -1.18697157      -1.61681073       0.44851813
H       -0.68084125       2.04214255       0.69928131
H       -1.75896323       0.64166171       1.12606410
H        1.06621934       0.23648857      -1.77508788
H        0.87228168       1.82127546      -0.90387937
13
Frame=13 idx=001191 GeodesicLength=0.5495997968711108 rxn_smarts="[O:1]([C:2]12[C:3]([H:8])([H:9])[N:4]([C:5]1([H:10])[H:11])[C:6]2([H:12])[H:13])[H:7]>>[O:1]([C:3]([C:2]12[N:4]([C:5]1([H:10])[H:11])[C:6]2([H:12])[H:13])([H:8])[H:9])[H:7]"
O        0.99291756      -1.14819895       1.34377269
C        0.25908633       0.08962057       0.32026371
C       -0.29395120      -1.22925710      -0.03858867
N       -0.88337451       0.48597942      -0.85641971
C       -0.90195564       0.98675373       0.55245432
C        0.57484535       0.77667480      -0.96768828
H        1.85224688      -1.30802750       0.94696228
H        0.09593206      -1.79313866      -0.88597087
H       -1.18785440      -1.61315585       0.44638990
H       -0.68617865       2.04586320       0.69059727
H       -1.75615018       0.64277803       1.12985080
H        1.07088696       0.23806378      -1.77222805
H        0.86354944       1.82604452      -0.90939542
13
Frame=14 idx=001191 GeodesicLength=0.5919258844106592 rxn_smarts="[O:1]([C:2]12[C:3]([H:8])([H:9])[N:4]([C:5]1([H:10])[H:11])[C:6]2([H:12])[H:13])[H:7]>>[O:1]([C:3]([C:2]12[N:4]([C:5]1([H:10])[H:11])[C:6]2([H:12])[H:13])([H:8])[H:9])[H:7]"
O        0.98775626      -1.15461142       1.34046101
C        0.26561928       0.09520015       0.32582088
C       -0.29123888      -1.22775353      -0.03660565
N       -0.87760526       0.47053771      -0.84888032
C       -0.90032303       0.98769106       0.55439374
C        0.57710700       0.77805478      -0.96620929
H        1.84662517      -1.31349155       0.94309488
H        0.09533465      -1.78950247      -0.88763179
H       -1.18873241      -1.60956903       0.44430001
H       -0.69147542       2.04938610       0.68203768
H       -1.75341073       0.64386664       1.13351334
H        1.07542348       0.23960464      -1.76943400
H        0.85491990       1.83058692      -0.91486050
13
Frame=15 idx=001191 GeodesicLength=0.6342617880456108 rxn_smarts="[O:1]([C:2]12[C:3]([H:8])([H:9])[N:4]([C:5]1([H:10])[H:11])[C:6]2([H:12])[H:13])[H:7]>>[O:1]([C:3]([C:2]12[N:4]([C:5]1([H:10])[H:11])[C:6]2([H:12])[H:13])([H:8])[H:9])[H:7]"
O        0.98259935      -1.16079884       1.33711422
C        0.27208075       0.10073345       0.33131801
C       -0.28858984      -1.22634012      -0.03466152
N       -0.87168377       0.45547235      -0.84125099
C       -0.89868255       0.98860791       0.55633995
C        0.57937073       0.77940766      -0.96472515
H        1.84101059      -1.31877186       0.93921855
H        0.09475487      -1.78593609      -0.88927491
H       -1.18960978      -1.60604408       0.44224502
H       -0.69673776       2.05271978       0.67359143
H       -1.75073770       0.64492575       1.13706173
H        1.07984110       0.24111128      -1.76669704
H        0.84638400       1.83491281      -0.92027930
13
Frame=16 idx=001191 GeodesicLength=0.6766022470076924 rxn_smarts="[O:1]([C:2]12[C:3]([H:8])([H:9])[N:4]([C:5]1([H:10])[H:11])[C:6]2([H:12])[H:13])[H:7]>>[O:1]([C:3]([C:2]12[N:4]([C:5]1([H:10])[H:11])[C:6]2([H:12])[H:13])([H:8])[H:9])[H:7]"
O        0.97744718      -1.16676616       1.33373566
C        0.27847027       0.10622016       0.33675508
C       -0.28600413      -1.22501566      -0.03275740
N       -0.86562091       0.44077328      -0.83354052
C       -0.89703527       0.98950467       0.55829189
C        0.58163453       0.78073242      -0.96323851
H        1.83540899      -1.32385518       0.93534149
H        0.09418751      -1.78243787      -0.89090652
H       -1.19048689      -1.60258029       0.44022393
H       -0.70195324       2.05586491       0.66526701
H       -1.74813342       0.64595492       1.14049375
H        1.08413696       0.24258195      -1.76402163
H        0.83794841       1.83902285      -0.92564424
