14
Frame=0 idx=010218 GeodesicLength=0.0 rxn_smarts="[C:1]([C:2]([N:3](/[C:4](=[N:5]/[H:14])[C:6]#[N:7])[H:13])([H:11])[H:12])([H:8])([H:9])[H:10]>>[C:1]([N:3]([C:2]([N:5]([C+:4]=[C:6]=[N-:7])[H:14])([H:11])[H:12])[H:13])([H:8])([H:9])[H:10]"
C       -1.47498242       0.66659411      -0.49986262
C       -1.11581409      -0.85516981       0.89910183
N       -0.07246666       0.14480649       0.48662577
C        1.15250328      -0.22252397      -0.08436469
N        1.32491490      -1.38761709      -0.55697053
C        2.09936153       0.87105086      -0.19790451
N        2.84664368       1.74098161      -0.26060262
H       -0.93484498       1.48845562      -0.98440451
H       -2.33960838       1.02888299       0.03689248
H       -1.72979627      -0.10861781      -1.20764494
H       -0.98037215      -1.73622270       0.28350426
H       -1.01902605      -1.07845508       1.96356199
H        0.00872742       0.92788949       1.11847380
H        2.23476017      -1.48005476      -0.99640571
14
Frame=1 idx=010218 GeodesicLength=0.12143830767327608 rxn_smarts="[C:1]([C:2]([N:3](/[C:4](=[N:5]/[H:14])[C:6]#[N:7])[H:13])([H:11])[H:12])([H:8])([H:9])[H:10]>>[C:1]([N:3]([C:2]([N:5]([C+:4]=[C:6]=[N-:7])[H:14])([H:11])[H:12])[H:13])([H:8])([H:9])[H:10]"
C       -1.49090663       0.66231587      -0.49053615
C       -1.09049904      -0.86978270       0.86732260
N       -0.08132415       0.16860601       0.49839040
C        1.17773562      -0.20447914      -0.04588997
N        1.33185761      -1.38640880      -0.48201237
C        2.12146416       0.88167190      -0.21615114
N        2.88758947       1.73363431      -0.29953584
H       -0.95464025       1.47057814      -1.00149606
H       -2.34084099       1.04400903       0.05736914
H       -1.78190131      -0.10009484      -1.19913590
H       -0.98426902      -1.73383454       0.22335566
H       -1.00425869      -1.12159418       1.92595809
H       -0.00425661       0.94761536       1.13397871
H        2.21424981      -1.49223642      -0.97161718
14
Frame=2 idx=010218 GeodesicLength=0.242624908262976 rxn_smarts="[C:1]([C:2]([N:3](/[C:4](=[N:5]/[H:14])[C:6]#[N:7])[H:13])([H:11])[H:12])([H:8])([H:9])[H:10]>>[C:1]([N:3]([C:2]([N:5]([C+:4]=[C:6]=[N-:7])[H:14])([H:11])[H:12])[H:13])([H:8])([H:9])[H:10]"
C       -1.50733005       0.65729821      -0.48124427
C       -1.06377672      -0.88378150       0.83370184
N       -0.09054832       0.19144262       0.50965188
C        1.20329548      -0.18546744      -0.00710514
N        1.33826366      -1.38136693      -0.41115152
C        2.14397064       0.89050248      -0.23428661
N        2.92831816       1.72396770      -0.33635048
H       -0.97472511       1.45017100      -1.01937572
H       -2.34082063       1.05997316       0.07807534
H       -1.83782848      -0.09199121      -1.18743326
H       -0.98403962      -1.73023011       0.16366000
H       -0.98983801      -1.16223026       1.88625874
H       -0.01803761       0.96613530       1.14932156
H        2.19309661      -1.50442303      -0.94372235
14
Frame=3 idx=010218 GeodesicLength=0.3635904648434161 rxn_smarts="[C:1]([C:2]([N:3](/[C:4](=[N:5]/[H:14])[C:6]#[N:7])[H:13])([H:11])[H:12])([H:8])([H:9])[H:10]>>[C:1]([N:3]([C:2]([N:5]([C+:4]=[C:6]=[N-:7])[H:14])([H:11])[H:12])[H:13])([H:8])([H:9])[H:10]"
C       -1.52419443       0.65176015      -0.47184939
C       -1.03595876      -0.89695924       0.79816644
N       -0.10021096       0.21315865       0.52059225
C        1.22901815      -0.16568050       0.03193735
N        1.34403398      -1.37311535      -0.34433278
C        2.16729553       0.89716278      -0.25068333
N        2.96789660       1.71241004      -0.37341501
H       -0.99495402       1.42726283      -1.03782675
H       -2.33945021       1.07711836       0.09876740
H       -1.89718881      -0.08399484      -1.17206337
H       -0.98005225      -1.72524508       0.10387233
H       -0.97604517      -1.20082955       1.84427638
H       -0.03261087       0.98312382       1.16485163
H        2.17242122      -1.51617208      -0.91229316
14
Frame=4 idx=010218 GeodesicLength=0.4844330050640426 rxn_smarts="[C:1]([C:2]([N:3](/[C:4](=[N:5]/[H:14])[C:6]#[N:7])[H:13])([H:11])[H:12])([H:8])([H:9])[H:10]>>[C:1]([N:3]([C:2]([N:5]([C+:4]=[C:6]=[N-:7])[H:14])([H:11])[H:12])[H:13])([H:8])([H:9])[H:10]"
C       -1.54180399       0.64545267      -0.46244245
C       -1.00708903      -0.90882616       0.76115754
N       -0.11039770       0.23395110       0.53104046
C        1.25465698      -0.14508093       0.07067075
N        1.34917567      -1.36214155      -0.28132763
C        2.19164688       0.90174368      -0.26488798
N        3.00737499       1.69839358      -0.40893087
H       -1.01588904       1.40124787      -1.05737028
H       -2.33699430       1.09541312       0.11889317
H       -1.95975616      -0.07675404      -1.15235877
H       -0.97247270      -1.71871806       0.04439377
H       -0.96250490      -1.23700769       1.80042321
H       -0.04793174       0.99897418       1.18012516
H        2.15198504      -1.52664778      -0.87938608
14
Frame=5 idx=010218 GeodesicLength=0.6050908502448323 rxn_smarts="[C:1]([C:2]([N:3](/[C:4](=[N:5]/[H:14])[C:6]#[N:7])[H:13])([H:11])[H:12])([H:8])([H:9])[H:10]>>[C:1]([N:3]([C:2]([N:5]([C+:4]=[C:6]=[N-:7])[H:14])([H:11])[H:12])[H:13])([H:8])([H:9])[H:10]"
C       -1.56018820       0.63832848      -0.45297929
C       -0.97731866      -0.91905296       0.72290527
N       -0.12116114       0.25388497       0.54101020
C        1.28000235      -0.12381375       0.10888568
N        1.35362990      -1.34887362      -0.22204764
C        2.21719680       0.90426587      -0.27614116
N        3.04687207       1.68210838      -0.44293337
H       -1.03775191       1.37186727      -1.07796376
H       -2.33354775       1.11485708       0.13792988
H       -2.02469745      -0.07055897      -1.12791632
H       -0.96161762      -1.71044788      -0.01476921
H       -0.94905786      -1.27079343       1.75480307
H       -0.06389036       1.01379608       1.19506234
H        2.13152983      -1.53556753      -0.84584570
14
Frame=6 idx=010218 GeodesicLength=0.7256921172249701 rxn_smarts="[C:1]([C:2]([N:3](/[C:4](=[N:5]/[H:14])[C:6]#[N:7])[H:13])([H:11])[H:12])([H:8])([H:9])[H:10]>>[C:1]([N:3]([C:2]([N:5]([C+:4]=[C:6]=[N-:7])[H:14])([H:11])[H:12])[H:13])([H:8])([H:9])[H:10]"
C       -1.57995260       0.63054717      -0.44314059
C       -0.94679076      -0.92731841       0.68351988
N       -0.13259835       0.27312133       0.55008731
C        1.30471229      -0.10194424       0.14521267
N        1.35688388      -1.33360289      -0.16761921
C        2.24389873       0.90497389      -0.28528430
N        3.08716532       1.66314334      -0.47406255
H       -1.06169352       1.33928352      -1.09933322
H       -2.32970622       1.13541291       0.15600079
H       -2.09182981      -0.06546138      -1.09816079
H       -0.94817665      -1.70015076      -0.07375881
H       -0.93511489      -1.30220693       1.70740384
H       -0.08011429       1.02774486       1.20920399
H        2.11331690      -1.54354241      -0.81006901
14
Frame=7 idx=010218 GeodesicLength=0.8462295900900314 rxn_smarts="[C:1]([C:2]([N:3](/[C:4](=[N:5]/[H:14])[C:6]#[N:7])[H:13])([H:11])[H:12])([H:8])([H:9])[H:10]>>[C:1]([N:3]([C:2]([N:5]([C+:4]=[C:6]=[N-:7])[H:14])([H:11])[H:12])[H:13])([H:8])([H:9])[H:10]"
C       -1.60113541       0.62205774      -0.43284734
C       -0.91571809      -0.93332963       0.64329369
N       -0.14474792       0.29178466       0.55828409
C        1.32870437      -0.07967215       0.17945474
N        1.35883237      -1.31667545      -0.11804458
C        2.27187820       0.90398774      -0.29209989
N        3.12856327       1.64154094      -0.50191302
H       -1.08811442       1.30349467      -1.12117240
H       -2.32579707       1.15684322       0.17258339
H       -2.16002895      -0.06187443      -1.06301714
H       -0.93264776      -1.68766294      -0.13235740
H       -0.92058127      -1.33111839       1.65845407
H       -0.09644121       1.04106345       1.22241277
H        2.09723389      -1.55043943      -0.77303098
14
Frame=8 idx=010218 GeodesicLength=0.9667027727952756 rxn_smarts="[C:1]([C:2]([N:3](/[C:4](=[N:5]/[H:14])[C:6]#[N:7])[H:13])([H:11])[H:12])([H:8])([H:9])[H:10]>>[C:1]([N:3]([C:2]([N:5]([C+:4]=[C:6]=[N-:7])[H:14])([H:11])[H:12])[H:13])([H:8])([H:9])[H:10]"
C       -1.62370298       0.61279781      -0.42206078
C       -0.88429059      -0.93685171       0.60255835
N       -0.15761207       0.31001631       0.56564352
C        1.35198659      -0.05718497       0.21154708
N        1.35944173      -1.29837922      -0.07326020
C        2.30127527       0.90143201      -0.29645438
N        3.17134568       1.61736286      -0.52607095
H       -1.11735664       1.26466319      -1.14308530
H       -2.32220204       1.17879546       0.18715223
H       -2.22811390      -0.06024991      -1.02268847
H       -0.91550988      -1.67290778      -0.19026126
H       -0.90537650      -1.35738451       1.60826907
H       -0.11270157       1.05406024       1.23456078
H        2.08281690      -1.55616978      -0.73584971
14
Frame=9 idx=010218 GeodesicLength=1.0871253644781016 rxn_smarts="[C:1]([C:2]([N:3](/[C:4](=[N:5]/[H:14])[C:6]#[N:7])[H:13])([H:11])[H:12])([H:8])([H:9])[H:10]>>[C:1]([N:3]([C:2]([N:5]([C+:4]=[C:6]=[N-:7])[H:14])([H:11])[H:12])[H:13])([H:8])([H:9])[H:10]"
C       -1.64752252       0.60267876      -0.41072175
C       -0.85271095      -0.93765300       0.56161555
N       -0.17118675       0.32793462       0.57219968
C        1.37462172      -0.03463517       0.24152990
N        1.35870641      -1.27895444      -0.03318736
C        2.33224873       0.89742143      -0.29822774
N        3.21571049       1.59069054      -0.54628420
H       -1.14961094       1.22304260      -1.16455353
H       -2.31931746       1.20069277       0.19932864
H       -2.29488521      -0.06096892      -0.97759182
H       -0.89721327      -1.65581569      -0.24711710
H       -0.88950032      -1.38074409       1.55713585
H       -0.12877818       1.06699382       1.24546029
H        2.06943823      -1.56068323      -0.69958640
14
Frame=10 idx=010218 GeodesicLength=1.2075089172878126 rxn_smarts="[C:1]([C:2]([N:3](/[C:4](=[N:5]/[H:14])[C:6]#[N:7])[H:13])([H:11])[H:12])([H:8])([H:9])[H:10]>>[C:1]([N:3]([C:2]([N:5]([C+:4]=[C:6]=[N-:7])[H:14])([H:11])[H:12])[H:13])([H:8])([H:9])[H:10]"
C       -1.67252150       0.59163238      -0.39885001
C       -0.82110932      -0.93561578       0.52078156
N       -0.18542033       0.34570911       0.57793212
C        1.39670614      -0.01218033       0.26932441
N        1.35665523      -1.25856659       0.00219122
C        2.36492641       0.89199941      -0.29753906
N        3.26199449       1.56157735      -0.56201148
H       -1.18516914       1.17913582      -1.18511645
H       -2.31760067       1.22202202       0.20884339
H       -2.35952133      -0.06444326      -0.92824702
H       -0.87822269      -1.63648416      -0.30258151
H       -0.87284021      -1.40106614       1.50544577
H       -0.14446394       1.08029460       1.25489131
H        2.05658688      -1.56401443      -0.66506425
14
Frame=11 idx=010218 GeodesicLength=1.3278622044688067 rxn_smarts="[C:1]([C:2]([N:3](/[C:4](=[N:5]/[H:14])[C:6]#[N:7])[H:13])([H:11])[H:12])([H:8])([H:9])[H:10]>>[C:1]([N:3]([C:2]([N:5]([C+:4]=[C:6]=[N-:7])[H:14])([H:11])[H:12])[H:13])([H:8])([H:9])[H:10]"
C       -1.69855354       0.57957226      -0.38644571
C       -0.78963823      -0.93063462       0.48028578
N       -0.20026830       0.36347817       0.58280740
C        1.41836610       0.01006463       0.29495688
N        1.35335756      -1.23733607       0.03295902
C        2.39943744       0.88517986      -0.29445487
N        3.31041575       1.53008223      -0.57297070
H       -1.22412578       1.13342896      -1.20432432
H       -2.31745393       1.24214617       0.21563218
H       -2.42133351      -0.07094600      -0.87519998
H       -0.85895381      -1.61499861      -0.35636417
H       -0.85539629      -1.41817360       1.45349406
H       -0.15962037       1.09432350       1.26258326
H        2.04376692      -1.56618687      -0.63295883
14
Frame=12 idx=010218 GeodesicLength=1.4481930991618155 rxn_smarts="[C:1]([C:2]([N:3](/[C:4](=[N:5]/[H:14])[C:6]#[N:7])[H:13])([H:11])[H:12])([H:8])([H:9])[H:10]>>[C:1]([N:3]([C:2]([N:5]([C+:4]=[C:6]=[N-:7])[H:14])([H:11])[H:12])[H:13])([H:8])([H:9])[H:10]"
C       -1.72547460       0.56645032      -0.37352873
C       -0.75843410      -0.92267447       0.44025792
N       -0.21568982       0.38136970       0.58682470
C        1.43975561       0.03200733       0.31854952
N        1.34894109      -1.21534792       0.05929685
C        2.43588000       0.87694411      -0.28899680
N        3.36104850       1.49621321      -0.57925152
H       -1.26647197       1.08650823      -1.22177525
H       -2.31927904       1.26045949       0.21981437
H       -2.47984873      -0.08061574      -0.81904079
H       -0.83974421      -1.59147482      -0.40833555
H       -0.83722218      -1.43201354       1.40147510
H       -0.17414584       1.10943888       1.26832748
H        2.03068529      -1.56726477      -0.60361729
14
Frame=13 idx=010218 GeodesicLength=1.5684672460957425 rxn_smarts="[C:1]([C:2]([N:3](/[C:4](=[N:5]/[H:14])[C:6]#[N:7])[H:13])([H:11])[H:12])([H:8])([H:9])[H:10]>>[C:1]([N:3]([C:2]([N:5]([C+:4]=[C:6]=[N-:7])[H:14])([H:11])[H:12])[H:13])([H:8])([H:9])[H:10]"
C       -1.75307868       0.55217799      -0.36009671
C       -0.72764499      -0.91168600       0.40076757
N       -0.23163244       0.39947387       0.58991049
C        1.46100824       0.05356258       0.34020665
N        1.34350255      -1.19265535       0.08135614
C        2.47434757       0.86719613      -0.28118322
N        3.41383830       1.46013749      -0.58077436
H       -1.31205149       1.03868060      -1.23724830
H       -2.32327342       1.27639646       0.22165273
H       -2.53475744      -0.09349200      -0.76014151
H       -0.82090307      -1.56600032      -0.45836840
H       -0.81843583      -1.44244376       1.34952544
H       -0.18793345       1.12594077       1.27176212
H        2.01701415      -1.56728844      -0.57736865
14
Frame=14 idx=010218 GeodesicLength=1.6887160866339306 rxn_smarts="[C:1]([C:2]([N:3](/[C:4](=[N:5]/[H:14])[C:6]#[N:7])[H:13])([H:11])[H:12])([H:8])([H:9])[H:10]>>[C:1]([N:3]([C:2]([N:5]([C+:4]=[C:6]=[N-:7])[H:14])([H:11])[H:12])[H:13])([H:8])([H:9])[H:10]"
C       -1.78133658       0.53668231      -0.34616777
C       -0.69734898      -0.89767725       0.36187149
N       -0.24807305       0.41798006       0.59199649
C        1.48227270       0.07472462       0.35994537
N        1.33717447      -1.16920447       0.09920590
C        2.51489822       0.85587008      -0.27113677
N        3.46908034       1.42162281      -0.57728435
H       -1.36086580       0.99035206      -1.25055357
H       -2.32988894       1.28943847       0.22153541
H       -2.58594958      -0.10967780      -0.69892162
H       -0.80269573      -1.53876152      -0.50640692
H       -0.79898955      -1.44945305       1.29781176
H       -0.20089610       1.14434649       1.27253822
H        2.00261858      -1.56624280      -0.55443365
14
Frame=15 idx=010218 GeodesicLength=1.808925667910001 rxn_smarts="[C:1]([C:2]([N:3](/[C:4](=[N:5]/[H:14])[C:6]#[N:7])[H:13])([H:11])[H:12])([H:8])([H:9])[H:10]>>[C:1]([N:3]([C:2]([N:5]([C+:4]=[C:6]=[N-:7])[H:14])([H:11])[H:12])[H:13])([H:8])([H:9])[H:10]"
C       -1.81013091       0.51985975      -0.33171044
C       -0.66765447      -0.88063397       0.32354983
N       -0.26499426       0.43701910       0.59298991
C        1.50366228       0.09548349       0.37783150
N        1.33005781      -1.14491242       0.11290918
C        2.55757776       0.84283711      -0.25884692
N        3.52682624       1.38058612      -0.56856750
H       -1.41274583       0.94158258      -1.26161075
H       -2.33932160       1.29918127       0.21989562
H       -2.63334146      -0.12917294      -0.63555466
H       -0.78535918      -1.50986715      -0.55244048
H       -0.77893734      -1.45298394       1.24639569
H       -0.21296412       1.16507019       1.27019466
H        1.98732508      -1.56404917      -0.53503564
14
Frame=16 idx=010218 GeodesicLength=1.9290887546444127 rxn_smarts="[C:1]([C:2]([N:3](/[C:4](=[N:5]/[H:14])[C:6]#[N:7])[H:13])([H:11])[H:12])([H:8])([H:9])[H:10]>>[C:1]([N:3]([C:2]([N:5]([C+:4]=[C:6]=[N-:7])[H:14])([H:11])[H:12])[H:13])([H:8])([H:9])[H:10]"
C       -1.83934887       0.50162790      -0.31667506
C       -0.63865734      -0.86056287       0.28572581
N       -0.28240730       0.45670755       0.59286144
C        1.52527742       0.11584259       0.39400190
N        1.32225988      -1.11966524       0.12254078
C        2.60239380       0.82795946      -0.24417651
N        3.58699442       1.33686844      -0.55462549
H       -1.46746785       0.89233452      -1.27034924
H       -2.35172691       1.30533863       0.21718976
H       -2.67686230      -0.15191732      -0.57017869
H       -0.76906605      -1.47940548      -0.59656015
H       -0.75833481      -1.45306222       1.19525564
H       -0.22410831       1.18853244       1.26428892
H        1.97105422      -1.56059840      -0.51929912
