14
Frame=0 idx=004169 GeodesicLength=0.0 rxn_smarts="[C:1]1([H:7])([H:8])[C:2]([H:9])([H:10])[O:3][C:4]([H:11])([H:12])[C:5]([H:13])([H:14])[O:6]1>>[C:1]1([H:7])([H:8])[C:2]([H:9])([H:10])[O:3][C:4]([C:5]([H:12])([H:13])[H:14])([H:11])[O:6]1"
C       -0.88091905      -1.27134943       0.13628146
C       -1.24641524       0.13953256      -0.38087407
O       -0.63308264       1.15866570       0.47390216
C        0.64656820       1.00422187       0.64511989
C        1.45303226       0.23014200      -0.18243920
O        0.42036126      -1.40675947       0.51870403
H       -1.56669534      -1.49137024       0.97739224
H       -1.19904311      -1.94833229      -0.68601581
H       -0.92255963       0.33069445      -1.40712429
H       -2.31423472       0.33868168      -0.31723375
H        1.04670380       1.43237199       1.55759377
H        1.59874019       1.58610415      -0.33975857
H        2.43641134      -0.03449486       0.17776652
H        1.16113270      -0.06810807      -1.17331439
14
Frame=1 idx=004169 GeodesicLength=0.09947214728007132 rxn_smarts="[C:1]1([H:7])([H:8])[C:2]([H:9])([H:10])[O:3][C:4]([H:11])([H:12])[C:5]([H:13])([H:14])[O:6]1>>[C:1]1([H:7])([H:8])[C:2]([H:9])([H:10])[O:3][C:4]([C:5]([H:12])([H:13])[H:14])([H:11])[O:6]1"
C       -0.87929982      -1.25879329       0.13854578
C       -1.26168874       0.14401476      -0.38115046
O       -0.62499726       1.18506145       0.41924464
C        0.64663325       0.99043816       0.63683485
C        1.46820347       0.22302663      -0.18994287
O        0.42202629      -1.36650366       0.53819741
H       -1.56672088      -1.49596386       0.97233045
H       -1.16463759      -1.94554134      -0.68626555
H       -0.97861863       0.31821454      -1.42229413
H       -2.32749778       0.34079090      -0.27637411
H        1.01990506       1.39229534       1.57292388
H        1.61796667       1.58638341      -0.31718969
H        2.44725372      -0.04548237       0.18042485
H        1.18147223      -0.06794070      -1.18528505
14
Frame=2 idx=004169 GeodesicLength=0.1988704090518723 rxn_smarts="[C:1]1([H:7])([H:8])[C:2]([H:9])([H:10])[O:3][C:4]([H:11])([H:12])[C:5]([H:13])([H:14])[O:6]1>>[C:1]1([H:7])([H:8])[C:2]([H:9])([H:10])[O:3][C:4]([C:5]([H:12])([H:13])[H:14])([H:11])[O:6]1"
C       -0.87755463      -1.24664302       0.13931755
C       -1.27715069       0.14876096      -0.38034527
O       -0.61516294       1.20910392       0.36275855
C        0.64617627       0.97790840       0.62709998
C        1.48403847       0.21524641      -0.19578815
O        0.42334840      -1.32742101       0.55501795
H       -1.56547015      -1.50252429       0.96584912
H       -1.13065427      -1.94096604      -0.68828385
H       -1.03887761       0.30557770      -1.43531193
H       -2.33849662       0.34505730      -0.23076460
H        0.98998977       1.35648986       1.58448459
H        1.63769119       1.58526557      -0.29504277
H        2.45783505      -0.05689061       0.18690627
H        1.20428776      -0.06896513      -1.19589746
14
Frame=3 idx=004169 GeodesicLength=0.29815302280079425 rxn_smarts="[C:1]1([H:7])([H:8])[C:2]([H:9])([H:10])[O:3][C:4]([H:11])([H:12])[C:5]([H:13])([H:14])[O:6]1>>[C:1]1([H:7])([H:8])[C:2]([H:9])([H:10])[O:3][C:4]([C:5]([H:12])([H:13])[H:14])([H:11])[O:6]1"
C       -0.87569407      -1.23493447       0.13852193
C       -1.29282714       0.15377191      -0.37842829
O       -0.60370742       1.23060827       0.30413193
C        0.64522566       0.96652557       0.61592976
C        1.50056637       0.20675683      -0.19991384
O        0.42428840      -1.28948558       0.56946838
H       -1.56308072      -1.51112953       0.95764895
H       -1.09696068      -1.93455946      -0.69236774
H       -1.10377537       0.29289904      -1.44571424
H       -2.34672092       0.35157764      -0.18030017
H        0.95716134       1.32509166       1.59228132
H        1.65761691       1.58286735      -0.27344616
H        2.46814625      -0.06860669       0.19723607
H        1.22976140      -0.07138255      -1.20504790
14
Frame=4 idx=004169 GeodesicLength=0.3972882373343794 rxn_smarts="[C:1]1([H:7])([H:8])[C:2]([H:9])([H:10])[O:3][C:4]([H:11])([H:12])[C:5]([H:13])([H:14])[O:6]1>>[C:1]1([H:7])([H:8])[C:2]([H:9])([H:10])[O:3][C:4]([C:5]([H:12])([H:13])[H:14])([H:11])[O:6]1"
C       -0.87372686      -1.22370170       0.13606388
C       -1.30875099       0.15905348      -0.37536100
O       -0.59074727       1.24931058       0.24300075
C        0.64378000       0.95619941       0.60328645
C        1.51781268       0.19752177      -0.20223625
O        0.42480116      -1.25266107       0.58180158
H       -1.55966371      -1.52185475       0.94741023
H       -1.06344386      -1.92624061      -0.69882082
H       -1.17377781       0.28029135      -1.45292833
H       -2.35156321       0.36047147      -0.12486253
H        0.92156695       1.29819882       1.59628001
H        1.67746473       1.57931741      -0.25254327
H        2.47814762      -0.08049553       0.21151503
H        1.25810056      -0.07541063      -1.21260574
14
Frame=5 idx=004169 GeodesicLength=0.49621733022510156 rxn_smarts="[C:1]1([H:7])([H:8])[C:2]([H:9])([H:10])[O:3][C:4]([H:11])([H:12])[C:5]([H:13])([H:14])[O:6]1>>[C:1]1([H:7])([H:8])[C:2]([H:9])([H:10])[O:3][C:4]([C:5]([H:12])([H:13])[H:14])([H:11])[O:6]1"
C       -0.87166320      -1.21298197       0.13182778
C       -1.32496034       0.16461217      -0.37108003
O       -0.57638347       1.26482777       0.17900620
C        0.64181491       0.94685323       0.58908011
C        1.53578545       0.18751079      -0.20263869
O        0.42481814      -1.21690268       0.59223993
H       -1.55532491      -1.53478482       0.93476711
H       -1.02998931      -1.91587827      -0.70796585
H       -1.24932780       0.26790854      -1.45623253
H       -2.35229700       0.37187197      -0.06435683
H        0.88331784       1.27589439       1.59635586
H        1.69693284       1.57474764      -0.23253140
H        2.48774867      -0.09238708       0.22991637
H        1.28952817      -0.08129167      -1.21838802
14
Frame=6 idx=004169 GeodesicLength=0.5948767440839857 rxn_smarts="[C:1]1([H:7])([H:8])[C:2]([H:9])([H:10])[O:3][C:4]([H:11])([H:12])[C:5]([H:13])([H:14])[O:6]1>>[C:1]1([H:7])([H:8])[C:2]([H:9])([H:10])[O:3][C:4]([C:5]([H:12])([H:13])[H:14])([H:11])[O:6]1"
C       -0.86952432      -1.20281581       0.12568601
C       -1.34146950       0.17045224      -0.36549597
O       -0.56076736       1.27665337       0.11184648
C        0.63928350       0.93841462       0.57318768
C        1.55446726       0.17670827      -0.20097866
O        0.42426196      -1.18217559       0.60095266
H       -1.55016209      -1.54996940       0.91934417
H       -0.99653936      -1.90329481      -0.72012256
H       -1.33076868       0.25597429      -1.45470774
H       -2.34808829       0.38585973       0.00114245
H        0.84255062       1.25822743       1.59232781
H        1.71568205       1.56930533      -0.21368403
H        2.49680796      -0.10406307       0.25265887
H        1.32426626      -0.08927661      -1.22215716
14
Frame=7 idx=004169 GeodesicLength=0.6932018307417238 rxn_smarts="[C:1]1([H:7])([H:8])[C:2]([H:9])([H:10])[O:3][C:4]([H:11])([H:12])[C:5]([H:13])([H:14])[O:6]1>>[C:1]1([H:7])([H:8])[C:2]([H:9])([H:10])[O:3][C:4]([C:5]([H:12])([H:13])[H:14])([H:11])[O:6]1"
C       -0.86735028      -1.19324507       0.11752037
C       -1.35826924       0.17657447      -0.35852028
O       -0.54412680       1.28412884       0.04136103
C        0.63612197       0.93079499       0.55547850
C        1.57379808       0.16513237      -0.19710315
O        0.42305213      -1.14847280       0.60803370
H       -1.54425461      -1.56737198       0.90081948
H       -0.96314638      -1.88829242      -0.73556252
H       -1.41816750       0.24478050      -1.44727674
H       -2.33803781       0.40245723       0.07129665
H        0.79944988       1.24515719       1.58398420
H        1.73330604       1.56317320      -0.19634983
H        2.50512621      -0.11523240       0.27995448
H        1.36249831      -0.09958413      -1.22363587
14
Frame=8 idx=004169 GeodesicLength=0.7910937898081221 rxn_smarts="[C:1]1([H:7])([H:8])[C:2]([H:9])([H:10])[O:3][C:4]([H:11])([H:12])[C:5]([H:13])([H:14])[O:6]1>>[C:1]1([H:7])([H:8])[C:2]([H:9])([H:10])[O:3][C:4]([C:5]([H:12])([H:13])[H:14])([H:11])[O:6]1"
C       -0.86521718      -1.18432251       0.10728336
C       -1.37528433       0.18297935      -0.35010316
O       -0.52681663       1.28644814      -0.03228069
C        0.63226102       0.92385526       0.53588004
C        1.59362683       0.15287495      -0.19089715
O        0.42111387      -1.11584839       0.61348470
H       -1.53765713      -1.58681945       0.87908010
H       -0.93006234      -1.87073721      -0.75442242
H       -1.51099214       0.23469414      -1.43282877
H       -2.32129592       0.42161860       0.14525806
H        0.75434974       1.23645847       1.57118517
H        1.74929531       1.55660504      -0.18096182
H        2.51241440      -0.12550223       0.31188413
H        1.40426450      -0.11230416      -1.22256154
14
Frame=9 idx=004169 GeodesicLength=0.8886587606485099 rxn_smarts="[C:1]1([H:7])([H:8])[C:2]([H:9])([H:10])[O:3][C:4]([H:11])([H:12])[C:5]([H:13])([H:14])[O:6]1>>[C:1]1([H:7])([H:8])[C:2]([H:9])([H:10])[O:3][C:4]([C:5]([H:12])([H:13])[H:14])([H:11])[O:6]1"
C       -0.86319565      -1.17598577       0.09500454
C       -1.39239083       0.18958670      -0.34019254
O       -0.50934189       1.28297738      -0.10846029
C        0.62763894       0.91743608       0.51436810
C        1.61374626       0.14004615      -0.18231352
O        0.41850564      -1.08436494       0.61719300
H       -1.53041096      -1.60770245       0.85412329
H       -0.89764692      -1.85041846      -0.77651129
H       -1.60811893       0.22626762      -1.41031607
H       -2.29736567       0.44271029       0.22159072
H        0.70770041       1.23162486       1.55381171
H        1.76305451       1.54975026      -0.16799534
H        2.51839056      -0.13454161       0.34832812
H        1.44943455      -0.12738611      -1.21863043
14
Frame=10 idx=004169 GeodesicLength=0.9857610238977725 rxn_smarts="[C:1]1([H:7])([H:8])[C:2]([H:9])([H:10])[O:3][C:4]([H:11])([H:12])[C:5]([H:13])([H:14])[O:6]1>>[C:1]1([H:7])([H:8])[C:2]([H:9])([H:10])[O:3][C:4]([C:5]([H:12])([H:13])[H:14])([H:11])[O:6]1"
C       -0.86147239      -1.16831330       0.08099726
C       -1.40929843       0.19639730      -0.32896316
O       -0.49240743       1.27311635      -0.18575720
C        0.62227547       0.91127744       0.49126276
C        1.63376906       0.12695738      -0.17154709
O        0.41529442      -1.05425971       0.61898171
H       -1.52261196      -1.62942041       0.82670977
H       -0.86666126      -1.82772127      -0.80130590
H       -1.70699994       0.21996994      -1.37941869
H       -2.26641443       0.46534281       0.29790906
H        0.66042755       1.22983948       1.53233298
H        1.77399785       1.54304181      -0.15789335
H        2.52271491      -0.14188613       0.38856786
H        1.49738659      -0.14434168      -1.21187602
14
Frame=11 idx=004169 GeodesicLength=1.0825507556233431 rxn_smarts="[C:1]1([H:7])([H:8])[C:2]([H:9])([H:10])[O:3][C:4]([H:11])([H:12])[C:5]([H:13])([H:14])[O:6]1>>[C:1]1([H:7])([H:8])[C:2]([H:9])([H:10])[O:3][C:4]([C:5]([H:12])([H:13])[H:14])([H:11])[O:6]1"
C       -0.86020785      -1.16123979       0.06572769
C       -1.42565012       0.20334525      -0.31667617
O       -0.47674801       1.25688171      -0.26235419
C        0.61624623       0.90511072       0.46703115
C        1.65327665       0.11394029      -0.15897406
O        0.41168974      -1.02569529       0.61868809
H       -1.51438678      -1.65104074       0.79780903
H       -0.83782152      -1.80312674      -0.82786059
H       -1.80458191       0.21620336      -1.34056570
H       -2.22940765       0.48862456       0.37161371
H        0.61352863       1.22996728       1.50746471
H        1.78170456       1.53672056      -0.15092779
H        2.52515592      -0.14727201       0.43148985
H        1.54720210      -0.16241914      -1.20246574
14
Frame=12 idx=004169 GeodesicLength=1.1792287444616076 rxn_smarts="[C:1]1([H:7])([H:8])[C:2]([H:9])([H:10])[O:3][C:4]([H:11])([H:12])[C:5]([H:13])([H:14])[O:6]1>>[C:1]1([H:7])([H:8])[C:2]([H:9])([H:10])[O:3][C:4]([C:5]([H:12])([H:13])[H:14])([H:11])[O:6]1"
C       -0.85953240      -1.15466997       0.04978814
C       -1.44106236       0.21037559      -0.30372356
O       -0.46301027       1.23489101      -0.33631399
C        0.60967917       0.89869280       0.44231502
C        1.67185591       0.10132906      -0.14514394
O        0.40795632      -0.99878318       0.61626122
H       -1.50589205      -1.67165428       0.76860967
H       -0.81170738      -1.77738370      -0.85501661
H       -1.89768933       0.21512099      -1.29511491
H       -2.18796340       0.51168167       0.44034067
H        0.56800321       1.23078226       1.48027885
H        1.78601486       1.53094018      -0.14711475
H        2.52562033      -0.15064893       0.47566211
H        1.59772738      -0.18067352      -1.19082791
14
Frame=13 idx=004169 GeodesicLength=1.2759104358726672 rxn_smarts="[C:1]1([H:7])([H:8])[C:2]([H:9])([H:10])[O:3][C:4]([H:11])([H:12])[C:5]([H:13])([H:14])[O:6]1>>[C:1]1([H:7])([H:8])[C:2]([H:9])([H:10])[O:3][C:4]([C:5]([H:12])([H:13])[H:14])([H:11])[O:6]1"
C       -0.85951595      -1.14853831       0.03372072
C       -1.45525270       0.21744368      -0.29053429
O       -0.45157206       1.20827790      -0.40615777
C        0.60275972       0.89192399       0.41775560
C        1.68921820       0.08936368      -0.13060764
O        0.40435787      -0.97356503       0.61183881
H       -1.49730586      -1.69065193       0.74013263
H       -0.78859048      -1.75135024      -0.88173222
H       -1.98404963       0.21665932      -1.24497637
H       -2.14389326       0.53378023       0.50258630
H        0.52466623       1.23134949       1.45193845
H        1.78711065       1.52577677      -0.14622263
H        2.52420871      -0.15221894       0.51977238
H        1.64785856      -0.19825061      -1.17751397
14
Frame=14 idx=004169 GeodesicLength=1.3726472525243272 rxn_smarts="[C:1]1([H:7])([H:8])[C:2]([H:9])([H:10])[O:3][C:4]([H:11])([H:12])[C:5]([H:13])([H:14])[O:6]1>>[C:1]1([H:7])([H:8])[C:2]([H:9])([H:10])[O:3][C:4]([C:5]([H:12])([H:13])[H:14])([H:11])[O:6]1"
C       -0.86014145      -1.14276592       0.01792141
C       -1.46802752       0.22452506      -0.27747863
O       -0.44248799       1.17829547      -0.47107416
C        0.59564787       0.88479142       0.39384362
C        1.70519817       0.07817375      -0.11582451
O        0.40106391      -0.94996424       0.60565866
H       -1.48877495      -1.70770067       0.71305928
H       -0.76840154      -1.72574791      -0.90725476
H       -2.06248366       0.22052670      -1.19199636
H       -2.09876395       0.55445583       0.55782003
H        0.48396116       1.23105216       1.42341617
H        1.78538196       1.52118675      -0.14786147
H        2.52106012      -0.15232158       0.56282199
H        1.69676786      -0.21450680      -1.16305128
14
Frame=15 idx=004169 GeodesicLength=1.4694580929786147 rxn_smarts="[C:1]1([H:7])([H:8])[C:2]([H:9])([H:10])[O:3][C:4]([H:11])([H:12])[C:5]([H:13])([H:14])[O:6]1>>[C:1]1([H:7])([H:8])[C:2]([H:9])([H:10])[O:3][C:4]([C:5]([H:12])([H:13])[H:14])([H:11])[O:6]1"
C       -0.86135799      -1.13728736       0.00264291
C       -1.47933968       0.23161289      -0.26483786
O       -0.43565967       1.14608745      -0.53079887
C        0.58845853       0.87733274       0.37090411
C        1.71977016       0.06780070      -0.10112889
O        0.39817269      -0.92783517       0.59800651
H       -1.48043113      -1.72272556       0.68776339
H       -0.75087549      -1.70110821      -0.93113505
H       -2.13270609       0.22632370      -1.13771823
H       -2.05373633       0.57352893       0.60618480
H        0.44604019       1.22955807       1.39543590
H        1.78131102       1.51706642      -0.15159436
H        2.51640535      -0.15132433       0.60415347
H        1.74394844      -0.22903028      -1.14787785
14
Frame=16 idx=004169 GeodesicLength=1.5663375728374553 rxn_smarts="[C:1]1([H:7])([H:8])[C:2]([H:9])([H:10])[O:3][C:4]([H:11])([H:12])[C:5]([H:13])([H:14])[O:6]1>>[C:1]1([H:7])([H:8])[C:2]([H:9])([H:10])[O:3][C:4]([C:5]([H:12])([H:13])[H:14])([H:11])[O:6]1"
C       -0.86308886      -1.13205489      -0.01200575
C       -1.48923198       0.23870075      -0.25279629
O       -0.43087582       1.11256987      -0.58549588
C        0.58127323       0.86963300       0.34910041
C        1.73299477       0.05821527      -0.08671638
O        0.39572013      -0.90700307       0.58916227
H       -1.47235969      -1.73581865       0.66434232
H       -0.73564947      -1.67776366      -0.95320680
H       -2.19511939       0.23366753      -1.08322090
H       -2.00953994       0.59097352       0.64824349
H        0.41085293       1.22680557       1.36845625
H        1.77537529       1.51329227      -0.15701796
H        2.51047698      -0.14957036       0.64346249
H        1.78917181      -0.24164715      -1.13230727
