15
Frame=0 idx=006499 GeodesicLength=0.0 rxn_smarts="[O:1]=[C:2]1[N:3]([H:8])[C:4]([H:9])([H:10])[C:5]([H:11])([H:12])[C:6]([H:13])([H:14])[N:7]1[H:15]>>[O:1]([C:2]1=[N:3][C:4]([H:9])([H:10])[C:5]([H:11])([H:12])[C:6]([H:13])([H:14])[N:7]1[H:15])[H:8]"
O        2.61289531      -0.78034198      -0.19071478
C        1.41650130      -0.31470473      -0.10984869
N        0.58072215      -1.31318390      -0.25379189
C       -0.85298819      -1.12620270      -0.24169476
C       -1.19268035       0.17547398       0.48807941
C       -0.32562120       1.33329150       0.00129071
N        1.07855770       0.96450378       0.10419525
H        1.81628600      -1.79913566      -0.34130591
H       -1.24870810      -1.10003444      -1.26467100
H       -1.33099040      -1.96983589       0.26059206
H       -1.03035248       0.03999346       1.56038794
H       -2.24452025       0.42729602       0.34042256
H       -0.49858119       2.21834954       0.61466810
H       -0.58384273       1.58770521      -1.03361779
H        1.80332248       1.65682580       0.06600884
15
Frame=1 idx=006499 GeodesicLength=0.030349286374521448 rxn_smarts="[O:1]=[C:2]1[N:3]([H:8])[C:4]([H:9])([H:10])[C:5]([H:11])([H:12])[C:6]([H:13])([H:14])[N:7]1[H:15]>>[O:1]([C:2]1=[N:3][C:4]([H:9])([H:10])[C:5]([H:11])([H:12])[C:6]([H:13])([H:14])[N:7]1[H:15])[H:8]"
O        2.61348451      -0.77467815      -0.21783037
C        1.41766320      -0.31724931      -0.08877161
N        0.58229161      -1.31634145      -0.24078251
C       -0.85103852      -1.12457892      -0.23885175
C       -1.19567686       0.17701531       0.48790572
C       -0.32635937       1.33341242       0.00282662
N        1.07689428       0.96440397       0.11090819
H        1.81996431      -1.80778173      -0.34836508
H       -1.23881865      -1.09748208      -1.26487566
H       -1.33359364      -1.96815472       0.25915545
H       -1.03875596       0.04328258       1.56124220
H       -2.24703956       0.42760330       0.33494693
H       -0.50078771       2.21988237       0.61385378
H       -0.58139584       1.58615241      -1.03339576
H        1.80316821       1.65451401       0.06203386
15
Frame=2 idx=006499 GeodesicLength=0.060600033396562863 rxn_smarts="[O:1]=[C:2]1[N:3]([H:8])[C:4]([H:9])([H:10])[C:5]([H:11])([H:12])[C:6]([H:13])([H:14])[N:7]1[H:15]>>[O:1]([C:2]1=[N:3][C:4]([H:9])([H:10])[C:5]([H:11])([H:12])[C:6]([H:13])([H:14])[N:7]1[H:15])[H:8]"
O        2.61307866      -0.76940845      -0.24001677
C        1.41896688      -0.31952044      -0.06966535
N        0.58382140      -1.31918471      -0.22911526
C       -0.84907496      -1.12288082      -0.23636597
C       -1.19827475       0.17840625       0.48791072
C       -0.32715038       1.33357484       0.00421610
N        1.07523355       0.96434737       0.11643742
H        1.82335664      -1.81632780      -0.35569339
H       -1.22954945      -1.09465027      -1.26512496
H       -1.33570351      -1.96657733       0.25744822
H       -1.04597407       0.04616894       1.56210193
H       -2.24926824       0.42768731       0.33044465
H       -0.50267458       2.22128470       0.61323273
H       -0.57970017       1.58486535      -1.03308058
H        1.80291297       1.65221507       0.05727051
15
Frame=3 idx=006499 GeodesicLength=0.09079180214225097 rxn_smarts="[O:1]=[C:2]1[N:3]([H:8])[C:4]([H:9])([H:10])[C:5]([H:11])([H:12])[C:6]([H:13])([H:14])[N:7]1[H:15]>>[O:1]([C:2]1=[N:3][C:4]([H:9])([H:10])[C:5]([H:11])([H:12])[C:6]([H:13])([H:14])[N:7]1[H:15])[H:8]"
O        2.61221495      -0.76472478      -0.25709852
C        1.42029586      -0.32145740      -0.05273790
N        0.58529544      -1.32174077      -0.21887184
C       -0.84713352      -1.12109741      -0.23426736
C       -1.20050598       0.17964964       0.48809964
C       -0.32803273       1.33380534       0.00549157
N        1.07355902       0.96438488       0.12078512
H        1.82650199      -1.82484334      -0.36314381
H       -1.22099341      -1.09151481      -1.26544366
H       -1.33736066      -1.96509424       0.25544977
H       -1.05202001       0.04862545       1.56297800
H       -2.25125062       0.42755519       0.32694300
H       -0.50428237       2.22256069       0.61287813
H       -0.57884087       1.58392455      -1.03262250
H        1.80255291       1.64996704       0.05156035
15
Frame=4 idx=006499 GeodesicLength=0.12096177615205414 rxn_smarts="[O:1]=[C:2]1[N:3]([H:8])[C:4]([H:9])([H:10])[C:5]([H:11])([H:12])[C:6]([H:13])([H:14])[N:7]1[H:15]>>[O:1]([C:2]1=[N:3][C:4]([H:9])([H:10])[C:5]([H:11])([H:12])[C:6]([H:13])([H:14])[N:7]1[H:15])[H:8]"
O        2.61117817      -0.76053980      -0.27035619
C        1.42160929      -0.32310416      -0.03756822
N        0.58672666      -1.32407327      -0.20976901
C       -0.84521593      -1.11924277      -0.23247834
C       -1.20246866       0.18078308       0.48842499
C       -0.32900025       1.33410175       0.00668497
N        1.07186968       0.96451034       0.12422464
H        1.82946086      -1.83339653      -0.37050432
H       -1.21301930      -1.08814202      -1.26582119
H       -1.33866459      -1.96367847       0.25322575
H       -1.05717237       0.05074404       1.56386685
H       -2.25306334       0.42726019       0.32420891
H       -0.50569530       2.22374396       0.61275078
H       -0.57865142       1.58328334      -1.03204774
H        1.80210651       1.64775028       0.04515812
15
Frame=5 idx=006499 GeodesicLength=0.1510408817637961 rxn_smarts="[O:1]=[C:2]1[N:3]([H:8])[C:4]([H:9])([H:10])[C:5]([H:11])([H:12])[C:6]([H:13])([H:14])[N:7]1[H:15]>>[O:1]([C:2]1=[N:3][C:4]([H:9])([H:10])[C:5]([H:11])([H:12])[C:6]([H:13])([H:14])[N:7]1[H:15])[H:8]"
O        2.61008968      -0.75677623      -0.28073280
C        1.42287899      -0.32450173      -0.02376856
N        0.58812054      -1.32622568      -0.20157650
C       -0.84331257      -1.11733371      -0.23092834
C       -1.20422280       0.18183347       0.48884618
C       -0.33003729       1.33445567       0.00781274
N        1.07016029       0.96471756       0.12696014
H        1.83224253      -1.84198899      -0.37772721
H       -1.20550758      -1.08459983      -1.26622947
H       -1.33967514      -1.96231306       0.25083584
H       -1.06163384       0.05260601       1.56475254
H       -2.25474012       0.42683575       0.32205700
H       -0.50696329       2.22486007       0.61279654
H       -0.57898395       1.58288068      -1.03137887
H        1.80158455       1.64555002       0.03828076
15
Frame=6 idx=006499 GeodesicLength=0.18114476312612354 rxn_smarts="[O:1]=[C:2]1[N:3]([H:8])[C:4]([H:9])([H:10])[C:5]([H:11])([H:12])[C:6]([H:13])([H:14])[N:7]1[H:15]>>[O:1]([C:2]1=[N:3][C:4]([H:9])([H:10])[C:5]([H:11])([H:12])[C:6]([H:13])([H:14])[N:7]1[H:15])[H:8]"
O        2.60898004      -0.75329724      -0.28919432
C        1.42411869      -0.32570565      -0.01096105
N        0.58949582      -1.32824669      -0.19400022
C       -0.84141462      -1.11538575      -0.22953280
C       -1.20584094       0.18283217       0.48932717
C       -0.33112597       1.33485638       0.00888983
N        1.06843758       0.96498034       0.12921899
H        1.83490928      -1.85065927      -0.38483218
H       -1.19831139      -1.08095078      -1.26664728
H       -1.34047090      -1.96097709       0.24835322
H       -1.06563274       0.05430109       1.56563519
H       -2.25633264       0.42632344       0.32028776
H       -0.50814079       2.22593681       0.61295651
H       -0.57967420       1.58265204      -1.03065635
H        1.80100278       1.64334019       0.03115552
15
Frame=7 idx=006499 GeodesicLength=0.21120035759832845 rxn_smarts="[O:1]=[C:2]1[N:3]([H:8])[C:4]([H:9])([H:10])[C:5]([H:11])([H:12])[C:6]([H:13])([H:14])[N:7]1[H:15]>>[O:1]([C:2]1=[N:3][C:4]([H:9])([H:10])[C:5]([H:11])([H:12])[C:6]([H:13])([H:14])[N:7]1[H:15])[H:8]"
O        2.60788199      -0.75008330      -0.29607138
C        1.42532589      -0.32674048       0.00105138
N        0.59086097      -1.33015701      -0.18694311
C       -0.83951711      -1.11340854      -0.22825718
C       -1.20734898       0.18379223       0.48985423
C       -0.33226035       1.33529931       0.00991848
N        1.06670310       0.96529530       0.13108433
H        1.83746666      -1.85937980      -0.39189223
H       -1.19138376      -1.07722875      -1.26706105
H       -1.34107520      -1.95966521       0.24581198
H       -1.06925463       0.05586969       1.56651542
H       -2.25785910       0.42574067       0.31882642
H       -0.50925214       2.22698811       0.61320023
H       -0.58066021       1.58256261      -1.02990003
H        1.80037287       1.64111517       0.02386251
15
Frame=8 idx=006499 GeodesicLength=0.2412599572235266 rxn_smarts="[O:1]=[C:2]1[N:3]([H:8])[C:4]([H:9])([H:10])[C:5]([H:11])([H:12])[C:6]([H:13])([H:14])[N:7]1[H:15]>>[O:1]([C:2]1=[N:3][C:4]([H:9])([H:10])[C:5]([H:11])([H:12])[C:6]([H:13])([H:14])[N:7]1[H:15])[H:8]"
O        2.60680138      -0.74706804      -0.30177495
C        1.42650457      -0.32763113       0.01245160
N        0.59222196      -1.33197950      -0.18025153
C       -0.83761222      -1.11141133      -0.22705618
C       -1.20877601       0.18472662       0.49041018
C       -0.33342928       1.33577676       0.01090421
N        1.06495729       0.96565091       0.13266262
H        1.83991521      -1.86815492      -0.39897505
H       -1.18464333      -1.07346531      -1.26745314
H       -1.34152325      -1.95836862       0.24324789
H       -1.07260300       0.05735798       1.56738937
H       -2.25933523       0.42510062       0.31757684
H       -0.51031742       2.22802525       0.61349413
H       -0.58185941       1.58257376      -1.02912728
H        1.79969873       1.63886695       0.01650129
15
Frame=9 idx=006499 GeodesicLength=0.27131036930168545 rxn_smarts="[O:1]=[C:2]1[N:3]([H:8])[C:4]([H:9])([H:10])[C:5]([H:11])([H:12])[C:6]([H:13])([H:14])[N:7]1[H:15]>>[O:1]([C:2]1=[N:3][C:4]([H:9])([H:10])[C:5]([H:11])([H:12])[C:6]([H:13])([H:14])[N:7]1[H:15])[H:8]"
O        2.60573654      -0.74421957      -0.30651744
C        1.42766030      -0.32840080       0.02339130
N        0.59358656      -1.33373544      -0.17380807
C       -0.83569178      -1.10940237      -0.22589482
C       -1.21014306       0.18564553       0.49098504
C       -0.33462483       1.33628279       0.01185310
N        1.06320199       0.96603657       0.13403047
H        1.84224896      -1.87695367      -0.40621068
H       -1.17802743      -1.06968673      -1.26781064
H       -1.34183810      -1.95708200       0.24068883
H       -1.07575394       0.05880207       1.56825834
H       -2.26077287       0.42441612       0.31646985
H       -0.51135083       2.22905591       0.61381906
H       -0.58321446       1.58265577      -1.02834988
H        1.79898296       1.63658581       0.00909554
15
Frame=10 idx=006499 GeodesicLength=0.3013593655497693 rxn_smarts="[O:1]=[C:2]1[N:3]([H:8])[C:4]([H:9])([H:10])[C:5]([H:11])([H:12])[C:6]([H:13])([H:14])[N:7]1[H:15]>>[O:1]([C:2]1=[N:3][C:4]([H:9])([H:10])[C:5]([H:11])([H:12])[C:6]([H:13])([H:14])[N:7]1[H:15])[H:8]"
O        2.60468855      -0.74151423      -0.31045843
C        1.42880019      -0.32906434       0.03398570
N        0.59496149      -1.33543833      -0.16752116
C       -0.83375038      -1.10738945      -0.22474069
C       -1.21146666       0.18655646       0.49157158
C       -0.33584037       1.33681155       0.01276350
N        1.06144038       0.96644709       0.13524301
H        1.84445563      -1.88574866      -0.41372676
H       -1.17149200      -1.06591824      -1.26811792
H       -1.34203710      -1.95580295       0.23816561
H       -1.07876618       0.06023382       1.56912486
H       -2.26218220       0.42369451       0.31545162
H       -0.51236328       2.23008922       0.61414608
H       -0.58467995       1.58277934      -1.02758543
H        1.79823187       1.63426421       0.00169842
15
Frame=11 idx=006499 GeodesicLength=0.33140218044057335 rxn_smarts="[O:1]=[C:2]1[N:3]([H:8])[C:4]([H:9])([H:10])[C:5]([H:11])([H:12])[C:6]([H:13])([H:14])[N:7]1[H:15]>>[O:1]([C:2]1=[N:3][C:4]([H:9])([H:10])[C:5]([H:11])([H:12])[C:6]([H:13])([H:14])[N:7]1[H:15])[H:8]"
O        2.60365539      -0.73893394      -0.31369482
C        1.42992545      -0.32963775       0.04433145
N        0.59635124      -1.33710268      -0.16130978
C       -0.83178130      -1.10538072      -0.22356238
C       -1.21275815       0.18746730       0.49216265
C       -0.33706811       1.33735697       0.01363343
N        1.05967484       0.96687353       0.13635379
H        1.84651430      -1.89449837      -0.42167797
H       -1.16499586      -1.06218612      -1.26835550
H       -1.34213025      -1.95452913       0.23571221
H       -1.08168849       0.06168320       1.56998835
H       -2.26356686       0.42294394       0.31447485
H       -0.51336495       2.23113446       0.61444462
H       -0.58621290       1.58291563      -1.02684925
H        1.79744565       1.63189368      -0.00565165
15
Frame=12 idx=006499 GeodesicLength=0.36144822912542884 rxn_smarts="[O:1]=[C:2]1[N:3]([H:8])[C:4]([H:9])([H:10])[C:5]([H:11])([H:12])[C:6]([H:13])([H:14])[N:7]1[H:15]>>[O:1]([C:2]1=[N:3][C:4]([H:9])([H:10])[C:5]([H:11])([H:12])[C:6]([H:13])([H:14])[N:7]1[H:15])[H:8]"
O        2.60266213      -0.73649132      -0.31620158
C        1.43102904      -0.33012023       0.05444614
N        0.59775414      -1.33872275      -0.15521313
C       -0.82978524      -1.10336944      -0.22237901
C       -1.21401336       0.18837432       0.49276079
C       -0.33831133       1.33792105       0.01447336
N        1.05790085       0.96732153       0.13734803
H        1.84843083      -1.90321923      -0.42998012
H       -1.15854965      -1.05847174      -1.26853793
H       -1.34211765      -1.95325899       0.23329664
H       -1.08450913       0.06312955       1.57084581
H       -2.26492333       0.42216233       0.31356278
H       -0.51435539       2.23218539       0.61473866
H       -0.58783218       1.58308216      -1.02611952
H        1.79662029       1.62947737      -0.01304091
15
Frame=13 idx=006499 GeodesicLength=0.39148985986756385 rxn_smarts="[O:1]=[C:2]1[N:3]([H:8])[C:4]([H:9])([H:10])[C:5]([H:11])([H:12])[C:6]([H:13])([H:14])[N:7]1[H:15]>>[O:1]([C:2]1=[N:3][C:4]([H:9])([H:10])[C:5]([H:11])([H:12])[C:6]([H:13])([H:14])[N:7]1[H:15])[H:8]"
O        2.60170129      -0.73417213      -0.31808689
C        1.43212013      -0.33051917       0.06439084
N        0.59917762      -1.34030960      -0.14916369
C       -0.82775937      -1.10136154      -0.22117120
C       -1.21524491       0.18928014       0.49336256
C       -0.33956505       1.33850063       0.01528398
N        1.05612685       0.96778794       0.13825705
H        1.85019640      -1.91188755      -0.43869247
H       -1.15211904      -1.05478721      -1.26866153
H       -1.34201720      -1.95199387       0.23093323
H       -1.08726549       0.06458954       1.57170334
H       -2.26626362       0.42135086       0.31268039
H       -0.51533939       2.23324534       0.61501698
H       -0.58951360       1.58326655      -1.02540794
H        1.79576538       1.62701006      -0.02044465
15
Frame=14 idx=006499 GeodesicLength=0.4215522292662074 rxn_smarts="[O:1]=[C:2]1[N:3]([H:8])[C:4]([H:9])([H:10])[C:5]([H:11])([H:12])[C:6]([H:13])([H:14])[N:7]1[H:15]>>[O:1]([C:2]1=[N:3][C:4]([H:9])([H:10])[C:5]([H:11])([H:12])[C:6]([H:13])([H:14])[N:7]1[H:15])[H:8]"
O        2.60077512      -0.73196150      -0.31944807
C        1.43321610      -0.33084728       0.07422292
N        0.60063432      -1.34187225      -0.14311838
C       -0.82569959      -1.09935798      -0.21992946
C       -1.21646718       0.19018861       0.49396787
C       -0.34082946       1.33909505       0.01607076
N        1.05436029       0.96826604       0.13911412
H        1.85181233      -1.92050033      -0.44783338
H       -1.14567826      -1.05113123      -1.26873188
H       -1.34183870      -1.95073233       0.22862845
H       -1.08999453       0.06606988       1.57257196
H       -2.26760541       0.42051800       0.31180391
H       -0.51633156       2.23431825       0.61527933
H       -0.59123937       1.58346611      -1.02472227
H        1.79488589       1.62448095      -0.02787588
15
Frame=15 idx=006499 GeodesicLength=0.4515967477593954 rxn_smarts="[O:1]=[C:2]1[N:3]([H:8])[C:4]([H:9])([H:10])[C:5]([H:11])([H:12])[C:6]([H:13])([H:14])[N:7]1[H:15]>>[O:1]([C:2]1=[N:3][C:4]([H:9])([H:10])[C:5]([H:11])([H:12])[C:6]([H:13])([H:14])[N:7]1[H:15])[H:8]"
O        2.59986396      -0.72986623      -0.32022033
C        1.43426865      -0.33108973       0.08396900
N        0.60209741      -1.34340155      -0.13707251
C       -0.82359705      -1.09736049      -0.21865447
C       -1.21765190       0.19109254       0.49456692
C       -0.34209212       1.33969756       0.01684345
N        1.05257912       0.96876477       0.13990693
H        1.85322749      -1.92902008      -0.45742766
H       -1.13920638      -1.04751018      -1.26872559
H       -1.34157156      -1.94947493       0.22635568
H       -1.09266928       0.06757114       1.57341300
H       -2.26889364       0.41964443       0.31092949
H       -0.51729904       2.23539368       0.61552967
H       -0.59300195       1.58366774      -1.02402142
H        1.79394631       1.62189132      -0.03539216
15
Frame=16 idx=006499 GeodesicLength=0.4816582285078146 rxn_smarts="[O:1]=[C:2]1[N:3]([H:8])[C:4]([H:9])([H:10])[C:5]([H:11])([H:12])[C:6]([H:13])([H:14])[N:7]1[H:15]>>[O:1]([C:2]1=[N:3][C:4]([H:9])([H:10])[C:5]([H:11])([H:12])[C:6]([H:13])([H:14])[N:7]1[H:15])[H:8]"
O        2.59900369      -0.72788917      -0.32046106
C        1.43532002      -0.33126318       0.09364324
N        0.60359528      -1.34490241      -0.13105774
C       -0.82146146      -1.09536416      -0.21735544
C       -1.21882699       0.19199635       0.49517107
C       -0.34336701       1.34031555       0.01759823
N        1.05080588       0.96927837       0.14063570
H        1.85449422      -1.93747401      -0.46740986
H       -1.13273274      -1.04390565      -1.26867427
H       -1.34122497      -1.94822295       0.22412642
H       -1.09531436       0.06908140       1.57426548
H       -2.27018346       0.41874781       0.31006894
H       -0.51827032       2.23647807       0.61577860
H       -0.59481807       1.58389180      -1.02333711
H        1.79298028       1.61923217      -0.04299221
