10
Frame=0 idx=003169 GeodesicLength=0.0 rxn_smarts="[N:1]([C@@:2]([C:3]#[C:4][H:10])([C:5]#[N:6])[H:9])([H:7])[H:8]>>[C:5]=[N:6][H:7].[N:1](=[C:2](/[C:3]#[C:4][H:10])[H:9])\[H:8]"
N       -1.12400744      -0.77536951      -0.38213969
C       -0.26807512      -0.61446347       0.56550348
C        1.08544032      -0.30059252       0.33938933
C        2.26439861      -0.14174405       0.20673552
C       -0.81077244       1.96095767       0.09448475
N       -0.84012067       1.90781854      -1.07033912
H       -0.95466343      -0.26106128      -1.24988625
H       -2.08979618      -0.94765658      -0.14873072
H       -0.56931933      -0.85990869       1.57869280
H        3.30691566       0.03201990       0.06628990
10
Frame=1 idx=003169 GeodesicLength=0.0803172852505074 rxn_smarts="[N:1]([C@@:2]([C:3]#[C:4][H:10])([C:5]#[N:6])[H:9])([H:7])[H:8]>>[C:5]=[N:6][H:7].[N:1](=[C:2](/[C:3]#[C:4][H:10])[H:9])\[H:8]"
N       -1.12600005      -0.76402602      -0.37763431
C       -0.27600724      -0.58513432       0.57805496
C        1.08700345      -0.30347165       0.34954963
C        2.26742050      -0.15932953       0.21308037
C       -0.79361043       1.98083294       0.07062707
N       -0.85792063       1.90718311      -1.09107120
H       -0.96753074      -0.21883129      -1.24610524
H       -2.08120892      -0.98651798      -0.14316329
H       -0.55830819      -0.90396602       1.57709151
H        3.30616226       0.03326077       0.06957049
10
Frame=2 idx=003169 GeodesicLength=0.15862616130822 rxn_smarts="[N:1]([C@@:2]([C:3]#[C:4][H:10])([C:5]#[N:6])[H:9])([H:7])[H:8]>>[C:5]=[N:6][H:7].[N:1](=[C:2](/[C:3]#[C:4][H:10])[H:9])\[H:8]"
N       -1.12767246      -0.75441785      -0.37393789
C       -0.28325373      -0.55935406       0.58964339
C        1.08829619      -0.30847947       0.35805910
C        2.26948720      -0.17423142       0.21823983
C       -0.77737940       1.99760564       0.05053836
N       -0.87398978       1.90627507      -1.10707011
H       -0.98078907      -0.17830596      -1.24273618
H       -2.06984154      -1.02690955      -0.13951699
H       -0.54998144      -0.93484722       1.57420160
H        3.30512402       0.03266482       0.07257889
10
Frame=3 idx=003169 GeodesicLength=0.2358056710308053 rxn_smarts="[N:1]([C@@:2]([C:3]#[C:4][H:10])([C:5]#[N:6])[H:9])([H:7])[H:8]>>[C:5]=[N:6][H:7].[N:1](=[C:2](/[C:3]#[C:4][H:10])[H:9])\[H:8]"
N       -1.12951731      -0.74601565      -0.37081149
C       -0.28978214      -0.53633190       0.59999838
C        1.08943521      -0.31523063       0.36467124
C        2.27103266      -0.18796878       0.22177769
C       -0.76170036       2.01202623       0.03311260
N       -0.88891606       1.90536181      -1.11961556
H       -0.99494946      -0.13925265      -1.23975477
H       -2.05609287      -1.06804905      -0.13706831
H       -0.54362146      -0.95603807       1.57102957
H        3.30411180       0.03149868       0.07666066
10
Frame=4 idx=003169 GeodesicLength=0.3123179227917438 rxn_smarts="[N:1]([C@@:2]([C:3]#[C:4][H:10])([C:5]#[N:6])[H:9])([H:7])[H:8]>>[C:5]=[N:6][H:7].[N:1](=[C:2](/[C:3]#[C:4][H:10])[H:9])\[H:8]"
N       -1.13153835      -0.73834920      -0.36802703
C       -0.29578124      -0.51509567       0.60944975
C        1.09034931      -0.32288435       0.37016812
C        2.27217489      -0.20092703       0.22449922
C       -0.74674450       2.02481335       0.01747064
N       -0.90316732       1.90462470      -1.12970173
H       -1.00974158      -0.10142880      -1.23708023
H       -2.03989109      -1.10957490      -0.13578735
H       -0.53872502      -0.97061660       1.56799114
H        3.30306490       0.02943851       0.08101748
10
Frame=5 idx=003169 GeodesicLength=0.3884187765039018 rxn_smarts="[N:1]([C@@:2]([C:3]#[C:4][H:10])([C:5]#[N:6])[H:9])([H:7])[H:8]>>[C:5]=[N:6][H:7].[N:1](=[C:2](/[C:3]#[C:4][H:10])[H:9])\[H:8]"
N       -1.13377528      -0.73123214      -0.36542976
C       -0.30140880      -0.49516143       0.61823775
C        1.09097410      -0.33096094       0.37502755
C        2.27294133      -0.21336512       0.22684361
C       -0.73272556       2.03639128       0.00315932
N       -0.91653007       1.90416206      -1.13798899
H       -1.02495914      -0.06472762      -1.23469534
H       -2.02127785      -1.15114842      -0.13558061
H       -0.53506991      -0.98054588       1.56539999
H        3.30183117       0.02658821       0.08502648
10
Frame=6 idx=003169 GeodesicLength=0.46423199258853093 rxn_smarts="[N:1]([C@@:2]([C:3]#[C:4][H:10])([C:5]#[N:6])[H:9])([H:7])[H:8]>>[C:5]=[N:6][H:7].[N:1](=[C:2](/[C:3]#[C:4][H:10])[H:9])\[H:8]"
N       -1.13622281      -0.72449705      -0.36289245
C       -0.30679654      -0.47616346       0.62658420
C        1.09127484      -0.33920873       0.37969915
C        2.27335180      -0.22552456       0.22922979
C       -0.71961631       2.04704374      -0.01012895
N       -0.92922627       1.90402001      -1.14488617
H       -1.04033974      -0.02903394      -1.23258437
H       -2.00017563      -1.19259895      -0.13648693
H       -0.53252543      -0.98698675       1.56332711
H        3.30027608       0.02294968       0.08813863
10
Frame=7 idx=003169 GeodesicLength=0.5398273005885509 rxn_smarts="[N:1]([C@@:2]([C:3]#[C:4][H:10])([C:5]#[N:6])[H:9])([H:7])[H:8]>>[C:5]=[N:6][H:7].[N:1](=[C:2](/[C:3]#[C:4][H:10])[H:9])\[H:8]"
N       -1.13898178      -0.71806259      -0.36028122
C       -0.31202071      -0.45789905       0.63460453
C        1.09122175      -0.34744704       0.38429693
C        2.27338889      -0.23753160       0.23157805
C       -0.70750472       2.05692400      -0.02257628
N       -0.94115935       1.90415853      -1.15071630
H       -1.05582095       0.00570555      -1.23074612
H       -1.97665218      -1.23365546      -0.13836844
H       -0.53085107      -0.99080707       1.56176933
H        3.29838012       0.01861471       0.09043953
10
Frame=8 idx=003169 GeodesicLength=0.6152876221619086 rxn_smarts="[N:1]([C@@:2]([C:3]#[C:4][H:10])([C:5]#[N:6])[H:9])([H:7])[H:8]>>[C:5]=[N:6][H:7].[N:1](=[C:2](/[C:3]#[C:4][H:10])[H:9])\[H:8]"
N       -1.14199287      -0.71184163      -0.35753771
C       -0.31714868      -0.44014642       0.64244210
C        1.09083759      -0.35563457       0.38917588
C        2.27310035      -0.24960886       0.23426903
C       -0.69614017       2.06621049      -0.03437957
N       -0.95302515       1.90466919      -1.15561340
H       -1.07109619       0.03959661      -1.22922332
H       -1.95049728      -1.27430654      -0.14138738
H       -0.53010553      -0.99240157       1.56077459
H        3.29606793       0.01346329       0.09147976
10
Frame=9 idx=003169 GeodesicLength=0.6905603767028007 rxn_smarts="[N:1]([C@@:2]([C:3]#[C:4][H:10])([C:5]#[N:6])[H:9])([H:7])[H:8]>>[C:5]=[N:6][H:7].[N:1](=[C:2](/[C:3]#[C:4][H:10])[H:9])\[H:8]"
N       -1.14565067      -0.70588844      -0.35444766
C       -0.32208915      -0.42294117       0.64992694
C        1.09011018      -0.36354559       0.39346713
C        2.27239085      -0.26163013       0.23575425
C       -0.68620444       2.07485390      -0.04552486
N       -0.96380708       1.90529122      -1.15995007
H       -1.08674098       0.07257080      -1.22796882
H       -1.92230744      -1.31384979      -0.14475232
H       -0.52945459      -0.99253720       1.56012230
H        3.29375331       0.00767639       0.09337312
10
Frame=10 idx=003169 GeodesicLength=0.7657248319288871 rxn_smarts="[N:1]([C@@:2]([C:3]#[C:4][H:10])([C:5]#[N:6])[H:9])([H:7])[H:8]>>[C:5]=[N:6][H:7].[N:1](=[C:2](/[C:3]#[C:4][H:10])[H:9])\[H:8]"
N       -1.14969725      -0.70020882      -0.35105939
C       -0.32698652      -0.40618603       0.65733776
C        1.08905991      -0.37135654       0.39806841
C        2.27132472      -0.27369692       0.23734112
C       -0.67715975       2.08292867      -0.05611364
N       -0.97426959       1.90612839      -1.16371171
H       -1.10198695       0.10467876      -1.22710535
H       -1.89186739      -1.35227853      -0.14897358
H       -0.52944003      -0.99134708       1.55996578
H        3.29102285       0.00133809       0.09425062
10
Frame=11 idx=003169 GeodesicLength=0.8407784320990433 rxn_smarts="[N:1]([C@@:2]([C:3]#[C:4][H:10])([C:5]#[N:6])[H:9])([H:7])[H:8]>>[C:5]=[N:6][H:7].[N:1](=[C:2](/[C:3]#[C:4][H:10])[H:9])\[H:8]"
N       -1.15413811      -0.69487953      -0.34733528
C       -0.33187116      -0.38988812       0.66472087
C        1.08768533      -0.37899191       0.40303032
C        2.26988796      -0.28575453       0.23900680
C       -0.66920758       2.09040662      -0.06610100
N       -0.98413242       1.90705949      -1.16703897
H       -1.11667858       0.13588726      -1.22670537
H       -1.85944861      -1.38920278      -0.15390323
H       -0.52994570      -0.98919430       1.56026413
H        3.28784887      -0.00544221       0.09406173
10
Frame=12 idx=003169 GeodesicLength=0.9158133386374255 rxn_smarts="[N:1]([C@@:2]([C:3]#[C:4][H:10])([C:5]#[N:6])[H:9])([H:7])[H:8]>>[C:5]=[N:6][H:7].[N:1](=[C:2](/[C:3]#[C:4][H:10])[H:9])\[H:8]"
N       -1.15896587      -0.68997022      -0.34328442
C       -0.33669039      -0.37400372       0.67205068
C        1.08607704      -0.38642470       0.40826097
C        2.26817764      -0.29787319       0.24055328
C       -0.66228498       2.09733591      -0.07555482
N       -0.99388815       1.90810277      -1.16996005
H       -1.13072047       0.16619932      -1.22690327
H       -1.82531226      -1.42438090      -0.15939599
H       -0.53082479      -0.98623054       1.56099795
H        3.28443223      -0.01275474       0.09323566
10
Frame=13 idx=003169 GeodesicLength=0.9906395126379364 rxn_smarts="[N:1]([C@@:2]([C:3]#[C:4][H:10])([C:5]#[N:6])[H:9])([H:7])[H:8]>>[C:5]=[N:6][H:7].[N:1](=[C:2](/[C:3]#[C:4][H:10])[H:9])\[H:8]"
N       -1.16445805      -0.68554370      -0.33875110
C       -0.34106262      -0.35861633       0.67885304
C        1.08440286      -0.39359761       0.41227140
C        2.26618028      -0.30996282       0.23970150
C       -0.65710395       2.10354733      -0.08451848
N       -1.00329111       1.90901270      -1.17272216
H       -1.14498804       0.19559176      -1.22757794
H       -1.79047798      -1.45691247      -0.16431340
H       -0.53085914      -0.98281198       1.56166386
H        3.28165776      -0.02070689       0.09539328
10
Frame=14 idx=003169 GeodesicLength=1.0654926235715199 rxn_smarts="[N:1]([C@@:2]([C:3]#[C:4][H:10])([C:5]#[N:6])[H:9])([H:7])[H:8]>>[C:5]=[N:6][H:7].[N:1](=[C:2](/[C:3]#[C:4][H:10])[H:9])\[H:8]"
N       -1.16993940      -0.68172542      -0.33405782
C       -0.34548034      -0.34360717       0.68578099
C        1.08256070      -0.40029853       0.41727130
C        2.26402610      -0.32205089       0.23984075
C       -0.65330432       2.10923820      -0.09275114
N       -1.01257832       1.90996257      -1.17516390
H       -1.15780360       0.22406706      -1.22915400
H       -1.75441289      -1.48736651      -0.16985925
H       -0.53151029      -0.97889702       1.56278335
H        3.27844237      -0.02932229       0.09530971
10
Frame=15 idx=003169 GeodesicLength=1.1403032943025475 rxn_smarts="[N:1]([C@@:2]([C:3]#[C:4][H:10])([C:5]#[N:6])[H:9])([H:7])[H:8]>>[C:5]=[N:6][H:7].[N:1](=[C:2](/[C:3]#[C:4][H:10])[H:9])\[H:8]"
N       -1.17516938      -0.67851812      -0.32930518
C       -0.34991788      -0.32889842       0.69278380
C        1.08061556      -0.40641931       0.42343353
C        2.26177038      -0.33429094       0.24127274
C       -0.65101791       2.11437039      -0.10029976
N       -1.02225064       1.91092653      -1.17718145
H       -1.16888293       0.25165952      -1.23176652
H       -1.71720437      -1.51551734      -0.17594722
H       -0.53272910      -0.97448111       1.56423019
H        3.27478626      -0.03883122       0.09277987
10
Frame=16 idx=003169 GeodesicLength=1.2151373398434024 rxn_smarts="[N:1]([C@@:2]([C:3]#[C:4][H:10])([C:5]#[N:6])[H:9])([H:7])[H:8]>>[C:5]=[N:6][H:7].[N:1](=[C:2](/[C:3]#[C:4][H:10])[H:9])\[H:8]"
N       -1.18037331      -0.67604946      -0.32450206
C       -0.35403240      -0.31460119       0.69945908
C        1.07881371      -0.41216042       0.42948426
C        2.25957522      -0.34658191       0.24217828
C       -0.65022604       2.11893746      -0.10727054
N       -1.03265936       1.91192241      -1.17883320
H       -1.17885133       0.27836352      -1.23550585
H       -1.68009846      -1.54097436      -0.18158648
H       -0.53368753      -0.96975444       1.56574666
H        3.27153949      -0.04910162       0.09082985
