14
Frame=0 idx=007752 GeodesicLength=0.0 rxn_smarts="[C:1]([C:2]1=[C:3]([H:11])/[C:4](=[N:5]/[H:12])[O:6][C:7]1([H:13])[H:14])([H:8])([H:9])[H:10]>>[C:1]([C:2]([C:3](=[C:4]=[N:5][H:12])[H:11])=[C:7]([O:6][H:14])[H:13])([H:8])([H:9])[H:10]"
C       -2.08271200      -0.29007147      -0.43510981
C       -0.64935491      -0.04846936      -0.08677973
C        0.39541394      -0.85532577      -0.41566048
C        1.63915341      -0.32353665       0.03990059
N        2.83739396      -0.65298752      -0.14128561
O        1.29105545       0.85807698       0.82439910
C       -0.25236480       1.11729961       0.61369195
H       -2.73783591      -0.06421247       0.40800052
H       -2.38174263       0.35586591      -1.26250507
H       -2.24214961      -1.32526557      -0.73344706
H        0.34337947      -1.77491658      -0.97604376
H        3.48978407      -0.07160043       0.37229520
H       -0.67524964       1.38141065       1.57573143
H        1.02522923       1.69373267       0.21681275
14
Frame=1 idx=007752 GeodesicLength=0.08790768887117796 rxn_smarts="[C:1]([C:2]1=[C:3]([H:11])/[C:4](=[N:5]/[H:12])[O:6][C:7]1([H:13])[H:14])([H:8])([H:9])[H:10]>>[C:1]([C:2]([C:3](=[C:4]=[N:5][H:12])[H:11])=[C:7]([O:6][H:14])[H:13])([H:8])([H:9])[H:10]"
C       -2.08092536      -0.29323009      -0.42703746
C       -0.64760574      -0.05022770      -0.08086113
C        0.39928291      -0.85561076      -0.41713077
C        1.64265579      -0.32839200       0.03865647
N        2.84127178      -0.64551287      -0.15512681
O        1.28392541       0.87769628       0.82514858
C       -0.24964696       1.11649575       0.61747393
H       -2.73656553      -0.05261340       0.41161471
H       -2.37701282       0.33984301      -1.26553348
H       -2.24427382      -1.33278188      -0.70808791
H        0.34921213      -1.74947330      -1.01828141
H        3.49145485      -0.11287919       0.41160309
H       -0.67952071       1.38046290       1.57668692
H        1.00774808       1.70622325       0.19087526
14
Frame=2 idx=007752 GeodesicLength=0.175849080064167 rxn_smarts="[C:1]([C:2]1=[C:3]([H:11])/[C:4](=[N:5]/[H:12])[O:6][C:7]1([H:13])[H:14])([H:8])([H:9])[H:10]>>[C:1]([C:2]([C:3](=[C:4]=[N:5][H:12])[H:11])=[C:7]([O:6][H:14])[H:13])([H:8])([H:9])[H:10]"
C       -2.07882502      -0.29626564      -0.41948244
C       -0.64558046      -0.05160582      -0.07548462
C        0.40344479      -0.85514834      -0.41986255
C        1.64631371      -0.33309055       0.03705804
N        2.84539894      -0.63836067      -0.16652284
O        1.27656709       0.89719502       0.82686096
C       -0.24693090       1.11579037       0.62131096
H       -2.73491455      -0.04170883       0.41471806
H       -2.37233848       0.32415872      -1.26845828
H       -2.24572907      -1.33978291      -0.68379418
H        0.35474280      -1.72445082      -1.05654848
H        3.49223657      -0.15449522       0.44614105
H       -0.68421684       1.37922328       1.57754867
H        0.98983140       1.71854140       0.16651563
14
Frame=3 idx=007752 GeodesicLength=0.2639652550579753 rxn_smarts="[C:1]([C:2]1=[C:3]([H:11])/[C:4](=[N:5]/[H:12])[O:6][C:7]1([H:13])[H:14])([H:8])([H:9])[H:10]>>[C:1]([C:2]([C:3](=[C:4]=[N:5][H:12])[H:11])=[C:7]([O:6][H:14])[H:13])([H:8])([H:9])[H:10]"
C       -2.07651897      -0.29914345      -0.41247484
C       -0.64334157      -0.05263905      -0.07057885
C        0.40782548      -0.85415310      -0.42349406
C        1.65017518      -0.33784784       0.03533685
N        2.84980962      -0.63162943      -0.17593770
O        1.26901094       0.91652793       0.82969643
C       -0.24421333       1.11521980       0.62522917
H       -2.73303400      -0.03136142       0.41727189
H       -2.36777218       0.30888162      -1.27137770
H       -2.24668687      -1.34629869      -0.66060685
H        0.35994435      -1.70027191      -1.09121527
H        3.49256199      -0.19585673       0.47609890
H       -0.68936825       1.37788018       1.57828206
H        0.97160760       1.73069209       0.14376996
14
Frame=4 idx=007752 GeodesicLength=0.3517730227642671 rxn_smarts="[C:1]([C:2]1=[C:3]([H:11])/[C:4](=[N:5]/[H:12])[O:6][C:7]1([H:13])[H:14])([H:8])([H:9])[H:10]>>[C:1]([C:2]([C:3](=[C:4]=[N:5][H:12])[H:11])=[C:7]([O:6][H:14])[H:13])([H:8])([H:9])[H:10]"
C       -2.07380693      -0.30120536      -0.40673040
C       -0.64089705      -0.05342755      -0.06602853
C        0.41230333      -0.85284063      -0.42734677
C        1.65399771      -0.34315427       0.03370144
N        2.85408983      -0.62579612      -0.18426668
O        1.26103912       0.93475010       0.83443768
C       -0.24150163       1.11417753       0.62991144
H       -2.73117863      -0.02069539       0.41814189
H       -2.36213206       0.29484738      -1.27508369
H       -2.24734840      -1.35144711      -0.63936761
H        0.36440842      -1.67969166      -1.11921467
H        3.49292165      -0.23309614       0.49862374
H       -0.69516057       1.37557330       1.57957616
H        0.95326521       1.74200593       0.12364600
14
Frame=5 idx=007752 GeodesicLength=0.43959344298398234 rxn_smarts="[C:1]([C:2]1=[C:3]([H:11])/[C:4](=[N:5]/[H:12])[O:6][C:7]1([H:13])[H:14])([H:8])([H:9])[H:10]>>[C:1]([C:2]([C:3](=[C:4]=[N:5][H:12])[H:11])=[C:7]([O:6][H:14])[H:13])([H:8])([H:9])[H:10]"
C       -2.07102138      -0.30364506      -0.40067361
C       -0.63829357      -0.05388493      -0.06186629
C        0.41693323      -0.85101922      -0.43198433
C        1.65803495      -0.34834448       0.03184293
N        2.85876855      -0.61985814      -0.19115871
O        1.25291881       0.95351234       0.83943428
C       -0.23879518       1.11368186       0.63393325
H       -2.72891697      -0.01114208       0.41964874
H       -2.35728403       0.28043612      -1.27792892
H       -2.24746323      -1.35677574      -0.61812630
H        0.36902217      -1.65769219      -1.14764191
H        3.49275904      -0.27290002       0.52088020
H       -0.70129020       1.37413289       1.57988119
H        0.93462780       1.75349864       0.10375947
14
Frame=6 idx=007752 GeodesicLength=0.5274750676567868 rxn_smarts="[C:1]([C:2]1=[C:3]([H:11])/[C:4](=[N:5]/[H:12])[O:6][C:7]1([H:13])[H:14])([H:8])([H:9])[H:10]>>[C:1]([C:2]([C:3](=[C:4]=[N:5][H:12])[H:11])=[C:7]([O:6][H:14])[H:13])([H:8])([H:9])[H:10]"
C       -2.06801955      -0.30598440      -0.39493476
C       -0.63548836      -0.05401764      -0.05808208
C        0.42173873      -0.84869843      -0.43717058
C        1.66222014      -0.35351020       0.02963828
N        2.86370659      -0.61398256      -0.19706059
O        1.24461993       0.97241680       0.84523039
C       -0.23609529       1.11335269       0.63792478
H       -2.72635545      -0.00216747       0.42091953
H       -2.35260553       0.26639192      -1.28058061
H       -2.24707821      -1.36173202      -0.59768821
H        0.37345421      -1.63674855      -1.17361948
H        3.49204856      -0.31308968       0.54057719
H       -0.70770642       1.37272641       1.57990766
H        0.91556064       1.76504313       0.08493848
14
Frame=7 idx=007752 GeodesicLength=0.6152598956371494 rxn_smarts="[C:1]([C:2]1=[C:3]([H:11])/[C:4](=[N:5]/[H:12])[O:6][C:7]1([H:13])[H:14])([H:8])([H:9])[H:10]>>[C:1]([C:2]([C:3](=[C:4]=[N:5][H:12])[H:11])=[C:7]([O:6][H:14])[H:13])([H:8])([H:9])[H:10]"
C       -2.06485312      -0.30813327      -0.38962243
C       -0.63258981      -0.05402769      -0.05434483
C        0.42656311      -0.84633985      -0.44218960
C        1.66648373      -0.35917396       0.02785051
N        2.86871136      -0.60820067      -0.20241699
O        1.23601462       0.99114029       0.85217077
C       -0.23342998       1.11308240       0.64203414
H       -2.72382629       0.00671310       0.42155998
H       -2.34755048       0.25261825      -1.28341596
H       -2.24649368      -1.36622995      -0.57798722
H        0.37767017      -1.61672731      -1.19745260
H        3.49164067      -0.35253292       0.55685320
H       -0.71467860       1.37156570       1.57968039
H        0.89633831       1.77624588       0.06728065
14
Frame=8 idx=007752 GeodesicLength=0.7030613585772207 rxn_smarts="[C:1]([C:2]1=[C:3]([H:11])/[C:4](=[N:5]/[H:12])[O:6][C:7]1([H:13])[H:14])([H:8])([H:9])[H:10]>>[C:1]([C:2]([C:3](=[C:4]=[N:5][H:12])[H:11])=[C:7]([O:6][H:14])[H:13])([H:8])([H:9])[H:10]"
C       -2.06150029      -0.31018433      -0.38456805
C       -0.62954340      -0.05387106      -0.05072896
C        0.43147937      -0.84376504      -0.44732272
C        1.67084747      -0.36516830       0.02613230
N        2.87386859      -0.60256250      -0.20699306
O        1.22717764       1.00997435       0.85994478
C       -0.23078622       1.11293955       0.64612211
H       -2.72113823       0.01521769       0.42191647
H       -2.34243232       0.23914222      -1.28613485
H       -2.24556177      -1.37038514      -0.55894446
H        0.38177279      -1.59738184      -1.21959229
H        3.49107007      -0.39192439       0.57063359
H       -0.72201327       1.37064429       1.57907670
H        0.87675957       1.78732452       0.05045844
14
Frame=9 idx=007752 GeodesicLength=0.7908149315705024 rxn_smarts="[C:1]([C:2]1=[C:3]([H:11])/[C:4](=[N:5]/[H:12])[O:6][C:7]1([H:13])[H:14])([H:8])([H:9])[H:10]>>[C:1]([C:2]([C:3](=[C:4]=[N:5][H:12])[H:11])=[C:7]([O:6][H:14])[H:13])([H:8])([H:9])[H:10]"
C       -2.05799783      -0.31214597      -0.37975755
C       -0.62639672      -0.05360846      -0.04710876
C        0.43644031      -0.84108707      -0.45237875
C        1.67529334      -0.37165792       0.02475718
N        2.87911039      -0.59703948      -0.21096143
O        1.21805245       1.02886742       0.86862977
C       -0.22818090       1.11291852       0.65022373
H       -2.71841849       0.02353830       0.42188584
H       -2.33710070       0.22580877      -1.28886445
H       -2.24439788      -1.37423422      -0.54039021
H        0.38578145      -1.57850430      -1.24041043
H        3.49071860      -0.43112625       0.58186597
H       -0.72980906       1.37009828       1.57807707
H        0.85690505       1.79817238       0.03443202
14
Frame=10 idx=007752 GeodesicLength=0.8786370131543588 rxn_smarts="[C:1]([C:2]1=[C:3]([H:11])/[C:4](=[N:5]/[H:12])[O:6][C:7]1([H:13])[H:14])([H:8])([H:9])[H:10]>>[C:1]([C:2]([C:3](=[C:4]=[N:5][H:12])[H:11])=[C:7]([O:6][H:14])[H:13])([H:8])([H:9])[H:10]"
C       -2.05436414      -0.31411282      -0.37506033
C       -0.62314296      -0.05323374      -0.04351318
C        0.44145994      -0.83819365      -0.45755156
C        1.67981289      -0.37870300       0.02367197
N        2.88443208      -0.59183368      -0.21415819
O        1.20865375       1.04789413       0.87813515
C       -0.22559539       1.11308408       0.65425344
H       -2.71562424       0.03160787       0.42165293
H       -2.33170010       0.21246049      -1.29150462
H       -2.24296566      -1.37791588      -0.52209017
H        0.38975404      -1.55964759      -1.26050021
H        3.49051679      -0.47033109       0.59106609
H       -0.73802796       1.37006631       1.57658089
H        0.83679096       1.80885858       0.01901779
14
Frame=11 idx=007752 GeodesicLength=0.9664148623707352 rxn_smarts="[C:1]([C:2]1=[C:3]([H:11])/[C:4](=[N:5]/[H:12])[O:6][C:7]1([H:13])[H:14])([H:8])([H:9])[H:10]>>[C:1]([C:2]([C:3](=[C:4]=[N:5][H:12])[H:11])=[C:7]([O:6][H:14])[H:13])([H:8])([H:9])[H:10]"
C       -2.05059198      -0.31619001      -0.37035068
C       -0.61978822      -0.05273096      -0.03992090
C        0.44654197      -0.83501110      -0.46290395
C        1.68432733      -0.38635264       0.02304800
N        2.88977385      -0.58690896      -0.21646985
O        1.19895284       1.06717827       0.88836768
C       -0.22302310       1.11349946       0.65811343
H       -2.71271414       0.03935543       0.42133517
H       -2.32629758       0.19887574      -1.29394948
H       -2.24119930      -1.38155792      -0.50381148
H        0.39378496      -1.54021838      -1.28043948
H        3.49047467      -0.51003004       0.59853490
H       -0.74667065       1.37070755       1.57440011
H        0.81642934       1.81938357       0.00404654
14
Frame=12 idx=007752 GeodesicLength=1.054201995212673 rxn_smarts="[C:1]([C:2]1=[C:3]([H:11])/[C:4](=[N:5]/[H:12])[O:6][C:7]1([H:13])[H:14])([H:8])([H:9])[H:10]>>[C:1]([C:2]([C:3](=[C:4]=[N:5][H:12])[H:11])=[C:7]([O:6][H:14])[H:13])([H:8])([H:9])[H:10]"
C       -2.04663750      -0.31833097      -0.36564617
C       -0.61628824      -0.05211864      -0.03630095
C        0.45172821      -0.83153361      -0.46843280
C        1.68893953      -0.39448398       0.02260605
N        2.89521244      -0.58226688      -0.21790348
O        1.18893801       1.08679590       0.89922932
C       -0.22048197       1.11413377       0.66185821
H       -2.70966179       0.04673606       0.42096609
H       -2.32084047       0.18524168      -1.29615165
H       -2.23905748      -1.38509909      -0.48570276
H        0.39790158      -1.52052583      -1.29993095
H        3.49029155      -0.55026788       0.60432361
H       -0.75570484       1.37189715       1.57163514
H        0.79566098       1.82982230      -0.01054967
14
Frame=13 idx=007752 GeodesicLength=1.1419904585856766 rxn_smarts="[C:1]([C:2]1=[C:3]([H:11])/[C:4](=[N:5]/[H:12])[O:6][C:7]1([H:13])[H:14])([H:8])([H:9])[H:10]>>[C:1]([C:2]([C:3](=[C:4]=[N:5][H:12])[H:11])=[C:7]([O:6][H:14])[H:13])([H:8])([H:9])[H:10]"
C       -2.04254161      -0.32053891      -0.36096993
C       -0.61268645      -0.05143880      -0.03258319
C        0.45697765      -0.82783265      -0.47401519
C        1.69357886      -0.40329088       0.02258700
N        2.90069158      -0.57788196      -0.21855476
O        1.17858805       1.10671587       0.91081902
C       -0.21796541       1.11497217       0.66552205
H       -2.70655256       0.05385083       0.42044582
H       -2.31526960       0.17148849      -1.29821193
H       -2.23662867      -1.38855322      -0.46771664
H        0.40207101      -1.50043874      -1.31907641
H        3.49035828      -0.59088214       0.60828049
H       -0.76518052       1.37372488       1.56823686
H        0.77455939       1.84010505      -0.02476318
14
Frame=14 idx=007752 GeodesicLength=1.229796707640345 rxn_smarts="[C:1]([C:2]1=[C:3]([H:11])/[C:4](=[N:5]/[H:12])[O:6][C:7]1([H:13])[H:14])([H:8])([H:9])[H:10]>>[C:1]([C:2]([C:3](=[C:4]=[N:5][H:12])[H:11])=[C:7]([O:6][H:14])[H:13])([H:8])([H:9])[H:10]"
C       -2.03828387      -0.32291128      -0.35620260
C       -0.60896051      -0.05066448      -0.02877256
C        0.46232497      -0.82378671      -0.47978516
C        1.69823518      -0.41276671       0.02298520
N        2.90621253      -0.57381291      -0.21822586
O        1.16786892       1.12706345       0.92304090
C       -0.21547416       1.11608495       0.66903114
H       -2.70333895       0.06060679       0.41991723
H       -2.30966438       0.15743609      -1.30002225
H       -2.23381101      -1.39204374      -0.44964844
H        0.40640295      -1.47945858      -1.33830799
H        3.49051965      -0.63236198       0.61065896
H       -0.77511052       1.37632701       1.56407140
H        0.75307920       1.85028811      -0.03873998
14
Frame=15 idx=007752 GeodesicLength=1.3176250450661715 rxn_smarts="[C:1]([C:2]1=[C:3]([H:11])/[C:4](=[N:5]/[H:12])[O:6][C:7]1([H:13])[H:14])([H:8])([H:9])[H:10]>>[C:1]([C:2]([C:3](=[C:4]=[N:5][H:12])[H:11])=[C:7]([O:6][H:14])[H:13])([H:8])([H:9])[H:10]"
C       -2.03381726      -0.32566936      -0.35105950
C       -0.60504302      -0.04969344      -0.02500474
C        0.46784575      -0.81908061      -0.48618487
C        1.70291042      -0.42277615       0.02354947
N        2.91183907      -0.57037247      -0.21636368
O        1.15680288       1.14810620       0.93555645
C       -0.21297134       1.11763410       0.67215613
H       -2.69983354       0.06660436       0.41987466
H       -2.30436175       0.14283341      -1.30119940
H       -2.23031716      -1.39584013      -0.43117942
H        0.41108319      -1.45655757      -1.35856108
H        3.49010171      -0.67560608       0.61236209
H       -0.78539273       1.37987458       1.55890708
H        0.73115377       1.86054315      -0.05285319
14
Frame=16 idx=007752 GeodesicLength=1.4054687008828377 rxn_smarts="[C:1]([C:2]1=[C:3]([H:11])/[C:4](=[N:5]/[H:12])[O:6][C:7]1([H:13])[H:14])([H:8])([H:9])[H:10]>>[C:1]([C:2]([C:3](=[C:4]=[N:5][H:12])[H:11])=[C:7]([O:6][H:14])[H:13])([H:8])([H:9])[H:10]"
C       -2.02915039      -0.32860116      -0.34582568
C       -0.60098108      -0.04862770      -0.02109978
C        0.47348576      -0.81401746      -0.49269062
C        1.70758772      -0.43350065       0.02452671
N        2.91749825      -0.56721988      -0.21345152
O        1.14529709       1.16967475       0.94870044
C       -0.21049622       1.11946768       0.67516104
H       -2.69622454       0.07220456       0.41982154
H       -2.29895546       0.12794872      -1.30212051
H       -2.22637258      -1.39968512      -0.41265980
H        0.41598782      -1.43268661      -1.37876324
H        3.48972985      -0.71991786       0.61228340
H       -0.79617146       1.38423798       1.55290103
H        0.70876525       1.87072276      -0.06678303
