12
Frame=0 idx=000200 GeodesicLength=0.0 rxn_smarts="[O:1]([C:2]([C@@:3]([O:4][H:11])([C:5]#[C:6][H:12])[H:10])([H:8])[H:9])[H:7]>>[C:3]([O:4][H:11])(=[C:5]=[C:6]([H:7])[H:12])[H:10].[O:1]=[C:2]([H:8])[H:9]"
O       -0.83743141      -1.33483813      -0.85577083
C       -1.11209476      -0.08941495      -0.76237832
C        0.12929260       1.02083142       0.33850028
O       -0.46303350       1.30258368       1.54892884
C        1.15035796       0.11394015       0.24303111
C        1.52375215      -1.05042174      -0.04393635
H        0.40222659      -1.47129938      -0.51991090
H       -1.91791123       0.20204287      -0.08044485
H       -1.03523352       0.51767056      -1.67480579
H        0.14346297       1.90809985      -0.28363983
H       -0.40072977       0.52805353       2.11485365
H        2.41734196      -1.64724781      -0.02442701
12
Frame=1 idx=000200 GeodesicLength=0.07264155690626557 rxn_smarts="[O:1]([C:2]([C@@:3]([O:4][H:11])([C:5]#[C:6][H:12])[H:10])([H:8])[H:9])[H:7]>>[C:3]([O:4][H:11])(=[C:5]=[C:6]([H:7])[H:12])[H:10].[O:1]=[C:2]([H:8])[H:9]"
O       -0.84944388      -1.33416162      -0.86208500
C       -1.12013953      -0.08649663      -0.77095764
C        0.12845114       1.02010089       0.33719970
O       -0.46646545       1.29144544       1.54991452
C        1.15642036       0.11885998       0.24116372
C        1.53040981      -1.04735039      -0.03827176
H        0.38612038      -1.48988657      -0.49744872
H       -1.93268328       0.20633752      -0.09711324
H       -1.03725268       0.51652174      -1.68546678
H        0.15152553       1.91474529      -0.27465671
H       -0.37761540       0.52434417       2.12210798
H        2.43067299      -1.63445982      -0.02438607
12
Frame=2 idx=000200 GeodesicLength=0.145300199207249 rxn_smarts="[O:1]([C:2]([C@@:3]([O:4][H:11])([C:5]#[C:6][H:12])[H:10])([H:8])[H:9])[H:7]>>[C:3]([O:4][H:11])(=[C:5]=[C:6]([H:7])[H:12])[H:10].[O:1]=[C:2]([H:8])[H:9]"
O       -0.86095704      -1.33345152      -0.86904364
C       -1.12828939      -0.08370654      -0.77967505
C        0.12756752       1.01922514       0.33583956
O       -0.46998200       1.27987125       1.55079722
C        1.16257454       0.12382835       0.23926601
C        1.53708863      -1.04424045      -0.03254996
H        0.36987559      -1.50772937      -0.47569446
H       -1.94744752       0.20995084      -0.11370955
H       -1.03978122       0.51553425      -1.69605497
H        0.15942881       1.92126295      -0.26533228
H       -0.35355233       0.52164832       2.12957816
H        2.44347442      -1.62219323      -0.02342104
12
Frame=3 idx=000200 GeodesicLength=0.21797460018535858 rxn_smarts="[O:1]([C:2]([C@@:3]([O:4][H:11])([C:5]#[C:6][H:12])[H:10])([H:8])[H:9])[H:7]>>[C:3]([O:4][H:11])(=[C:5]=[C:6]([H:7])[H:12])[H:10].[O:1]=[C:2]([H:8])[H:9]"
O       -0.87211878      -1.33275930      -0.87642318
C       -1.13656748      -0.08105232      -0.78847301
C        0.12664320       1.01816602       0.33446666
O       -0.47360576       1.26791072       1.55158774
C        1.16876142       0.12873806       0.23748893
C        1.54378284      -1.04119896      -0.02651222
H        0.35361248      -1.52486589      -0.45517023
H       -1.96226061       0.21300634      -0.13026319
H       -1.04274508       0.51461911      -1.70656740
H        0.16725320       1.92757841      -0.25565351
H       -0.32867872       0.52018195       2.13729718
H        2.45592327      -1.61032415      -0.02177777
12
Frame=4 idx=000200 GeodesicLength=0.29066820258011067 rxn_smarts="[O:1]([C:2]([C@@:3]([O:4][H:11])([C:5]#[C:6][H:12])[H:10])([H:8])[H:9])[H:7]>>[C:3]([O:4][H:11])(=[C:5]=[C:6]([H:7])[H:12])[H:10].[O:1]=[C:2]([H:8])[H:9]"
O       -0.88306940      -1.33208915      -0.88410864
C       -1.14501598      -0.07850876      -0.79732881
C        0.12567800       1.01691776       0.33307676
O       -0.47727100       1.25546631       1.55232927
C        1.17498454       0.13360389       0.23575059
C        1.55060791      -1.03813441      -0.02038324
H        0.33735211      -1.54139417      -0.43607815
H       -1.97717359       0.21561265      -0.14678984
H       -1.04614867       0.51375157      -1.71701911
H        0.17494257       1.93370984      -0.24557437
H       -0.30297133       0.51994885       2.14522349
H        2.46808485      -1.59888437      -0.01909795
12
Frame=5 idx=000200 GeodesicLength=0.3633955467936791 rxn_smarts="[O:1]([C:2]([C@@:3]([O:4][H:11])([C:5]#[C:6][H:12])[H:10])([H:8])[H:9])[H:7]>>[C:3]([O:4][H:11])(=[C:5]=[C:6]([H:7])[H:12])[H:10].[O:1]=[C:2]([H:8])[H:9]"
O       -0.89393156      -1.33145543      -0.89197157
C       -1.15362825      -0.07605185      -0.80624859
C        0.12467834       1.01546599       0.33170075
O       -0.48098372       1.24246767       1.55305196
C        1.18123834       0.13839996       0.23409801
C        1.55763001      -1.03501961      -0.01424175
H        0.32099869      -1.55749316      -0.41821740
H       -1.99222379       0.21792097      -0.16340199
H       -1.04985584       0.51287705      -1.72746233
H        0.18251239       1.93965288      -0.23503120
H       -0.27654265       0.52099031       2.15333191
H        2.48010804      -1.58775478      -0.01560778
12
Frame=6 idx=000200 GeodesicLength=0.43628643786951604 rxn_smarts="[O:1]([C:2]([C@@:3]([O:4][H:11])([C:5]#[C:6][H:12])[H:10])([H:8])[H:9])[H:7]>>[C:3]([O:4][H:11])(=[C:5]=[C:6]([H:7])[H:12])[H:10].[O:1]=[C:2]([H:8])[H:9]"
O       -0.90480401      -1.33088148      -0.89993150
C       -1.16240576      -0.07365500      -0.81525977
C        0.12365028       1.01380935       0.33036724
O       -0.48477302       1.22883980       1.55377477
C        1.18754255       0.14310637       0.23258875
C        1.56492203      -1.03185405      -0.00813086
H        0.30442776      -1.57334871      -0.40127372
H       -2.00747027       0.22005509      -0.18022729
H       -1.05374443       0.51198021      -1.73795997
H        0.18997654       1.94543659      -0.22396145
H       -0.24947536       0.52334086       2.16160662
H        2.49215370      -1.57682905      -0.01159282
12
Frame=7 idx=000200 GeodesicLength=0.5088524046989175 rxn_smarts="[O:1]([C:2]([C@@:3]([O:4][H:11])([C:5]#[C:6][H:12])[H:10])([H:8])[H:9])[H:7]>>[C:3]([O:4][H:11])(=[C:5]=[C:6]([H:7])[H:12])[H:10].[O:1]=[C:2]([H:8])[H:9]"
O       -0.91572902      -1.33036625      -0.90768515
C       -1.17118801      -0.07133663      -0.82428602
C        0.12263733       1.01189556       0.32916194
O       -0.48860684       1.21462157       1.55453769
C        1.19381197       0.14763865       0.23143646
C        1.57241233      -1.02862956      -0.00201399
H        0.28749531      -1.58904569      -0.38488053
H       -2.02273019       0.22224945      -0.19737318
H       -1.05745444       0.51079083      -1.74848940
H        0.19745738       1.95089260      -0.21227210
H       -0.22240428       0.52709292       2.16987241
H        2.50429844      -1.56580345      -0.00800812
12
Frame=8 idx=000200 GeodesicLength=0.5814501110528827 rxn_smarts="[O:1]([C:2]([C@@:3]([O:4][H:11])([C:5]#[C:6][H:12])[H:10])([H:8])[H:9])[H:7]>>[C:3]([O:4][H:11])(=[C:5]=[C:6]([H:7])[H:12])[H:10].[O:1]=[C:2]([H:8])[H:9]"
O       -0.92679396      -1.32988674      -0.91524970
C       -1.18010417      -0.06902309      -0.83330556
C        0.12168352       1.00980030       0.32799525
O       -0.49230401       1.19967616       1.55536092
C        1.20021195       0.15211868       0.23035841
C        1.58031961      -1.02523775       0.00373584
H        0.27018635      -1.60465535      -0.36895496
H       -2.03815231       0.22452501      -0.21472997
H       -1.06120966       0.50947674      -1.75904678
H        0.20484155       1.95619617      -0.20000300
H       -0.19529890       0.53186892       2.17784708
H        2.51662002      -1.55485904      -0.00400753
12
Frame=9 idx=000200 GeodesicLength=0.6541383611264204 rxn_smarts="[O:1]([C:2]([C@@:3]([O:4][H:11])([C:5]#[C:6][H:12])[H:10])([H:8])[H:9])[H:7]>>[C:3]([O:4][H:11])(=[C:5]=[C:6]([H:7])[H:12])[H:10].[O:1]=[C:2]([H:8])[H:9]"
O       -0.93798589      -1.32946878      -0.92286223
C       -1.18911797      -0.06674864      -0.84247492
C        0.12070287       1.00743827       0.32693976
O       -0.49613125       1.18391639       1.55620740
C        1.20663097       0.15644164       0.22958358
C        1.58856262      -1.02178351       0.00937702
H        0.25239406      -1.62029015      -0.35345738
H       -2.05373575       0.22678011      -0.23251309
H       -1.06489135       0.50806386      -1.76973618
H        0.21213358       1.96125572      -0.18705061
H       -0.16772790       0.53830971       2.18610717
H        2.52916601      -1.54391461      -0.00012054
12
Frame=10 idx=000200 GeodesicLength=0.7268369974381093 rxn_smarts="[O:1]([C:2]([C@@:3]([O:4][H:11])([C:5]#[C:6][H:12])[H:10])([H:8])[H:9])[H:7]>>[C:3]([O:4][H:11])(=[C:5]=[C:6]([H:7])[H:12])[H:10].[O:1]=[C:2]([H:8])[H:9]"
O       -0.94935189      -1.32912262      -0.93032169
C       -1.19819340      -0.06449671      -0.85170050
C        0.11977562       1.00484483       0.32599919
O       -0.49991157       1.16737509       1.55711217
C        1.21312278       0.16061812       0.22913188
C        1.59721242      -1.01822763       0.01478625
H        0.23405332      -1.63600836      -0.33817502
H       -2.06941511       0.22915705      -0.25066683
H       -1.06843164       0.50646611      -1.78051609
H        0.21939075       1.96607040      -0.17341087
H       -0.14027366       0.54621400       2.19432892
H        2.54202239      -1.53289028       0.00343258
12
Frame=11 idx=000200 GeodesicLength=0.7993722788709099 rxn_smarts="[O:1]([C:2]([C@@:3]([O:4][H:11])([C:5]#[C:6][H:12])[H:10])([H:8])[H:9])[H:7]>>[C:3]([O:4][H:11])(=[C:5]=[C:6]([H:7])[H:12])[H:10].[O:1]=[C:2]([H:8])[H:9]"
O       -0.96097241      -1.32875128      -0.93729876
C       -1.20735979      -0.06219174      -0.86079063
C        0.11905025       1.00213689       0.32504101
O       -0.50322689       1.15012713       1.55807234
C        1.21985113       0.16483283       0.22866458
C        1.60642427      -1.01435686       0.01951050
H        0.21511607      -1.65170715      -0.32282391
H       -2.08515142       0.23183874      -0.26896377
H       -1.07193548       0.50461632      -1.79125806
H        0.22660909       1.97073022      -0.15922745
H       -0.11361982       0.55452987       2.20176175
H        2.55521501      -1.52180498       0.00731241
12
Frame=12 idx=000200 GeodesicLength=0.8719641835470203 rxn_smarts="[O:1]([C:2]([C@@:3]([O:4][H:11])([C:5]#[C:6][H:12])[H:10])([H:8])[H:9])[H:7]>>[C:3]([O:4][H:11])(=[C:5]=[C:6]([H:7])[H:12])[H:10].[O:1]=[C:2]([H:8])[H:9]"
O       -0.97278429      -1.32840367      -0.94424966
C       -1.21662294      -0.05987334      -0.86995407
C        0.11840164       0.99920340       0.32414699
O       -0.50637162       1.13196083       1.55907750
C        1.22670388       0.16895095       0.22837951
C        1.61613589      -1.01032548       0.02380597
H        0.19550206      -1.66752449      -0.30758317
H       -2.10097551       0.23460385      -0.28756867
H       -1.07542093       0.50267260      -1.80208100
H        0.23371940       1.97515566      -0.14434937
H       -0.08705081       0.56426655       2.20911329
H        2.56876326      -1.51068688       0.01126269
12
Frame=13 idx=000200 GeodesicLength=0.9444899477292067 rxn_smarts="[O:1]([C:2]([C@@:3]([O:4][H:11])([C:5]#[C:6][H:12])[H:10])([H:8])[H:9])[H:7]>>[C:3]([O:4][H:11])(=[C:5]=[C:6]([H:7])[H:12])[H:10].[O:1]=[C:2]([H:8])[H:9]"
O       -0.98487670      -1.32806625      -0.95076984
C       -1.22593795      -0.05750344      -0.87908777
C        0.11792583       0.99610863       0.32328800
O       -0.50915747       1.11294816       1.56012307
C        1.23376425       0.17304056       0.22822028
C        1.62641073      -1.00605424       0.02750775
H        0.17507099      -1.68343107      -0.29197666
H       -2.11683982       0.23773795      -0.30651336
H       -1.07871467       0.50043796      -1.81297813
H        0.24079235       1.97937085      -0.12879614
H       -0.06122850       0.57477059       2.21597384
H        2.58279095      -1.49935969       0.01500896
12
Frame=14 idx=000200 GeodesicLength=1.0170323849267953 rxn_smarts="[O:1]([C:2]([C@@:3]([O:4][H:11])([C:5]#[C:6][H:12])[H:10])([H:8])[H:9])[H:7]>>[C:3]([O:4][H:11])(=[C:5]=[C:6]([H:7])[H:12])[H:10].[O:1]=[C:2]([H:8])[H:9]"
O       -0.99723648      -1.32775103      -0.95702333
C       -1.23528014      -0.05509869      -0.88830576
C        0.11756162       0.99274954       0.32253704
O       -0.51175935       1.09283628       1.56120326
C        1.24098044       0.17701670       0.22833451
C        1.63722403      -1.00159499       0.03066739
H        0.15367640      -1.69948103      -0.27592319
H       -2.13275186       0.24117282      -0.32596491
H       -1.08170871       0.49795707      -1.82400996
H        0.24778522       1.98329421      -0.11241371
H       -0.03582198       0.58668674       2.22264613
H        2.59733081      -1.48778762       0.01825255
12
Frame=15 idx=000200 GeodesicLength=1.0895654277631195 rxn_smarts="[O:1]([C:2]([C@@:3]([O:4][H:11])([C:5]#[C:6][H:12])[H:10])([H:8])[H:9])[H:7]>>[C:3]([O:4][H:11])(=[C:5]=[C:6]([H:7])[H:12])[H:10].[O:1]=[C:2]([H:8])[H:9]"
O       -1.00998123      -1.32743360      -0.96253915
C       -1.24466423      -0.05259950      -0.89741878
C        0.11748577       0.98933259       0.32175126
O       -0.51377573       1.07199069       1.56226011
C        1.24852355       0.18107392       0.22850555
C        1.64872306      -0.99679064       0.03314472
H        0.13128854      -1.71557317      -0.25908399
H       -2.14865817       0.24517781      -0.34575077
H       -1.08445516       0.49505462      -1.83512816
H        0.25480310       1.98706424      -0.09546461
H       -0.01176156       0.59858107       2.22855329
H        2.61247204      -1.47587804       0.02117053
12
Frame=16 idx=000200 GeodesicLength=1.1620350687906265 rxn_smarts="[O:1]([C:2]([C@@:3]([O:4][H:11])([C:5]#[C:6][H:12])[H:10])([H:8])[H:9])[H:7]>>[C:3]([O:4][H:11])(=[C:5]=[C:6]([H:7])[H:12])[H:10].[O:1]=[C:2]([H:8])[H:9]"
O       -1.02302408      -1.32709151      -0.96767041
C       -1.25405479      -0.05003021      -0.90657311
C        0.11757991       0.98567385       0.32103144
O       -0.51543431       1.04999742       1.56332148
C        1.25628535       0.18507093       0.22883372
C        1.66085392      -0.99171756       0.03486377
H        0.10775745      -1.73173611      -0.24154830
H       -2.16453129       0.24959853      -0.36599782
H       -1.08688575       0.49183123      -1.84635916
H        0.26170848       1.99050966      -0.07769028
H        0.01155428       0.61155802       2.23407830
H        2.62819082      -1.46366424       0.02371039
