15
Frame=0 idx=007362 GeodesicLength=0.0 rxn_smarts="[C:1]1([H:8])([H:9])[C:2]([H:10])([H:11])[C:3]12[C:4]([H:12])([H:13])[C@@:5]1([H:14])[O:6][C@@:7]21[H:15]>>[C:1]1([H:8])([H:9])[C:2]([H:10])([H:11])[C:3]12[C:4]([H:12])([H:13])[C-:5]=[O+:6][C:7]2([H:14])[H:15]"
C       -1.41429489       0.30875927      -0.76191661
C       -1.42967012      -0.06357904       0.69651895
C       -0.14170593      -0.00511926      -0.05298089
C        0.82666853      -1.16152435      -0.25052645
C        2.12135873      -0.35272614       0.06221881
O        1.93046359       0.80204262      -0.74329693
C        0.95257954       0.98130273       0.23668445
H       -1.77794556      -0.41928986      -1.47549135
H       -1.61369733       1.33934309      -1.02814305
H       -1.63776885       0.71939623       1.41585239
H       -1.80976283      -1.03828928       0.97471312
H        0.67911099      -1.98953492       0.44163656
H        0.89599098      -1.54266592      -1.27137469
H        1.55954003       0.41823730       1.16125642
H        0.85913313       2.00364747       0.59484921
15
Frame=1 idx=007362 GeodesicLength=0.0514118386499344 rxn_smarts="[C:1]1([H:8])([H:9])[C:2]([H:10])([H:11])[C:3]12[C:4]([H:12])([H:13])[C@@:5]1([H:14])[O:6][C@@:7]21[H:15]>>[C:1]1([H:8])([H:9])[C:2]([H:10])([H:11])[C:3]12[C:4]([H:12])([H:13])[C-:5]=[O+:6][C:7]2([H:14])[H:15]"
C       -1.41266132       0.30933095      -0.76243563
C       -1.43195931      -0.06480319       0.69547430
C       -0.14192546      -0.00458207      -0.05008171
C        0.82484262      -1.16205490      -0.25262479
C        2.11814055      -0.35349681       0.05317792
O        1.93065149       0.80376814      -0.74154954
C        0.95228463       0.98141656       0.24278509
H       -1.77361033      -0.41808517      -1.47805975
H       -1.61132568       1.34022508      -1.02799197
H       -1.64228905       0.71709749       1.41530244
H       -1.81253138      -1.04006489       0.97112786
H        0.68399812      -1.98663140       0.44550274
H        0.88426964      -1.54902599      -1.27172324
H        1.58009380       0.41998541       1.17208557
H        0.85202168       2.00692080       0.58901071
15
Frame=2 idx=007362 GeodesicLength=0.10281156732365498 rxn_smarts="[C:1]1([H:8])([H:9])[C:2]([H:10])([H:11])[C:3]12[C:4]([H:12])([H:13])[C@@:5]1([H:14])[O:6][C@@:7]21[H:15]>>[C:1]1([H:8])([H:9])[C:2]([H:10])([H:11])[C:3]12[C:4]([H:12])([H:13])[C-:5]=[O+:6][C:7]2([H:14])[H:15]"
C       -1.41105288       0.30991909      -0.76298038
C       -1.43430271      -0.06603888       0.69438314
C       -0.14219454      -0.00404870      -0.04719688
C        0.82298142      -1.16257409      -0.25468624
C        2.11480826      -0.35416120       0.04421150
O        1.93075532       0.80551985      -0.73977542
C        0.95194509       0.98150743       0.24899452
H       -1.76927790      -0.41684461      -1.48066796
H       -1.60896039       1.34113025      -1.02785047
H       -1.64689073       0.71477178       1.41470574
H       -1.81535508      -1.04185283       0.96746711
H        0.68889683      -1.98366634       0.44934591
H        0.87252736      -1.55544684      -1.27187353
H        1.60126053       0.42177858       1.18268475
H        0.84485941       2.01000651       0.58323819
15
Frame=3 idx=007362 GeodesicLength=0.15420460191357283 rxn_smarts="[C:1]1([H:8])([H:9])[C:2]([H:10])([H:11])[C:3]12[C:4]([H:12])([H:13])[C@@:5]1([H:14])[O:6][C@@:7]21[H:15]>>[C:1]1([H:8])([H:9])[C:2]([H:10])([H:11])[C:3]12[C:4]([H:12])([H:13])[C-:5]=[O+:6][C:7]2([H:14])[H:15]"
C       -1.40947008       0.31052342      -0.76355262
C       -1.43670379      -0.06728619       0.69324331
C       -0.14251534      -0.00351907      -0.04432560
C        0.82108449      -1.16308157      -0.25670847
C        2.11136145      -0.35471827       0.03532025
O        1.93077166       0.80729872      -0.73797323
C        0.95155903       0.98157393       0.25531572
H       -1.76494649      -0.41556870      -1.48331819
H       -1.60660083       1.34205840      -1.02772059
H       -1.65157824       0.71241903       1.41405949
H       -1.81823683      -1.04365324       0.96372842
H        0.69380584      -1.98063815       0.45316949
H        0.86076444      -1.56192946      -1.27182098
H        1.62305554       0.42362122       1.19303754
H        0.83764917       2.01289993       0.57754547
15
Frame=4 idx=007362 GeodesicLength=0.2055989234986958 rxn_smarts="[C:1]1([H:8])([H:9])[C:2]([H:10])([H:11])[C:3]12[C:4]([H:12])([H:13])[C@@:5]1([H:14])[O:6][C@@:7]21[H:15]>>[C:1]1([H:8])([H:9])[C:2]([H:10])([H:11])[C:3]12[C:4]([H:12])([H:13])[C-:5]=[O+:6][C:7]2([H:14])[H:15]"
C       -1.40791340       0.31114369      -0.76415416
C       -1.43916618      -0.06854521       0.69205249
C       -0.14289013      -0.00299313      -0.04146699
C        0.81915144      -1.16357705      -0.25868892
C        2.10779777      -0.35516730       0.02650491
O        1.93069713       0.80910555      -0.73614092
C        0.95112477       0.98161430       0.26175202
H       -1.76061399      -0.41425793      -1.48601273
H       -1.60424618       1.34300934      -1.02760457
H       -1.65635618       0.71003923       1.41336061
H       -1.82117941      -1.04546617       0.95990900
H        0.69872441      -1.97754492       0.45697699
H        0.84898076      -1.56847467      -1.27156120
H        1.64549598       0.42551867       1.20312691
H        0.83039321       2.01559561       0.57194655
15
Frame=5 idx=007362 GeodesicLength=0.25700375283890875 rxn_smarts="[C:1]1([H:8])([H:9])[C:2]([H:10])([H:11])[C:3]12[C:4]([H:12])([H:13])[C@@:5]1([H:14])[O:6][C@@:7]21[H:15]>>[C:1]1([H:8])([H:9])[C:2]([H:10])([H:11])[C:3]12[C:4]([H:12])([H:13])[C-:5]=[O+:6][C:7]2([H:14])[H:15]"
C       -1.40638329       0.31177960      -0.76478686
C       -1.44169334      -0.06981599       0.69080835
C       -0.14332110      -0.00247091      -0.03862028
C        0.81718185      -1.16406029      -0.26062519
C        2.10411614      -0.35550682       0.01776661
O        1.93052852       0.81094103      -0.73427783
C        0.95064037       0.98162719       0.26830521
H       -1.75627853      -0.41291283      -1.48875388
H       -1.60189565       1.34398286      -1.02750454
H       -1.66122877       0.70763241       1.41260608
H       -1.82418581      -1.04729176       0.95600626
H        0.70365225      -1.97438450       0.46077265
H        0.83717653      -1.57508346      -1.27108985
H        1.66859556       0.42747490       1.21293616
H        0.82309527       2.01808857       0.56645709
15
Frame=6 idx=007362 GeodesicLength=0.3084204692941463 rxn_smarts="[C:1]1([H:8])([H:9])[C:2]([H:10])([H:11])[C:3]12[C:4]([H:12])([H:13])[C@@:5]1([H:14])[O:6][C@@:7]21[H:15]>>[C:1]1([H:8])([H:9])[C:2]([H:10])([H:11])[C:3]12[C:4]([H:12])([H:13])[C-:5]=[O+:6][C:7]2([H:14])[H:15]"
C       -1.40488014       0.31243110      -0.76545248
C       -1.44428944      -0.07109901       0.68950845
C       -0.14381088      -0.00195269      -0.03578414
C        0.81517492      -1.16453141      -0.26251445
C        2.10031499      -0.35573677       0.00910758
O        1.93026290       0.81280531      -0.73238027
C        0.95010352       0.98161038       0.27497899
H       -1.75193745      -0.41153323      -1.49154439
H       -1.59954817       1.34497914      -1.02742212
H       -1.66620134       0.70519785       1.41179294
H       -1.82725976      -1.04913058       0.95201650
H        0.70858744      -1.97115565       0.46455980
H        0.82535233      -1.58175709      -1.27040105
H        1.69237397       0.42949732       1.22244206
H        0.81575710       2.02037532       0.56109258
15
Frame=7 idx=007362 GeodesicLength=0.35985721781817853 rxn_smarts="[C:1]1([H:8])([H:9])[C:2]([H:10])([H:11])[C:3]12[C:4]([H:12])([H:13])[C@@:5]1([H:14])[O:6][C@@:7]21[H:15]>>[C:1]1([H:8])([H:9])[C:2]([H:10])([H:11])[C:3]12[C:4]([H:12])([H:13])[C-:5]=[O+:6][C:7]2([H:14])[H:15]"
C       -1.40340454       0.31309777      -0.76615290
C       -1.44695844      -0.07239434       0.68815034
C       -0.14436206      -0.00143871      -0.03295745
C        0.81313010      -1.16499029      -0.26435384
C        2.09639276      -0.35585589       0.00053250
O        1.92989709       0.81469894      -0.73044708
C        0.94951147       0.98156249       0.28177490
H       -1.74758861      -0.41011987      -1.49438661
H       -1.59720308       1.34599779      -1.02735957
H       -1.67127886       0.70273563       1.41091793
H       -1.83040485      -1.05098273       0.94793690
H        0.71352838      -1.96785681       0.46834230
H        0.81350987      -1.58849528      -1.26949029
H        1.71684879       0.43158855       1.23162322
H        0.80838198       2.02245277       0.55586964
15
Frame=8 idx=007362 GeodesicLength=0.4113164592142467 rxn_smarts="[C:1]1([H:8])([H:9])[C:2]([H:10])([H:11])[C:3]12[C:4]([H:12])([H:13])[C@@:5]1([H:14])[O:6][C@@:7]21[H:15]>>[C:1]1([H:8])([H:9])[C:2]([H:10])([H:11])[C:3]12[C:4]([H:12])([H:13])[C-:5]=[O+:6][C:7]2([H:14])[H:15]"
C       -1.40195638       0.31377954      -0.76688977
C       -1.44970441      -0.07370245       0.68673157
C       -0.14497705      -0.00092941      -0.03013846
C        0.81104689      -1.16543725      -0.26613985
C        2.09234866      -0.35586418      -0.00795655
O        1.92942815       0.81662207      -0.72847540
C        0.94886205       0.98148119       0.28869626
H       -1.74322869      -0.40867253      -1.49728328
H       -1.59485874       1.34703902      -1.02731836
H       -1.67646651       0.70024506       1.40997814
H       -1.83362514      -1.05284889       0.94376372
H        0.71847301      -1.96448719       0.47212320
H        0.80164964      -1.59529921      -1.26835179
H        1.74203619       0.43375631       1.24045612
H        0.80097234       2.02431792       0.55080447
15
Frame=9 idx=007362 GeodesicLength=0.46279441287203676 rxn_smarts="[C:1]1([H:8])([H:9])[C:2]([H:10])([H:11])[C:3]12[C:4]([H:12])([H:13])[C@@:5]1([H:14])[O:6][C@@:7]21[H:15]>>[C:1]1([H:8])([H:9])[C:2]([H:10])([H:11])[C:3]12[C:4]([H:12])([H:13])[C-:5]=[O+:6][C:7]2([H:14])[H:15]"
C       -1.40053579       0.31447645      -0.76766469
C       -1.45253126      -0.07502390       0.68524969
C       -0.14565834      -0.00042571      -0.02732594
C        0.80892457      -1.16587307      -0.26787001
C        2.08818390      -0.35576108      -0.01635470
O        1.92885265       0.81857450      -0.72646498
C        0.94815275       0.98136404       0.29574433
H       -1.73885523      -0.40719091      -1.50023710
H       -1.59251348       1.34810316      -1.02729970
H       -1.68176872       0.69772541       1.40897082
H       -1.83692483      -1.05472967       0.93949322
H        0.72341935      -1.96104599       0.47590647
H        0.78977368      -1.60217007      -1.26697967
H        1.76794777       0.43600772       1.24891581
H        0.79353298       2.02596912       0.54591646
15
Frame=10 idx=007362 GeodesicLength=0.5143026931647365 rxn_smarts="[C:1]1([H:8])([H:9])[C:2]([H:10])([H:11])[C:3]12[C:4]([H:12])([H:13])[C@@:5]1([H:14])[O:6][C@@:7]21[H:15]>>[C:1]1([H:8])([H:9])[C:2]([H:10])([H:11])[C:3]12[C:4]([H:12])([H:13])[C-:5]=[O+:6][C:7]2([H:14])[H:15]"
C       -1.39914301       0.31518810      -0.76847957
C       -1.45544346      -0.07635885       0.68370199
C       -0.14640875       0.00007237      -0.02451797
C        0.80676269      -1.16629732      -0.26954046
C        2.08389473      -0.35554589      -0.02465666
O        1.92816871       0.82055620      -0.72441030
C        0.94738024       0.98120980       0.30292188
H       -1.73446459      -0.40567544      -1.50325064
H       -1.59016639       1.34918983      -1.02730587
H       -1.68719157       0.69517655       1.40789225
H       -1.84030761      -1.05662513       0.93512183
H        0.72836543      -1.95753175       0.47969549
H        0.77788351      -1.60910743      -1.26536821
H        1.79460587       0.43834398       1.25697478
H        0.78606419       2.02740497       0.54122146
15
Frame=11 idx=007362 GeodesicLength=0.5658252209235978 rxn_smarts="[C:1]1([H:8])([H:9])[C:2]([H:10])([H:11])[C:3]12[C:4]([H:12])([H:13])[C@@:5]1([H:14])[O:6][C@@:7]21[H:15]>>[C:1]1([H:8])([H:9])[C:2]([H:10])([H:11])[C:3]12[C:4]([H:12])([H:13])[C-:5]=[O+:6][C:7]2([H:14])[H:15]"
C       -1.39777784       0.31591448      -0.76933584
C       -1.45844585      -0.07770796       0.68208595
C       -0.14723126       0.00056393      -0.02171209
C        0.80456026      -1.16671080      -0.27114718
C        2.07948123      -0.35521914      -0.03285224
O        1.92737360       0.82256622      -0.72230677
C        0.94654137       0.98101572       0.31023282
H       -1.73005299      -0.40412577      -1.50632674
H       -1.58781552       1.35029934      -1.02733793
H       -1.69274119       0.69259747       1.40673939
H       -1.84377869      -1.05853616       0.93064521
H        0.73330671      -1.95394507       0.48349326
H        0.76598260      -1.61611019      -1.26351192
H        1.82202930       0.44077363       1.26459629
H        0.77856827       2.02862431       0.53673781
15
Frame=12 idx=007362 GeodesicLength=0.6173687917783601 rxn_smarts="[C:1]1([H:8])([H:9])[C:2]([H:10])([H:11])[C:3]12[C:4]([H:12])([H:13])[C@@:5]1([H:14])[O:6][C@@:7]21[H:15]>>[C:1]1([H:8])([H:9])[C:2]([H:10])([H:11])[C:3]12[C:4]([H:12])([H:13])[C-:5]=[O+:6][C:7]2([H:14])[H:15]"
C       -1.39643975       0.31665557      -0.77023505
C       -1.46154212      -0.07907156       0.68039902
C       -0.14812808       0.00104843      -0.01890633
C        0.80231731      -1.16711370      -0.27268664
C        2.07494163      -0.35478040      -0.04093710
O        1.92646537       0.82460428      -0.72015104
C        0.94563390       0.98077967       0.31767922
H       -1.72561658      -0.40254164      -1.50946772
H       -1.58545875       1.35143187      -1.02739723
H       -1.69842223       0.68998771       1.40550906
H       -1.84734148      -1.06046305       0.92605959
H        0.73824180      -1.95028510       0.48730328
H        0.75407223      -1.62317866      -1.26140534
H        1.85022946       0.44330034       1.27175455
H        0.77104730       2.02962624       0.53248174
15
Frame=13 idx=007362 GeodesicLength=0.6689174840661908 rxn_smarts="[C:1]1([H:8])([H:9])[C:2]([H:10])([H:11])[C:3]12[C:4]([H:12])([H:13])[C@@:5]1([H:14])[O:6][C@@:7]21[H:15]>>[C:1]1([H:8])([H:9])[C:2]([H:10])([H:11])[C:3]12[C:4]([H:12])([H:13])[C-:5]=[O+:6][C:7]2([H:14])[H:15]"
C       -1.39512801       0.31741151      -0.77117830
C       -1.46473668      -0.08045031       0.67863886
C       -0.14910180       0.00152489      -0.01609788
C        0.80003324      -1.16750683      -0.27415490
C        2.07027692      -0.35423017      -0.04890060
O        1.92544197       0.82666930      -0.71793802
C        0.94465491       0.98049891       0.32526504
H       -1.72115093      -0.40092236      -1.51267606
H       -1.58309354       1.35258789      -1.02748441
H       -1.70424025       0.68734633       1.40419847
H       -1.85100088      -1.06240653       0.92136069
H        0.74316594      -1.94655306       0.49112787
H        0.74215625      -1.63031156      -1.25904278
H        1.87921997       0.44593111       1.27841218
H        0.76350290       2.03041087       0.52846985
15
Frame=14 idx=007362 GeodesicLength=0.7204738556882518 rxn_smarts="[C:1]1([H:8])([H:9])[C:2]([H:10])([H:11])[C:3]12[C:4]([H:12])([H:13])[C@@:5]1([H:14])[O:6][C@@:7]21[H:15]>>[C:1]1([H:8])([H:9])[C:2]([H:10])([H:11])[C:3]12[C:4]([H:12])([H:13])[C-:5]=[O+:6][C:7]2([H:14])[H:15]"
C       -1.39384215       0.31818227      -0.77216718
C       -1.46803386      -0.08184470       0.67680255
C       -0.15015512       0.00199260      -0.01328445
C        0.79770767      -1.16789053      -0.27554835
C        2.06548466      -0.35356868      -0.05673441
O        1.92430231       0.82876001      -0.71566166
C        0.94360103       0.98017133       0.33299260
H       -1.71665166      -0.39926755      -1.51595437
H       -1.58071797       1.35376758      -1.02760069
H       -1.71020090       0.68467246       1.40280409
H       -1.85476093      -1.06436720       0.91654389
H        0.74807640      -1.94274846       0.49497093
H        0.73023734      -1.63750816      -1.25641808
H        1.90901651       0.44867010       1.28453501
H        0.75593666       2.03097894       0.52472013
15
Frame=15 idx=007362 GeodesicLength=0.772027561770338 rxn_smarts="[C:1]1([H:8])([H:9])[C:2]([H:10])([H:11])[C:3]12[C:4]([H:12])([H:13])[C@@:5]1([H:14])[O:6][C@@:7]21[H:15]>>[C:1]1([H:8])([H:9])[C:2]([H:10])([H:11])[C:3]12[C:4]([H:12])([H:13])[C-:5]=[O+:6][C:7]2([H:14])[H:15]"
C       -1.39258131       0.31896784      -0.77320282
C       -1.47143791      -0.08325518       0.67488769
C       -0.15129063       0.00245069      -0.01046315
C        0.79534010      -1.16826538      -0.27686298
C        2.06056594      -0.35279629      -0.06442602
O        1.92304503       0.83087519      -0.71331602
C        0.94246880       0.97979482       0.34086501
H       -1.71211413      -0.39757683      -1.51930481
H       -1.57832967       1.35497113      -1.02774681
H       -1.71630973       0.68196547       1.40132281
H       -1.85862623      -1.06634560       0.91160503
H        0.75296835      -1.93887261       0.49883483
H        0.71832009      -1.64476618      -1.25352603
H        1.93963150       0.45152108       1.29008466
H        0.74834978       2.03133186       0.52124860
15
Frame=16 idx=007362 GeodesicLength=0.8235623298819402 rxn_smarts="[C:1]1([H:8])([H:9])[C:2]([H:10])([H:11])[C:3]12[C:4]([H:12])([H:13])[C@@:5]1([H:14])[O:6][C@@:7]21[H:15]>>[C:1]1([H:8])([H:9])[C:2]([H:10])([H:11])[C:3]12[C:4]([H:12])([H:13])[C-:5]=[O+:6][C:7]2([H:14])[H:15]"
C       -1.39134430       0.31976829      -0.77428619
C       -1.47495339      -0.08468232       0.67289174
C       -0.15251100       0.00289829      -0.00763043
C        0.79293046      -1.16863174      -0.27809390
C        2.05552018      -0.35191364      -0.07196098
O        1.92166942       0.83301312      -0.71089282
C        0.94125478       0.97936719       0.34888672
H       -1.70753273      -0.39584962      -1.52272955
H       -1.57592580       1.35619883      -1.02792342
H       -1.72257290       0.67922440       1.39975137
H       -1.86260138      -1.06834232       0.90653941
H        0.75783649      -1.93492706       0.50272248
H        0.70640938      -1.65208253      -1.25036177
H        1.97107839       0.45448757       1.29501643
H        0.74074240       2.03147154       0.51807092
