14
Frame=0 idx=010517 GeodesicLength=0.0 rxn_smarts="[C:1](/[C:2](=[N:3]\[H:11])[O:4][C:5]([C:6](=[O:7])[H:14])([H:12])[H:13])([H:8])([H:9])[H:10]>>[C-:6]#[O+:7].[C:1]([C@:2]1([N:3]([H:11])[H:14])[O:4][C:5]1([H:12])[H:13])([H:8])([H:9])[H:10]"
C       -1.83384168      -0.01056891       0.07171077
C       -0.47888219      -0.32004816      -0.46171755
N        0.02433700       0.31495193      -1.50804286
O        0.08223119      -1.44217620      -0.00192747
C        1.01072167      -0.69004675       0.82257143
C        2.03053966       0.78551526       0.03450431
O        2.60977244       1.36939630       0.85405607
H       -1.78672044       0.04756645       1.16079454
H       -2.24384879       0.91698977      -0.32311035
H       -2.49978415      -0.84048260      -0.17653066
H       -0.47522609       1.15348936      -1.76535920
H        0.56585972      -0.48688565       1.79875455
H        1.91962753      -1.27749705       0.91454857
H        1.07521417       0.47979626      -1.42025221
14
Frame=1 idx=010517 GeodesicLength=0.08928450344333426 rxn_smarts="[C:1](/[C:2](=[N:3]\[H:11])[O:4][C:5]([C:6](=[O:7])[H:14])([H:12])[H:13])([H:8])([H:9])[H:10]>>[C-:6]#[O+:7].[C:1]([C@:2]1([N:3]([H:11])[H:14])[O:4][C:5]1([H:12])[H:13])([H:8])([H:9])[H:10]"
C       -1.84525021      -0.01893211       0.07084143
C       -0.48046216      -0.31270543      -0.44873698
N        0.02315518       0.32026949      -1.49725213
O        0.07687802      -1.44087598       0.00715321
C        1.00754269      -0.68224817       0.81923305
C        2.06264176       0.78014482       0.02747326
O        2.65051089       1.36583548       0.83928778
H       -1.81712051       0.01437968       1.16152154
H       -2.25017072       0.91776723      -0.30752458
H       -2.50667511      -0.84255943      -0.20830320
H       -0.49239358       1.14281353      -1.77377710
H        0.57365801      -0.45699269       1.79531183
H        1.90650684      -1.28406630       0.92071283
H        1.09117891       0.49716989      -1.40594094
14
Frame=2 idx=010517 GeodesicLength=0.17824531106806962 rxn_smarts="[C:1](/[C:2](=[N:3]\[H:11])[O:4][C:5]([C:6](=[O:7])[H:14])([H:12])[H:13])([H:8])([H:9])[H:10]>>[C-:6]#[O+:7].[C:1]([C@:2]1([N:3]([H:11])[H:14])[O:4][C:5]1([H:12])[H:13])([H:8])([H:9])[H:10]"
C       -1.85643575      -0.02712209       0.07007195
C       -0.48228654      -0.30537599      -0.43588954
N        0.02179646       0.32588115      -1.48638344
O        0.07148020      -1.43951076       0.01598877
C        1.00428617      -0.67461036       0.81570810
C        2.09441442       0.77448995       0.02086344
O        2.69060141       1.36205951       0.82495820
H       -1.84665491      -0.01826099       1.16144412
H       -2.25682123       0.91809822      -0.29181537
H       -2.51288790      -0.84394357      -0.23903168
H       -0.50972841       1.13110470      -1.78278364
H        0.58155019      -0.42765920       1.79124729
H        1.89324654      -1.29020402       0.92693254
H        1.10743935       0.51505344      -1.39131073
14
Frame=3 idx=010517 GeodesicLength=0.2669469810687779 rxn_smarts="[C:1](/[C:2](=[N:3]\[H:11])[O:4][C:5]([C:6](=[O:7])[H:14])([H:12])[H:13])([H:8])([H:9])[H:10]>>[C-:6]#[O+:7].[C:1]([C@:2]1([N:3]([H:11])[H:14])[O:4][C:5]1([H:12])[H:13])([H:8])([H:9])[H:10]"
C       -1.86743160      -0.03516023       0.06938904
C       -0.48435714      -0.29803444      -0.42316324
N        0.02023596       0.33185686      -1.47541047
O        0.06603839      -1.43805815       0.02457858
C        1.00095282      -0.66710393       0.81198973
C        2.12589500       0.76853816       0.01465613
O        2.73014952       1.35804246       0.81101567
H       -1.87537799      -0.05036287       1.16060876
H       -2.26384040       0.91796734      -0.27603533
H       -2.51848397      -0.84471675      -0.26874101
H       -0.52720206       1.11835331      -1.79232951
H        0.58954721      -0.39885244       1.78657608
H        1.87984220      -1.29591084       0.93319784
H        1.12403206       0.53344153      -1.37633226
14
Frame=4 idx=010517 GeodesicLength=0.35546569725800164 rxn_smarts="[C:1](/[C:2](=[N:3]\[H:11])[O:4][C:5]([C:6](=[O:7])[H:14])([H:12])[H:13])([H:8])([H:9])[H:10]>>[C-:6]#[O+:7].[C:1]([C@:2]1([N:3]([H:11])[H:14])[O:4][C:5]1([H:12])[H:13])([H:8])([H:9])[H:10]"
C       -1.87827877      -0.04307003       0.06878358
C       -0.48667709      -0.29064997      -0.41054065
N        0.01844358       0.33827686      -1.46430193
O        0.06055457      -1.43649297       0.03291700
C        0.99754508      -0.65970114       0.80807394
C        2.15711696       0.76229097       0.00883481
O        2.76927964       1.35375649       0.79740426
H       -1.90335006      -0.08194259       1.15906302
H       -2.27127739       0.91735816      -0.26022354
H       -2.52352576      -0.84495386      -0.29747720
H       -0.54478369       1.10453243      -1.80237332
H        0.59766368      -0.37053439       1.78131210
H        1.86628820      -1.30119254       0.93950199
H        1.14100106       0.55232259      -1.36097405
14
Frame=5 idx=010517 GeodesicLength=0.443821645992442 rxn_smarts="[C:1](/[C:2](=[N:3]\[H:11])[O:4][C:5]([C:6](=[O:7])[H:14])([H:12])[H:13])([H:8])([H:9])[H:10]>>[C-:6]#[O+:7].[C:1]([C@:2]1([N:3]([H:11])[H:14])[O:4][C:5]1([H:12])[H:13])([H:8])([H:9])[H:10]"
C       -1.88899698      -0.05086587       0.06824631
C       -0.48925037      -0.28320108      -0.39801121
N        0.01638895       0.34521870      -1.45302604
O        0.05502915      -1.43479772       0.04099765
C        0.99406446      -0.65237823       0.80394676
C        2.18809419       0.75574076       0.00338474
O        2.80804063       1.34917708       0.78409232
H       -1.93060317      -0.11301345       1.15684650
H       -2.27915796       0.91627131      -0.24441843
H       -2.52806230      -0.84470899      -0.32525537
H       -0.56243254       1.08959835      -1.81287285
H        0.60591215      -0.34268045       1.77545969
H        1.85258529      -1.30603846       0.94582243
H        1.15838849       0.57167805      -1.34521250
14
Frame=6 idx=010517 GeodesicLength=0.5320940109395589 rxn_smarts="[C:1](/[C:2](=[N:3]\[H:11])[O:4][C:5]([C:6](=[O:7])[H:14])([H:12])[H:13])([H:8])([H:9])[H:10]>>[C-:6]#[O+:7].[C:1]([C@:2]1([N:3]([H:11])[H:14])[O:4][C:5]1([H:12])[H:13])([H:8])([H:9])[H:10]"
C       -1.89962845      -0.05856606       0.06777544
C       -0.49208431      -0.27564842      -0.38555103
N        0.01402979       0.35276862      -1.44155277
O        0.04946357      -1.43294100       0.04880727
C        0.99050918      -0.64510569       0.79960675
C        2.21885486       0.74891603      -0.00170848
O        2.84656258       1.34428533       0.77102729
H       -1.95721735      -0.14363089       1.15400450
H       -2.28753093       0.91469860      -0.22863184
H       -2.53215201      -0.84403961      -0.35213286
H       -0.58009804       1.07352403      -1.82379069
H        0.61430316      -0.31525976       1.76903596
H        1.83873156      -1.31044242       0.95214954
H        1.17625639       0.59144124      -1.32903909
14
Frame=7 idx=010517 GeodesicLength=0.6203011859142068 rxn_smarts="[C:1](/[C:2](=[N:3]\[H:11])[O:4][C:5]([C:6](=[O:7])[H:14])([H:12])[H:13])([H:8])([H:9])[H:10]>>[C-:6]#[O+:7].[C:1]([C@:2]1([N:3]([H:11])[H:14])[O:4][C:5]1([H:12])[H:13])([H:8])([H:9])[H:10]"
C       -1.91019577      -0.06617763       0.06737180
C       -0.49518835      -0.26796640      -0.37314470
N        0.01132536       0.36100236      -1.42985518
O        0.04385341      -1.43090591       0.05632824
C        0.98687890      -0.63787128       0.79504012
C        2.24940315       0.74183519      -0.00644989
O        2.88486538       1.33907460       0.75820433
H       -1.98320905      -0.17379021       1.15056896
H       -2.29642986       0.91263984      -0.21289287
H       -2.53583480      -0.84298765      -0.37810662
H       -0.59771424       1.05625307      -1.83509741
H        0.62284918      -0.28827319       1.76204324
H        1.82473556      -1.31438830       0.95843010
H        1.19466113       0.61155551      -1.31244012
14
Frame=8 idx=010517 GeodesicLength=0.7084739970990342 rxn_smarts="[C:1](/[C:2](=[N:3]\[H:11])[O:4][C:5]([C:6](=[O:7])[H:14])([H:12])[H:13])([H:8])([H:9])[H:10]>>[C-:6]#[O+:7].[C:1]([C@:2]1([N:3]([H:11])[H:14])[O:4][C:5]1([H:12])[H:13])([H:8])([H:9])[H:10]"
C       -1.92073718      -0.07371660       0.06704109
C       -0.49857344      -0.26011630      -0.36076491
N        0.00822205       0.37001579      -1.41789445
O        0.03819851      -1.42865915       0.06354055
C        0.98316700      -0.63064214       0.79023701
C        2.27974544       0.73455493      -0.01083491
O        2.92306123       1.33354817       0.74558516
H       -2.00865369      -0.20356482       1.14658576
H       -2.30589263       0.91009530      -0.19719347
H       -2.53916687      -0.84159273      -0.40323486
H       -0.61519986       1.03776082      -1.84674518
H        0.63155239      -0.26170284       1.75449614
H        1.81059706      -1.31786226       0.96464262
H        1.21367999       0.63188183      -1.29546056
14
Frame=9 idx=010517 GeodesicLength=0.7967000672460354 rxn_smarts="[C:1](/[C:2](=[N:3]\[H:11])[O:4][C:5]([C:6](=[O:7])[H:14])([H:12])[H:13])([H:8])([H:9])[H:10]>>[C-:6]#[O+:7].[C:1]([C@:2]1([N:3]([H:11])[H:14])[O:4][C:5]1([H:12])[H:13])([H:8])([H:9])[H:10]"
C       -1.93124480      -0.08117314       0.06678731
C       -0.50224606      -0.25210777      -0.34841146
N        0.00466421       0.37970100      -1.40574325
O        0.03248735      -1.42622392       0.07045314
C        0.97938805      -0.62341361       0.78516596
C        2.30986851       0.72708967      -0.01493158
O        2.96095994       1.32775381       0.73321918
H       -2.03354574      -0.23293565       1.14206057
H       -2.31588705       0.90708898      -0.18152725
H       -2.54217417      -0.83985640      -0.42748003
H       -0.63242155       1.01815129      -1.85856807
H        0.64040307      -0.23553971       1.74636372
H        1.79636232      -1.32085221       0.97074075
H        1.23338591       0.65231765      -1.27812900
14
Frame=10 idx=010517 GeodesicLength=0.8848677068381606 rxn_smarts="[C:1](/[C:2](=[N:3]\[H:11])[O:4][C:5]([C:6](=[O:7])[H:14])([H:12])[H:13])([H:8])([H:9])[H:10]>>[C-:6]#[O+:7].[C:1]([C@:2]1([N:3]([H:11])[H:14])[O:4][C:5]1([H:12])[H:13])([H:8])([H:9])[H:10]"
C       -1.94177556      -0.08855576       0.06662467
C       -0.50622156      -0.24387192      -0.33604411
N        0.00060917       0.39034087      -1.39325401
O        0.02672461      -1.42353871       0.07700052
C        0.97552494      -0.61616241       0.77982492
C        2.33975654       0.71954532      -0.01865483
O        2.99877799       1.32171976       0.72105552
H       -2.05796655      -0.26198202       1.13706978
H       -2.32648671       0.90362931      -0.16588035
H       -2.54493141      -0.83780791      -0.45093432
H       -0.64932959       0.99719992      -1.87065263
H        0.64942827      -0.20982413       1.73770433
H        1.78201507      -1.32335649       0.97665334
H        1.25387480       0.67266417      -1.26051283
14
Frame=11 idx=010517 GeodesicLength=0.9729498900329956 rxn_smarts="[C:1](/[C:2](=[N:3]\[H:11])[O:4][C:5]([C:6](=[O:7])[H:14])([H:12])[H:13])([H:8])([H:9])[H:10]>>[C-:6]#[O+:7].[C:1]([C@:2]1([N:3]([H:11])[H:14])[O:4][C:5]1([H:12])[H:13])([H:8])([H:9])[H:10]"
C       -1.95233789      -0.09585702       0.06656318
C       -0.51051281      -0.23538832      -0.32364453
N       -0.00400329       0.40199769      -1.38040343
O        0.02090213      -1.42059330       0.08315515
C        0.97157296      -0.60888041       0.77418688
C        2.36938983       0.71196855      -0.02200490
O        3.03642718       1.31551729       0.70911733
H       -2.08191179      -0.29071027       1.13164292
H       -2.33770123       0.89973962      -0.15024208
H       -2.54747242      -0.83545331      -0.47359801
H       -0.66578509       0.97487061      -1.88290862
H        0.65863269      -0.18458195       1.72852034
H        1.76756752      -1.32536767       0.98230380
H        1.27523219       0.69273848      -1.24268803
14
Frame=12 idx=010517 GeodesicLength=1.0609417168419841 rxn_smarts="[C:1](/[C:2](=[N:3]\[H:11])[O:4][C:5]([C:6](=[O:7])[H:14])([H:12])[H:13])([H:8])([H:9])[H:10]>>[C-:6]#[O+:7].[C:1]([C@:2]1([N:3]([H:11])[H:14])[O:4][C:5]1([H:12])[H:13])([H:8])([H:9])[H:10]"
C       -1.96296041      -0.10308300       0.06661643
C       -0.51513693      -0.22662516      -0.31118013
N       -0.00924757       0.41474659      -1.36715374
O        0.01501146      -1.41736101       0.08888758
C        0.96752034      -0.60154213       0.76823851
C        2.39876084       0.70445396      -0.02495293
O        3.07387997       1.30924814       0.69740700
H       -2.10542430      -0.31918983       1.12580554
H       -2.34955677       0.89542371      -0.13456443
H       -2.54983783      -0.83279215      -0.49552071
H       -0.68163689       0.95122513      -1.89519189
H        0.66800869      -0.15982820       1.71883492
H        1.75302440      -1.32686999       0.98763810
H        1.29759501       0.71219394      -1.22486426
14
Frame=13 idx=010517 GeodesicLength=1.1488120110050795 rxn_smarts="[C:1](/[C:2](=[N:3]\[H:11])[O:4][C:5]([C:6](=[O:7])[H:14])([H:12])[H:13])([H:8])([H:9])[H:10]>>[C-:6]#[O+:7].[C:1]([C@:2]1([N:3]([H:11])[H:14])[O:4][C:5]1([H:12])[H:13])([H:8])([H:9])[H:10]"
C       -1.97365749      -0.11020430       0.06680420
C       -0.52011213      -0.21755127      -0.29862450
N       -0.01520889       0.42868784      -1.35345970
O        0.00904055      -1.41383681       0.09414461
C        0.96337325      -0.59415837       0.76193478
C        2.42785143       0.69703553      -0.02750523
O        3.11098433       1.30306076       0.68599404
H       -2.12850210      -0.34741404       1.11959900
H       -2.36205814       0.89073203      -0.11881871
H       -2.55207657      -0.82979662      -0.51668441
H       -0.69666093       0.92610658      -1.90744443
H        0.67757269      -0.13562434       1.70865060
H        1.73841721      -1.32789097       0.99254324
H        1.32103680       0.73085399      -1.20713349
14
Frame=14 idx=010517 GeodesicLength=1.2365795879305321 rxn_smarts="[C:1](/[C:2](=[N:3]\[H:11])[O:4][C:5]([C:6](=[O:7])[H:14])([H:12])[H:13])([H:8])([H:9])[H:10]>>[C-:6]#[O+:7].[C:1]([C@:2]1([N:3]([H:11])[H:14])[O:4][C:5]1([H:12])[H:13])([H:8])([H:9])[H:10]"
C       -1.98445251      -0.11724302       0.06713613
C       -0.52545577      -0.20817090      -0.28594891
N       -0.02196055       0.44377242      -1.33933453
O        0.00297420      -1.41001510       0.09893460
C        0.95911138      -0.58669884       0.75526930
C        2.45665347       0.68981435      -0.02962170
O        3.14766383       1.29714679       0.67486413
H       -2.15119352      -0.37547541       1.11302389
H       -2.37521098       0.88565452      -0.10294315
H       -2.55423340      -0.82645741      -0.53715269
H       -0.71066358       0.89983901      -1.91937385
H        0.68729798      -0.11196926       1.69799006
H        1.72374555      -1.32840409       0.99698721
H        1.34572390       0.74820692      -1.18983049
14
Frame=15 idx=010517 GeodesicLength=1.3242648923733964 rxn_smarts="[C:1](/[C:2](=[N:3]\[H:11])[O:4][C:5]([C:6](=[O:7])[H:14])([H:12])[H:13])([H:8])([H:9])[H:10]>>[C-:6]#[O+:7].[C:1]([C@:2]1([N:3]([H:11])[H:14])[O:4][C:5]1([H:12])[H:13])([H:8])([H:9])[H:10]"
C       -1.99535585      -0.12419839       0.06762039
C       -0.53118124      -0.19849532      -0.27313593
N       -0.02957269       0.45994272      -1.32480460
O       -0.00320540      -1.40591369       0.10325617
C        0.95472780      -0.57915849       0.74821346
C        2.48515744       0.68283770      -0.03127506
O        3.18374704       1.29174622       0.66405355
H       -2.17350888      -0.40340144       1.10609107
H       -2.38899757       0.88021316      -0.08688833
H       -2.55635816      -0.82274519      -0.55694022
H       -0.72343614       0.87262861      -1.93073921
H        0.69716930      -0.08889912       1.68686514
H        1.70902795      -1.32841717       1.00090808
H        1.37178640       0.76386038      -1.17322449
14
Frame=16 idx=010517 GeodesicLength=1.4119075795818596 rxn_smarts="[C:1](/[C:2](=[N:3]\[H:11])[O:4][C:5]([C:6](=[O:7])[H:14])([H:12])[H:13])([H:8])([H:9])[H:10]>>[C-:6]#[O+:7].[C:1]([C@:2]1([N:3]([H:11])[H:14])[O:4][C:5]1([H:12])[H:13])([H:8])([H:9])[H:10]"
C       -2.00638027      -0.13107608       0.06826637
C       -0.53730205      -0.18854510      -0.26016692
N       -0.03811049       0.47709501      -1.30991167
O       -0.00951263      -1.40155335       0.10712194
C        0.95021540      -0.57152817       0.74074716
C        2.51337928       0.67615422      -0.03241579
O        3.21907285       1.28713380       0.65359178
H       -2.19547614      -0.43126023       1.09879405
H       -2.40339306       0.87442284      -0.07057565
H       -2.55850137      -0.81861147      -0.57608949
H       -0.73480140       0.84478622      -1.94127480
H        0.70716467      -0.06643044       1.67529183
H        1.69427560      -1.32793922       1.00428067
H        1.39936962       0.77735197      -1.15765948
