15
Frame=0 idx=009098 GeodesicLength=0.0 rxn_smarts="[C:1]1([H:8])([H:9])[C@:2]2([H:10])[O:3][C:4]([H:11])([H:12])[C:5]([H:13])([H:14])[O:6][C@:7]12[H:15]>>[C:1]1([H:9])=[C:2]([H:10])[C:7]1([O:6][C:5]([C:4](=[O:3])[H:12])([H:13])[H:14])[H:15].[H:8][H:11]"
C       -1.53833261       0.04930151       0.72693771
C       -1.41432711      -0.28313421      -0.56926148
O       -0.00273815       0.81058775      -1.46685634
C        0.94087444       0.91974379      -0.66281989
C        1.56076820      -0.35409480      -0.11875226
O        0.68267223      -1.15005104       0.64180913
C       -0.71337220      -1.14377525       0.40079756
H       -0.39029613       1.02837144       0.91252234
H       -2.30225903       0.37900053       1.41193386
H       -1.96295482      -0.35730408      -1.49056544
H        0.35893855       1.43760522       0.73183872
H        1.51862739       1.85246283      -0.64376613
H        1.93632854      -0.91124809      -0.98839566
H        2.40185721      -0.12414258       0.53839015
H       -1.07578651      -2.15332301       0.57618777
15
Frame=1 idx=009098 GeodesicLength=0.07501621816692268 rxn_smarts="[C:1]1([H:8])([H:9])[C@:2]2([H:10])[O:3][C:4]([H:11])([H:12])[C:5]([H:13])([H:14])[O:6][C@:7]12[H:15]>>[C:1]1([H:9])=[C:2]([H:10])[C:7]1([O:6][C:5]([C:4](=[O:3])[H:12])([H:13])[H:14])[H:15].[H:8][H:11]"
C       -1.54447843       0.04554450       0.73125087
C       -1.41143732      -0.27805037      -0.56980182
O       -0.00094890       0.81418546      -1.46428035
C        0.94897759       0.92293877      -0.66155350
C        1.56047793      -0.35510466      -0.11803376
O        0.68124074      -1.13327592       0.65822636
C       -0.71070062      -1.14025992       0.39972413
H       -0.40598260       1.04527712       0.93431488
H       -2.32147531       0.35073535       1.41287800
H       -1.96567370      -0.35689690      -1.48732122
H        0.35342364       1.45612607       0.73480736
H        1.54778264       1.84242672      -0.66927966
H        1.91988351      -0.92698357      -0.98505029
H        2.41194746      -0.13020136       0.52745933
H       -1.06303662      -2.15646130       0.55665969
15
Frame=2 idx=009098 GeodesicLength=0.15000620526412003 rxn_smarts="[C:1]1([H:8])([H:9])[C@:2]2([H:10])[O:3][C:4]([H:11])([H:12])[C:5]([H:13])([H:14])[O:6][C@:7]12[H:15]>>[C:1]1([H:9])=[C:2]([H:10])[C:7]1([O:6][C:5]([C:4](=[O:3])[H:12])([H:13])[H:14])[H:15].[H:8][H:11]"
C       -1.55062324       0.04171909       0.73568107
C       -1.40856042      -0.27273599      -0.57019634
O        0.00092465       0.81799003      -1.46151882
C        0.95727131       0.92632481      -0.66017611
C        1.56014898      -0.35607007      -0.11729928
O        0.67970454      -1.11640606       0.67397920
C       -0.70795151      -1.13660819       0.39867401
H       -0.42221064       1.06213215       0.95675137
H       -2.34022929       0.32208180       1.41347013
H       -1.96830141      -0.35627706      -1.48392961
H        0.34735111       1.47470430       0.73774951
H        1.57710375       1.83111868      -0.69582958
H        1.90354333      -0.94218072      -0.98140487
H        2.42158040      -0.13665117       0.51683938
H       -1.04975156      -2.15914159       0.53720994
15
Frame=3 idx=009098 GeodesicLength=0.22497247316930385 rxn_smarts="[C:1]1([H:8])([H:9])[C@:2]2([H:10])[O:3][C:4]([H:11])([H:12])[C:5]([H:13])([H:14])[O:6][C@:7]12[H:15]>>[C:1]1([H:9])=[C:2]([H:10])[C:7]1([O:6][C:5]([C:4](=[O:3])[H:12])([H:13])[H:14])[H:15].[H:8][H:11]"
C       -1.55676541       0.03782229       0.74022283
C       -1.40568899      -0.26718081      -0.57044759
O        0.00289405       0.82201432      -1.45855801
C        0.96577303       0.92992107      -0.65867920
C        1.55978973      -0.35697589      -0.11655001
O        0.67807865      -1.09945220       0.68908026
C       -0.70512722      -1.13281793       0.39764315
H       -0.43900009       1.07890420       0.97987005
H       -2.35850464       0.29306501       1.41369548
H       -1.97082154      -0.35543515      -1.48039943
H        0.34070589       1.49332416       0.74069015
H        1.60652782       1.81844222      -0.72345954
H        1.88732858      -0.95682498      -0.97748691
H        2.43077221      -0.14345956       0.50653816
H       -1.03596207      -2.16134674       0.51784060
15
Frame=4 idx=009098 GeodesicLength=0.2998882094851354 rxn_smarts="[C:1]1([H:8])([H:9])[C@:2]2([H:10])[O:3][C:4]([H:11])([H:12])[C:5]([H:13])([H:14])[O:6][C@:7]12[H:15]>>[C:1]1([H:9])=[C:2]([H:10])[C:7]1([O:6][C:5]([C:4](=[O:3])[H:12])([H:13])[H:14])[H:15].[H:8][H:11]"
C       -1.56289862       0.03385624       0.74486871
C       -1.40281547      -0.26137501      -0.57055878
O        0.00497340       0.82626713      -1.45538760
C        0.97450302       0.93374586      -0.65705602
C        1.55940996      -0.35780902      -0.11578713
O        0.67637564      -1.08242388       0.70353975
C       -0.70222881      -1.12888608       0.39662648
H       -0.45636747       1.09556602       1.00370086
H       -2.37628108       0.26371063       1.41354041
H       -1.97321836      -0.35436085      -1.47673975
H        0.33347086       1.51196295       0.74365269
H        1.63596856       1.80429486      -0.75219427
H        1.87126081      -0.97090404      -0.97332186
H        2.43953958      -0.15059556       0.49656178
H       -1.02169202      -2.16304926       0.49855472
15
Frame=5 idx=009098 GeodesicLength=0.3747067173839114 rxn_smarts="[C:1]1([H:8])([H:9])[C@:2]2([H:10])[O:3][C:4]([H:11])([H:12])[C:5]([H:13])([H:14])[O:6][C@:7]12[H:15]>>[C:1]1([H:9])=[C:2]([H:10])[C:7]1([O:6][C:5]([C:4](=[O:3])[H:12])([H:13])[H:14])[H:15].[H:8][H:11]"
C       -1.56901477       0.02982365       0.74960912
C       -1.39992977      -0.25530865      -0.57053456
O        0.00717898       0.83075464      -1.45200007
C        0.98348374       0.93781860      -0.65530574
C        1.55902060      -0.35855609      -0.11501237
O        0.67461154      -1.06532881       0.71737306
C       -0.69925659      -1.12481078       0.39561816
H       -0.47431904       1.11208611       1.02827057
H       -2.39353145       0.23405381       1.41298871
H       -1.97547484      -0.35304260      -1.47296040
H        0.32562792       1.53059624       0.74665825
H        1.66531136       1.78857191      -0.78203973
H        1.85536010      -0.98441091      -0.96893313
H        2.44790018      -0.15802615       0.48691465
H       -1.00696796      -2.16422099       0.47935348
15
Frame=6 idx=009098 GeodesicLength=0.44944429965562654 rxn_smarts="[C:1]1([H:8])([H:9])[C@:2]2([H:10])[O:3][C:4]([H:11])([H:12])[C:5]([H:13])([H:14])[O:6][C@:7]12[H:15]>>[C:1]1([H:9])=[C:2]([H:10])[C:7]1([O:6][C:5]([C:4](=[O:3])[H:12])([H:13])[H:14])[H:15].[H:8][H:11]"
C       -1.57510425       0.02572736       0.75443313
C       -1.39701932      -0.24897262      -0.57038079
O        0.00952527       0.83548444      -1.44839011
C        0.99274762       0.94214864      -0.65344053
C        1.55863424      -0.35920878      -0.11423219
O        0.67280293      -1.04816787       0.73059787
C       -0.69620513      -1.12058491       0.39461257
H       -0.49287474       1.12843693       1.05360249
H       -2.41023630       0.20413335       1.41201787
H       -1.97757196      -0.35147372      -1.46907235
H        0.31718285       1.54920957       0.74971671
H        1.69441697       1.77118787      -0.81295607
H        1.83964253      -0.99734845      -0.96434707
H        2.45587928      -0.16572688       0.47758659
H       -0.99181998      -2.16484493       0.46025188
15
Frame=7 idx=009098 GeodesicLength=0.5240899919734522 rxn_smarts="[C:1]1([H:8])([H:9])[C@:2]2([H:10])[O:3][C:4]([H:11])([H:12])[C:5]([H:13])([H:14])[O:6][C@:7]12[H:15]>>[C:1]1([H:9])=[C:2]([H:10])[C:7]1([O:6][C:5]([C:4](=[O:3])[H:12])([H:13])[H:14])[H:15].[H:8][H:11]"
C       -1.58115239       0.02157190       0.75932463
C       -1.39406944      -0.24236119      -0.57010516
O        0.01202810       0.84045746      -1.44456016
C        1.00232768       0.94674124      -0.65148188
C        1.55826453      -0.35976244      -0.11345605
O        0.67097016      -1.03094251       0.74323367
C       -0.69306776      -1.11620544       0.39360210
H       -0.51204116       1.14458969       1.07971048
H       -2.42636308       0.17400149       1.41060827
H       -1.97949234      -0.34964937      -1.46508806
H        0.30814357       1.56778889       0.75282878
H        1.72311459       1.75207877      -0.84486452
H        1.82412377      -1.00972776      -0.95958663
H        2.46349892      -0.17367525       0.46856755
H       -0.97628514      -2.16490548       0.44126699
15
Frame=8 idx=009098 GeodesicLength=0.5986511245165037 rxn_smarts="[C:1]1([H:8])([H:9])[C@:2]2([H:10])[O:3][C:4]([H:11])([H:12])[C:5]([H:13])([H:14])[O:6][C@:7]12[H:15]>>[C:1]1([H:9])=[C:2]([H:10])[C:7]1([O:6][C:5]([C:4](=[O:3])[H:12])([H:13])[H:14])[H:15].[H:8][H:11]"
C       -1.58714320       0.01736884       0.76426869
C       -1.39106592      -0.23546648      -0.56971405
O        0.01470391       0.84566721      -1.44052050
C        1.01226196       0.95158871      -0.64946831
C        1.55792661      -0.36021927      -0.11269504
O        0.66913237      -1.01364944       0.75530048
C       -0.68983813      -1.11166551       0.39258227
H       -0.53182811       1.16051086       1.10659979
H       -2.44188199       0.14370758       1.40873903
H       -1.98122041      -0.34756336      -1.46101541
H        0.29852932       1.58632277       0.75597949
H        1.75121502       1.73121560      -0.87764351
H        1.80881859      -1.02157556      -0.95466941
H        2.47078487      -0.18185565       0.45983843
H       -0.96039489      -2.16438631       0.42241804
15
Frame=9 idx=009098 GeodesicLength=0.6731884563234549 rxn_smarts="[C:1]1([H:8])([H:9])[C@:2]2([H:10])[O:3][C:4]([H:11])([H:12])[C:5]([H:13])([H:14])[O:6][C@:7]12[H:15]>>[C:1]1([H:9])=[C:2]([H:10])[C:7]1([O:6][C:5]([C:4](=[O:3])[H:12])([H:13])[H:14])[H:15].[H:8][H:11]"
C       -1.59306803       0.01312224       0.76926269
C       -1.38800346      -0.22828457      -0.56920829
O        0.01754774       0.85109132      -1.43630753
C        1.02256069       0.95664278      -0.64747063
C        1.55763492      -0.36058593      -0.11196706
O        0.66731079      -0.99626748       0.76683335
C       -0.68651152      -1.10695903       0.39155366
H       -0.55224949       1.17616754       1.13428547
H       -2.45681554       0.11325493       1.40641965
H       -1.98276221      -0.34521630      -1.45686094
H        0.28835979       1.60480525       0.75911253
H        1.77872648       1.70871540      -0.91113605
H        1.79373337      -1.03294496      -0.94960280
H        2.47776896      -0.19022680       0.45134665
H       -0.94423249      -2.16331438       0.40373930
15
Frame=10 idx=009098 GeodesicLength=0.747654671252821 rxn_smarts="[C:1]1([H:8])([H:9])[C@:2]2([H:10])[O:3][C:4]([H:11])([H:12])[C:5]([H:13])([H:14])[O:6][C@:7]12[H:15]>>[C:1]1([H:9])=[C:2]([H:10])[C:7]1([O:6][C:5]([C:4](=[O:3])[H:12])([H:13])[H:14])[H:15].[H:8][H:11]"
C       -1.59890042       0.00884985       0.77428008
C       -1.38486645      -0.22081750      -0.56860308
O        0.02058490       0.85672827      -1.43192186
C        1.03327437       0.96190088      -0.64551030
C        1.55740332      -0.36087252      -0.11127974
O        0.66551580      -0.97881594       0.77782675
C       -0.68308131      -1.10208384       0.39050863
H       -0.57329684       1.19154969       1.16275126
H       -2.47108411       0.08274886       1.40361292
H       -1.98409400      -0.34261052      -1.45263777
H        0.27767978       1.62322571       0.76222894
H        1.80528484       1.68448988      -0.94519061
H        1.77889253      -1.04384520      -0.94441656
H        2.48446699      -0.19880019       0.44311395
H       -0.92777939      -2.16164744       0.38523740
15
Frame=11 idx=009098 GeodesicLength=0.8220487131765395 rxn_smarts="[C:1]1([H:8])([H:9])[C@:2]2([H:10])[O:3][C:4]([H:11])([H:12])[C:5]([H:13])([H:14])[O:6][C@:7]12[H:15]>>[C:1]1([H:9])=[C:2]([H:10])[C:7]1([O:6][C:5]([C:4](=[O:3])[H:12])([H:13])[H:14])[H:15].[H:8][H:11]"
C       -1.60461938       0.00456669       0.77930415
C       -1.38164708      -0.21307253      -0.56790778
O        0.02382255       0.86255321      -1.42739658
C        1.04442924       0.96731694      -0.64364942
C        1.55724451      -0.36109791      -0.11065184
O        0.66376186      -0.96129712       0.78829070
C       -0.67954315      -1.09703817       0.38944632
H       -0.59496112       1.20663341       1.19198744
H       -2.48466348       0.05225444       1.40031101
H       -1.98521139      -0.33975862      -1.44835327
H        0.26653060       1.64157719       0.76528004
H        1.83072327       1.65863696      -0.97959456
H        1.76430727      -1.05432313      -0.93912990
H        2.49089719      -0.20756971       0.43511748
H       -0.91107089      -2.15938166       0.36694620
15
Frame=12 idx=009098 GeodesicLength=0.8963843736394268 rxn_smarts="[C:1]1([H:8])([H:9])[C@:2]2([H:10])[O:3][C:4]([H:11])([H:12])[C:5]([H:13])([H:14])[O:6][C@:7]12[H:15]>>[C:1]1([H:9])=[C:2]([H:10])[C:7]1([O:6][C:5]([C:4](=[O:3])[H:12])([H:13])[H:14])[H:15].[H:8][H:11]"
C       -1.61020750       0.00028671       0.78432092
C       -1.37834098      -0.20505667      -0.56712986
O        0.02726399       0.86853801      -1.42276716
C        1.05604500       0.97283683      -0.64195426
C        1.55717132      -0.36128364      -0.11010182
O        0.66206294      -0.94370958       0.79823514
C       -0.67589418      -1.09181977       0.38836677
H       -0.61724062       1.22140027       1.22198510
H       -2.49753548       0.02182471       1.39651108
H       -1.98611574      -0.33667250      -1.44401277
H        0.25496150       1.65985777       0.76821229
H        1.85490579       1.63127664      -1.01413756
H        1.74998848      -1.06442842      -0.93375836
H        2.49708108      -0.21652904       0.42733461
H       -0.89414559      -2.15652131       0.34889589
15
Frame=13 idx=009098 GeodesicLength=0.9706782887861729 rxn_smarts="[C:1]1([H:8])([H:9])[C@:2]2([H:10])[O:3][C:4]([H:11])([H:12])[C:5]([H:13])([H:14])[O:6][C@:7]12[H:15]>>[C:1]1([H:9])=[C:2]([H:10])[C:7]1([O:6][C:5]([C:4](=[O:3])[H:12])([H:13])[H:14])[H:15].[H:8][H:11]"
C       -1.61564806      -0.00397907       0.78931736
C       -1.37494461      -0.19677994      -0.56627781
O        0.03091136       0.87465152      -1.41807349
C        1.06813554       0.97840454      -0.64049282
C        1.55719402      -0.36145215      -0.10964738
O        0.66043201      -0.92605199       0.80767133
C       -0.67213200      -1.08643066       0.38726912
H       -0.64013690       1.23581827       1.25273992
H       -2.50968065      -0.00848034       1.39221445
H       -1.98680979      -0.33336459      -1.43962130
H        0.24302232       1.67807255       0.77096822
H        1.87772548       1.60255916      -1.04861588
H        1.73594340      -1.07421193      -0.92831314
H        2.50303461      -0.22567446       0.41974140
H       -0.87704672      -2.15308091       0.33112004
15
Frame=14 idx=009098 GeodesicLength=1.0449413099942941 rxn_smarts="[C:1]1([H:8])([H:9])[C@:2]2([H:10])[O:3][C:4]([H:11])([H:12])[C:5]([H:13])([H:14])[O:6][C@:7]12[H:15]>>[C:1]1([H:9])=[C:2]([H:10])[C:7]1([O:6][C:5]([C:4](=[O:3])[H:12])([H:13])[H:14])[H:15].[H:8][H:11]"
C       -1.62092752      -0.00821827       0.79428278
C       -1.37145704      -0.18825135      -0.56535605
O        0.03476410       0.88085873      -1.41335659
C        1.08070931       0.98395710      -0.63933364
C        1.55732168      -0.36162868      -0.10930526
O        0.65888022      -0.90832298       0.81660762
C       -0.66825667      -1.08087116       0.38615492
H       -0.66365846       1.24985982       1.28425175
H       -2.52108545      -0.03861214       1.38742378
H       -1.98730182      -0.32984793      -1.43517956
H        0.23076434       1.69622626       0.77349252
H        1.89910202       1.57264520      -1.08284022
H        1.72218020      -1.08372794      -0.92280296
H        2.50877441      -0.23500147       0.41231787
H       -0.85980932      -2.14906519       0.31364302
15
Frame=15 idx=009098 GeodesicLength=1.1191818329523662 rxn_smarts="[C:1]1([H:8])([H:9])[C@:2]2([H:10])[O:3][C:4]([H:11])([H:12])[C:5]([H:13])([H:14])[O:6][C@:7]12[H:15]>>[C:1]1([H:9])=[C:2]([H:10])[C:7]1([O:6][C:5]([C:4](=[O:3])[H:12])([H:13])[H:14])[H:15].[H:8][H:11]"
C       -1.62603382      -0.01242094       0.79920758
C       -1.36787824      -0.17948140      -0.56437049
O        0.03882142       0.88712516      -1.40865905
C        1.09377001       0.98943408      -0.63854279
C        1.55756154      -0.36183650      -0.10909101
O        0.65741783      -0.89052041       0.82505221
C       -0.66426786      -1.07514294       0.38502479
H       -0.68782001       1.26348614       1.31652735
H       -2.53173924      -0.06851973       1.38214676
H       -1.98759938      -0.32613490      -1.43068840
H        0.21823782       1.71433199       0.77573019
H        1.91898711       1.54170803      -1.11664112
H        1.70870306      -1.09302706      -0.91723426
H        2.51431353      -0.24450792       0.40504462
H       -0.84247375      -2.14449360       0.29649363
15
Frame=16 idx=009098 GeodesicLength=1.1934123712061822 rxn_smarts="[C:1]1([H:8])([H:9])[C@:2]2([H:10])[O:3][C:4]([H:11])([H:12])[C:5]([H:13])([H:14])[O:6][C@:7]12[H:15]>>[C:1]1([H:9])=[C:2]([H:10])[C:7]1([O:6][C:5]([C:4](=[O:3])[H:12])([H:13])[H:14])[H:15].[H:8][H:11]"
C       -1.63096068      -0.01658229       0.80408667
C       -1.36421035      -0.17047539      -0.56332384
O        0.04308038       0.89342369      -1.40401487
C        1.10731550       0.99478355      -0.63817352
C        1.55791856      -0.36209171      -0.10901209
O        0.65605229      -0.87263769       0.83301497
C       -0.66016655      -1.06924738       0.38387790
H       -0.71264938       1.27665116       1.34959137
H       -2.54163835      -0.09817020       1.37639264
H       -1.98771133      -0.32222860      -1.42614734
H        0.20548711       1.73240875       0.77763697
H        1.93737620       1.50988400      -1.14992130
H        1.69551789      -1.10214992      -0.91160580
H        2.51966319      -0.25418406       0.39791412
H       -0.82507448      -2.13938392       0.27968412
