11
Frame=0 idx=010259 GeodesicLength=0.0 rxn_smarts="[C:1](#[C:2][c:3]1[c:4]([H:9])[n:5]([H:10])[n:6][c:7]1[H:11])[H:8]>>[C:1](#[C:2][C:3]1=[C:7]([H:11])[N:6]=[N:5][C:4]1([H:9])[H:10])[H:8]"
C        2.65551178      -0.49630921       0.42346598
C        1.49897283      -0.23054279       0.25798587
C        0.12944923       0.08600523       0.06299917
C       -0.70368983      -0.31563931      -0.99163459
N       -1.99265582       0.26536555      -0.78119739
N       -1.94966492       0.91356177       0.36833128
C       -0.70458025       0.86184675       0.85578930
H        3.68329777      -0.72966280       0.57298705
H       -0.45368324      -0.73989443      -1.95358819
H       -1.70775419      -0.98115802      -0.59289012
H       -0.45520331       1.36642727       1.77775165
11
Frame=1 idx=010259 GeodesicLength=0.0385402944867599 rxn_smarts="[C:1](#[C:2][c:3]1[c:4]([H:9])[n:5]([H:10])[n:6][c:7]1[H:11])[H:8]>>[C:1](#[C:2][C:3]1=[C:7]([H:11])[N:6]=[N:5][C:4]1([H:9])[H:10])[H:8]"
C        2.65684750      -0.49542398       0.42292847
C        1.49836188      -0.23609884       0.26057591
C        0.12911488       0.08196093       0.06678800
C       -0.70560439      -0.32217528      -0.98774592
N       -1.98974308       0.26335418      -0.77667440
N       -1.94820951       0.91521740       0.36856273
C       -0.70120791       0.86398292       0.85619655
H        3.68508527      -0.72541282       0.57457557
H       -0.45052097      -0.72679656      -1.95686483
H       -1.72370432      -0.99293822      -0.60281700
H       -0.45041937       1.37433027       1.77447491
11
Frame=2 idx=010259 GeodesicLength=0.07702962569127537 rxn_smarts="[C:1](#[C:2][c:3]1[c:4]([H:9])[n:5]([H:10])[n:6][c:7]1[H:11])[H:8]>>[C:1](#[C:2][C:3]1=[C:7]([H:11])[N:6]=[N:5][C:4]1([H:9])[H:10])[H:8]"
C        2.65752820      -0.49644558       0.42398750
C        1.49774606      -0.24164074       0.26344514
C        0.12906311       0.07872423       0.07012447
C       -0.70747007      -0.32921349      -0.98363031
N       -1.98658565       0.26148773      -0.77258896
N       -1.94616266       0.91871582       0.36732901
C       -0.69714066       0.86848472       0.85494061
H        3.68765001      -0.71891541       0.57400009
H       -0.44748593      -0.71541642      -1.95901401
H       -1.74011007      -1.00407735      -0.61218309
H       -0.44703233       1.37829648       1.77358954
11
Frame=3 idx=010259 GeodesicLength=0.11553554094824099 rxn_smarts="[C:1](#[C:2][c:3]1[c:4]([H:9])[n:5]([H:10])[n:6][c:7]1[H:11])[H:8]>>[C:1](#[C:2][C:3]1=[C:7]([H:11])[N:6]=[N:5][C:4]1([H:9])[H:10])[H:8]"
C        2.65771260      -0.49911053       0.42618530
C        1.49688061      -0.24805064       0.26702171
C        0.12907579       0.07554787       0.07348344
C       -0.70930447      -0.33646281      -0.97938603
N       -1.98328659       0.25970924      -0.76863540
N       -1.94385553       0.92280336       0.36563247
C       -0.69275714       0.87377319       0.85311979
H        3.69086084      -0.71027091       0.57184727
H       -0.44438895      -0.70445927      -1.96057195
H       -1.75699593      -1.01479544      -0.62198706
H       -0.44394123       1.38131594       1.77329046
11
Frame=4 idx=010259 GeodesicLength=0.15407443104969654 rxn_smarts="[C:1](#[C:2][c:3]1[c:4]([H:9])[n:5]([H:10])[n:6][c:7]1[H:11])[H:8]>>[C:1](#[C:2][C:3]1=[C:7]([H:11])[N:6]=[N:5][C:4]1([H:9])[H:10])[H:8]"
C        2.65781343      -0.50218290       0.42867711
C        1.49519634      -0.25726294       0.27262806
C        0.12886955       0.07135232       0.07761331
C       -0.71108262      -0.34407051      -0.97488276
N       -1.97955573       0.25858686      -0.76513798
N       -1.94117259       0.92763344       0.36339883
C       -0.68821445       0.87908646       0.85126002
H        3.69477261      -0.69881929       0.56768890
H       -0.44087825      -0.69390776      -1.96138435
H       -1.77495212      -1.02467054      -0.63294714
H       -0.44079617       1.38425488       1.77308600
11
Frame=5 idx=010259 GeodesicLength=0.192655692832919 rxn_smarts="[C:1](#[C:2][c:3]1[c:4]([H:9])[n:5]([H:10])[n:6][c:7]1[H:11])[H:8]>>[C:1](#[C:2][C:3]1=[C:7]([H:11])[N:6]=[N:5][C:4]1([H:9])[H:10])[H:8]"
C        2.65751952      -0.50630599       0.43229132
C        1.49261114      -0.26930586       0.28065852
C        0.12824561       0.06558335       0.08311041
C       -0.71263843      -0.35155961      -0.97019143
N       -1.97554188       0.25765623      -0.76157693
N       -1.93873262       0.93125249       0.36199285
C       -0.68414421       0.88252034       0.85077016
H        3.69895810      -0.68509237       0.56086067
H       -0.43639092      -0.68183494      -1.96194470
H       -1.79348067      -1.03414497      -0.64635107
H       -0.43640565       1.39123134       1.77038019
11
Frame=6 idx=010259 GeodesicLength=0.23123451383122395 rxn_smarts="[C:1](#[C:2][c:3]1[c:4]([H:9])[n:5]([H:10])[n:6][c:7]1[H:11])[H:8]>>[C:1](#[C:2][C:3]1=[C:7]([H:11])[N:6]=[N:5][C:4]1([H:9])[H:10])[H:8]"
C        2.65741513      -0.50984850       0.43520878
C        1.49076035      -0.27898716       0.28702085
C        0.12805092       0.06126951       0.08760794
C       -0.71426749      -0.35898658      -0.96560476
N       -1.97203688       0.25553987      -0.75722018
N       -1.93640180       0.93442265       0.36091217
C       -0.67956666       0.88739977       0.84924217
H        3.70220950      -0.67376294       0.55609997
H       -0.43243181      -0.66981474      -1.96223210
H       -1.81142964      -1.04405721      -0.65947523
H       -0.43230162       1.39682533       1.76844039
11
Frame=7 idx=010259 GeodesicLength=0.26989037834318996 rxn_smarts="[C:1](#[C:2][c:3]1[c:4]([H:9])[n:5]([H:10])[n:6][c:7]1[H:11])[H:8]>>[C:1](#[C:2][C:3]1=[C:7]([H:11])[N:6]=[N:5][C:4]1([H:9])[H:10])[H:8]"
C        2.65745612      -0.51312984       0.43733932
C        1.48925196      -0.28770612       0.29246837
C        0.12801691       0.05740626       0.09170467
C       -0.71598026      -0.36618054      -0.96115825
N       -1.96902567       0.25242894      -0.75192565
N       -1.93440289       0.93628324       0.36091354
C       -0.67481501       0.89227683       0.84763781
H        3.70478150      -0.66386708       0.55338015
H       -0.42881386      -0.65676626      -1.96258870
H       -1.82904578      -1.05439751      -0.67339007
H       -0.42742303       1.40365208       1.76561882
11
Frame=8 idx=010259 GeodesicLength=0.3086890895299105 rxn_smarts="[C:1](#[C:2][c:3]1[c:4]([H:9])[n:5]([H:10])[n:6][c:7]1[H:11])[H:8]>>[C:1](#[C:2][C:3]1=[C:7]([H:11])[N:6]=[N:5][C:4]1([H:9])[H:10])[H:8]"
C        2.65754503      -0.51647277       0.43890105
C        1.48783888      -0.29628552       0.29755376
C        0.12798203       0.05342140       0.09578387
C       -0.71775701      -0.37312017      -0.95685024
N       -1.96644238       0.24852715      -0.74573365
N       -1.93279638       0.93664459       0.36222477
C       -0.67001632       0.89666964       0.84629571
H        3.70691273      -0.65457313       0.55220312
H       -0.42536973      -0.64239494      -1.96301238
H       -1.84652833      -1.06502931      -0.68864589
H       -0.42136851       1.41261307       1.76127988
11
Frame=9 idx=010259 GeodesicLength=0.34728362683928937 rxn_smarts="[C:1](#[C:2][c:3]1[c:4]([H:9])[n:5]([H:10])[n:6][c:7]1[H:11])[H:8]>>[C:1](#[C:2][C:3]1=[C:7]([H:11])[N:6]=[N:5][C:4]1([H:9])[H:10])[H:8]"
C        2.65769267      -0.51987122       0.44000536
C        1.48645023      -0.30506276       0.30258581
C        0.12793156       0.04917231       0.10005631
C       -0.71957952      -0.37996830      -0.95260691
N       -1.96417349       0.24397050      -0.73894526
N       -1.93140371       0.93594831       0.36436630
C       -0.66502888       0.90097485       0.84500615
H        3.70880087      -0.64540556       0.55189013
H       -0.42206507      -0.62718580      -1.96309652
H       -1.86403707      -1.07551105      -0.70519117
H       -0.41458759       1.42293873       1.75592980
11
Frame=10 idx=010259 GeodesicLength=0.3859354244521808 rxn_smarts="[C:1](#[C:2][c:3]1[c:4]([H:9])[n:5]([H:10])[n:6][c:7]1[H:11])[H:8]>>[C:1](#[C:2][C:3]1=[C:7]([H:11])[N:6]=[N:5][C:4]1([H:9])[H:10])[H:8]"
C        2.65762011      -0.52376108       0.44157308
C        1.48467982      -0.31505189       0.30857738
C        0.12759943       0.04395145       0.10505579
C       -0.72130542      -0.38680559      -0.94828508
N       -1.96183078       0.23906495      -0.73156082
N       -1.93023148       0.93380492       0.36779387
C       -0.66019540       0.90451687       0.84419979
H        3.71056642      -0.63533296       0.55093925
H       -0.41849715      -0.61071261      -1.96289956
H       -1.88184708      -1.08569094      -0.72396596
H       -0.40655847       1.43601687       1.74857225
11
Frame=11 idx=010259 GeodesicLength=0.4246716530128182 rxn_smarts="[C:1](#[C:2][c:3]1[c:4]([H:9])[n:5]([H:10])[n:6][c:7]1[H:11])[H:8]>>[C:1](#[C:2][C:3]1=[C:7]([H:11])[N:6]=[N:5][C:4]1([H:9])[H:10])[H:8]"
C        2.65755998      -0.52774927       0.44291518
C        1.48300325      -0.32491244       0.31438388
C        0.12726471       0.03857215       0.11016163
C       -0.72304723      -0.39348100      -0.94401815
N       -1.95987390       0.23336420      -0.72332200
N       -1.92938747       0.93039483       0.37235337
C       -0.65526199       0.90785028       0.84347476
H        3.71200821      -0.62570901       0.55091056
H       -0.41510197      -0.59321552      -1.96242965
H       -1.89953039      -1.09584063      -0.74421774
H       -0.39763322       1.45072641       1.73978816
11
Frame=12 idx=010259 GeodesicLength=0.46345387901614665 rxn_smarts="[C:1](#[C:2][c:3]1[c:4]([H:9])[n:5]([H:10])[n:6][c:7]1[H:11])[H:8]>>[C:1](#[C:2][C:3]1=[C:7]([H:11])[N:6]=[N:5][C:4]1([H:9])[H:10])[H:8]"
C        2.65767300      -0.53150589       0.44352825
C        1.48160625      -0.33417031       0.31949235
C        0.12705111       0.03340165       0.11502840
C       -0.72488242      -0.40006265      -0.93980683
N       -1.95833303       0.22679098      -0.71417558
N       -1.92868984       0.92605412       0.37783367
C       -0.65004507       0.91143181       0.84244288
H        3.71310420      -0.61690384       0.55266195
H       -0.41223508      -0.57514921      -1.96164558
H       -1.91711193      -1.10589705      -0.76553606
H       -0.38813719       1.46601038       1.73017654
11
Frame=13 idx=010259 GeodesicLength=0.502265294642115 rxn_smarts="[C:1](#[C:2][c:3]1[c:4]([H:9])[n:5]([H:10])[n:6][c:7]1[H:11])[H:8]>>[C:1](#[C:2][C:3]1=[C:7]([H:11])[N:6]=[N:5][C:4]1([H:9])[H:10])[H:8]"
C        2.65775331      -0.53531054       0.44450750
C        1.48027128      -0.34326367       0.32478484
C        0.12685380       0.02820470       0.12011580
C       -0.72662594      -0.40665204      -0.93550578
N       -1.95694693       0.21953158      -0.70443775
N       -1.92810647       0.92106030       0.38388999
C       -0.64476636       0.91513897       0.84132371
H        3.71407398      -0.60841701       0.55407138
H       -0.40943341      -0.55675690      -1.96026099
H       -1.93465817      -1.11555853      -0.78824751
H       -0.37841509       1.48202315       1.71975881
11
Frame=14 idx=010259 GeodesicLength=0.5411017254446091 rxn_smarts="[C:1](#[C:2][c:3]1[c:4]([H:9])[n:5]([H:10])[n:6][c:7]1[H:11])[H:8]>>[C:1](#[C:2][C:3]1=[C:7]([H:11])[N:6]=[N:5][C:4]1([H:9])[H:10])[H:8]"
C        2.65807452      -0.53866406       0.44476513
C        1.47925486      -0.35164161       0.32941170
C        0.12684769       0.02340532       0.12487611
C       -0.72845039      -0.41333245      -0.93115995
N       -1.95584551       0.21149344      -0.69395445
N       -1.92742684       0.91580725       0.39034397
C       -0.63913617       0.91945240       0.83960879
H        3.71483729      -0.60067124       0.55696522
H       -0.40725810      -0.53853734      -1.95837975
H       -1.95225883      -1.12482772      -0.81177898
H       -0.36863851       1.49751600       1.70930221
11
Frame=15 idx=010259 GeodesicLength=0.5799570186908738 rxn_smarts="[C:1](#[C:2][c:3]1[c:4]([H:9])[n:5]([H:10])[n:6][c:7]1[H:11])[H:8]>>[C:1](#[C:2][C:3]1=[C:7]([H:11])[N:6]=[N:5][C:4]1([H:9])[H:10])[H:8]"
C        2.65852275      -0.54173530       0.44491418
C        1.47844478      -0.35952330       0.33384019
C        0.12698094       0.01888265       0.12954610
C       -0.73025694      -0.42015442      -0.92668506
N       -1.95490344       0.20273865      -0.68285602
N       -1.92665080       0.91042361       0.39702008
C       -0.63331024       0.92420630       0.83746362
H        3.71551873      -0.59341143       0.56021102
H       -0.40546730      -0.52059082      -1.95588206
H       -1.96993314      -1.13352619      -0.83634710
H       -0.35894534       1.51269026       1.69877505
11
Frame=16 idx=010259 GeodesicLength=0.6188202337603536 rxn_smarts="[C:1](#[C:2][c:3]1[c:4]([H:9])[n:5]([H:10])[n:6][c:7]1[H:11])[H:8]>>[C:1](#[C:2][C:3]1=[C:7]([H:11])[N:6]=[N:5][C:4]1([H:9])[H:10])[H:8]"
C        2.65907072      -0.54460665       0.44509046
C        1.47780961      -0.36700955       0.33818549
C        0.12722706       0.01453830       0.13422077
C       -0.73201961      -0.42709824      -0.92207233
N       -1.95411731       0.19319382      -0.67106817
N       -1.92582836       0.90476428       0.40402915
C       -0.62741186       0.92909177       0.83512981
H        3.71614881      -0.58659279       0.56362696
H       -0.40401835      -0.50274766      -1.95277958
H       -1.98764543      -1.14155782      -0.86217009
H       -0.34921529       1.52802455       1.68780752
