17
Frame=0 idx=008415 GeodesicLength=0.0 rxn_smarts="[O:1]([C@@:2]1([H:9])[C:3]([H:10])([H:11])[C:4]([H:12])([H:13])[C:5]([H:14])([H:15])[C:6]([H:16])=[C:7]1[H:17])[H:8]>>[H:8][H:17].[O:1]=[C:2]([C:7]1=[C:6]([H:16])[C:5]([H:14])([H:15])[C:4]([H:12])([H:13])[C:3]1([H:10])[H:11])[H:9]"
O        1.83024878      -0.92263385       1.06120575
C        1.38962438      -0.63259189      -0.11043924
C       -0.12280721      -1.24176009      -0.47546484
C       -1.29314781      -0.64670066       0.27568583
C       -1.53269391       0.79123902      -0.16107999
C       -0.18097481       1.48137597      -0.20514033
C        0.86900401       0.72511972      -0.25833647
H        2.43522497       0.67391406       1.17746196
H        1.98339002      -0.94079640      -0.99211121
H        0.04477310      -2.28358356      -0.20978690
H       -0.24998806      -1.16635894      -1.55793241
H       -1.07799651      -0.68095969       1.34603429
H       -2.18350912      -1.25525230       0.09908167
H       -2.00247386       0.83872567      -1.14851036
H       -2.18591319       1.32653340       0.53028833
H       -0.09567023       2.55955404      -0.15742059
H        2.37290949       1.37417552       0.78646454
17
Frame=1 idx=008415 GeodesicLength=0.09945554878004864 rxn_smarts="[O:1]([C@@:2]1([H:9])[C:3]([H:10])([H:11])[C:4]([H:12])([H:13])[C:5]([H:14])([H:15])[C:6]([H:16])=[C:7]1[H:17])[H:8]>>[H:8][H:17].[O:1]=[C:2]([C:7]1=[C:6]([H:16])[C:5]([H:14])([H:15])[C:4]([H:12])([H:13])[C:3]1([H:10])[H:11])[H:9]"
O        1.87296425      -0.94505612       1.02975478
C        1.41324169      -0.63376634      -0.13111720
C       -0.12293275      -1.23321174      -0.46890292
C       -1.29555252      -0.64187990       0.28395415
C       -1.53498762       0.79495187      -0.15880086
C       -0.18174931       1.47713972      -0.22775953
C        0.86702489       0.71624768      -0.23747529
H        2.42477241       0.64812510       1.21733757
H        2.00123262      -0.90989927      -1.02618106
H        0.03957628      -2.27599369      -0.20150332
H       -0.25930392      -1.17231976      -1.55134586
H       -1.07915115      -0.67424104       1.35418732
H       -2.18601815      -1.25104405       0.11068769
H       -2.01643873       0.83736121      -1.14100651
H       -2.17901260       1.33738780       0.53567820
H       -0.09252870       2.55617910      -0.22326242
H        2.32886330       1.37001944       0.83575528
17
Frame=2 idx=008415 GeodesicLength=0.19892903536079085 rxn_smarts="[O:1]([C@@:2]1([H:9])[C:3]([H:10])([H:11])[C:4]([H:12])([H:13])[C:5]([H:14])([H:15])[C:6]([H:16])=[C:7]1[H:17])[H:8]>>[H:8][H:17].[O:1]=[C:2]([C:7]1=[C:6]([H:16])[C:5]([H:14])([H:15])[C:4]([H:12])([H:13])[C:3]1([H:10])[H:11])[H:9]"
O        1.91665184      -0.96560577       0.99558311
C        1.43663440      -0.63310136      -0.15324501
C       -0.12272096      -1.22477347      -0.46117612
C       -1.29820347      -0.63674029       0.29228011
C       -1.53708727       0.79889987      -0.15708990
C       -0.18224932       1.47222158      -0.25093550
C        0.86437518       0.70757824      -0.21665503
H        2.41393735       0.61965085       1.25646096
H        2.01852284      -0.87541774      -1.06104029
H        0.03581513      -2.26783532      -0.19025289
H       -0.26847257      -1.17990721      -1.54338537
H       -1.08116376      -0.66677189       1.36253489
H       -2.18866997      -1.24653732       0.12201100
H       -2.02989402       0.83599320      -1.13404131
H       -2.17176789       1.34899413       0.54000946
H       -0.08832381       2.55035677      -0.28748529
H        2.28261629       1.36299574       0.88642718
17
Frame=3 idx=008415 GeodesicLength=0.2984298671215544 rxn_smarts="[O:1]([C@@:2]1([H:9])[C:3]([H:10])([H:11])[C:4]([H:12])([H:13])[C:5]([H:14])([H:15])[C:6]([H:16])=[C:7]1[H:17])[H:8]>>[H:8][H:17].[O:1]=[C:2]([C:7]1=[C:6]([H:16])[C:5]([H:14])([H:15])[C:4]([H:12])([H:13])[C:3]1([H:10])[H:11])[H:9]"
O        1.96113018      -0.98382229       0.95880944
C        1.45967355      -0.63050028      -0.17673733
C       -0.12217824      -1.21650255      -0.45219971
C       -1.30119409      -0.63131110       0.30058725
C       -1.53899216       0.80305025      -0.15604673
C       -0.18245128       1.46661075      -0.27412329
C        0.86108142       0.69908782      -0.19616655
H        2.40303625       0.58847528       1.29430196
H        2.03514650      -0.83745143      -1.09638282
H        0.03358924      -2.25909316      -0.17576362
H       -0.27739476      -1.18928326      -1.53391109
H       -1.08428010      -0.65858030       1.37103009
H       -2.19155064      -1.24174610       0.13285468
H       -2.04252534       0.83468135      -1.12787891
H       -2.16444178       1.36122510       0.54300768
H       -0.08308484       2.54234188      -0.34920086
H        2.23443609       1.35281802       0.93781981
17
Frame=4 idx=008415 GeodesicLength=0.3979632771764761 rxn_smarts="[O:1]([C@@:2]1([H:9])[C:3]([H:10])([H:11])[C:4]([H:12])([H:13])[C:5]([H:14])([H:15])[C:6]([H:16])=[C:7]1[H:17])[H:8]>>[H:8][H:17].[O:1]=[C:2]([C:7]1=[C:6]([H:16])[C:5]([H:14])([H:15])[C:4]([H:12])([H:13])[C:3]1([H:10])[H:11])[H:9]"
O        2.00616480      -0.99934164       0.91962666
C        1.48223146      -0.62592579      -0.20147364
C       -0.12131906      -1.20843274      -0.44191887
C       -1.30460396      -0.62562640       0.30881066
C       -1.54072243       0.80736086      -0.15574440
C       -0.18235681       1.46036729      -0.29677134
C        0.85720817       0.69074961      -0.17625442
H        2.39246462       0.55459698       1.33034619
H        2.05101051      -0.79616966      -1.13188361
H        0.03296564      -2.24973334      -0.15786204
H       -0.28596486      -1.20052681      -1.52280492
H       -1.08871048      -0.64969895       1.37963209
H       -2.19472873      -1.23670347       0.14305470
H       -2.05406452       0.83346026      -1.12276437
H       -2.15732639       1.37392333       0.54445285
H       -0.07689288       2.53246691      -0.40776956
H        2.18464494       1.33923358       0.98932400
17
Frame=5 idx=008415 GeodesicLength=0.49753284664750946 rxn_smarts="[O:1]([C@@:2]1([H:9])[C:3]([H:10])([H:11])[C:4]([H:12])([H:13])[C:5]([H:14])([H:15])[C:6]([H:16])=[C:7]1[H:17])[H:8]>>[H:8][H:17].[O:1]=[C:2]([C:7]1=[C:6]([H:16])[C:5]([H:14])([H:15])[C:4]([H:12])([H:13])[C:3]1([H:10])[H:11])[H:9]"
O        2.05146561      -1.01188063       0.87829406
C        1.50418318      -0.61940683      -0.22731309
C       -0.12015770      -1.20057736      -0.43031195
C       -1.30848319      -0.61971341       0.31689297
C       -1.54230303       0.81177426      -0.15624837
C       -0.18198267       1.45359246      -0.31845107
C        0.85285394       0.68252748      -0.15717326
H        2.38242346       0.51805963       1.36423813
H        2.06605829      -0.75184085      -1.16720529
H        0.03398378      -2.23969039      -0.13646201
H       -0.29405731      -1.21365486      -1.50997140
H       -1.09460703      -0.64013088       1.38829220
H       -2.19823929      -1.23144444       0.15250135
H       -2.06430547       0.83231632      -1.11891186
H       -2.15069123       1.38691291       0.54417315
H       -0.06987192       2.52111601      -0.46252756
H        2.13373058       1.32204057       1.04018400
17
Frame=6 idx=008415 GeodesicLength=0.5971326940498884 rxn_smarts="[O:1]([C@@:2]1([H:9])[C:3]([H:10])([H:11])[C:4]([H:12])([H:13])[C:5]([H:14])([H:15])[C:6]([H:16])=[C:7]1[H:17])[H:8]>>[H:8][H:17].[O:1]=[C:2]([C:7]1=[C:6]([H:16])[C:5]([H:14])([H:15])[C:4]([H:12])([H:13])[C:3]1([H:10])[H:11])[H:9]"
O        2.09673586      -1.02131701       0.83509975
C        1.52542108      -0.61101047      -0.25409743
C       -0.11872109      -1.19293016      -0.41738548
C       -1.31286685      -0.61360382       0.32479643
C       -1.54378027       0.81624111      -0.15759227
C       -0.18136971       1.44643413      -0.33882541
C        0.84812533       0.67439869      -0.13903610
H        2.37332089       0.47887587       1.39560387
H        2.08025816      -0.70470209      -1.20203267
H        0.03664122      -2.22889440      -0.11157636
H       -0.30156839      -1.22860968      -1.49534766
H       -1.10206543      -0.62989081       1.39697829
H       -2.20210218      -1.22602835       0.16112678
H       -2.07314360       0.83121350      -1.11648080
H       -2.14477914       1.40004137       0.54207355
H       -0.06216521       2.50868123      -0.51325950
H        2.08205932       1.30110090       1.08995503
17
Frame=7 idx=008415 GeodesicLength=0.6967799770494091 rxn_smarts="[O:1]([C@@:2]1([H:9])[C:3]([H:10])([H:11])[C:4]([H:12])([H:13])[C:5]([H:14])([H:15])[C:6]([H:16])=[C:7]1[H:17])[H:8]>>[H:8][H:17].[O:1]=[C:2]([C:7]1=[C:6]([H:16])[C:5]([H:14])([H:15])[C:4]([H:12])([H:13])[C:3]1([H:10])[H:11])[H:9]"
O        2.14164875      -1.02761528       0.79036623
C        1.54584594      -0.60084213      -0.28166014
C       -0.11703483      -1.18546760      -0.40317885
C       -1.31776089      -0.60732446       0.33249097
C       -1.54519167       0.82070706      -0.15978441
C       -0.18056133       1.43903464      -0.35771011
C        0.84313377       0.66633992      -0.12193732
H        2.36536862       0.43707363       1.42422717
H        2.09361989      -0.65502214      -1.23604982
H        0.04090999      -2.21724852      -0.08330392
H       -0.30838487      -1.24528019      -1.47890092
H       -1.11112133      -0.61898529       1.40564934
H       -2.20630671      -1.22050949       0.16890644
H       -2.08054618       0.83009062      -1.11555425
H       -2.13975403       1.41316607       0.53813506
H       -0.05392695       2.49552727      -0.55983307
H        2.03006184       1.27635589       1.13813761
17
Frame=8 idx=008415 GeodesicLength=0.7964908672400434 rxn_smarts="[O:1]([C@@:2]1([H:9])[C:3]([H:10])([H:11])[C:4]([H:12])([H:13])[C:5]([H:14])([H:15])[C:6]([H:16])=[C:7]1[H:17])[H:8]>>[H:8][H:17].[O:1]=[C:2]([C:7]1=[C:6]([H:16])[C:5]([H:14])([H:15])[C:4]([H:12])([H:13])[C:3]1([H:10])[H:11])[H:9]"
O        2.18587087      -1.03083817       0.74444273
C        1.56537412      -0.58902884      -0.30982398
C       -0.11512994      -1.17815441      -0.38776106
C       -1.32315369      -0.60090516       0.33995447
C       -1.54657133       0.82512413      -0.16279829
C       -0.17960450       1.43152686      -0.37502421
C        0.83798205       0.65833692      -0.10591106
H        2.35874271       0.39267999       1.44995889
H        2.10619326      -0.60305455      -1.26894128
H        0.04672915      -2.20464894      -0.05182889
H       -0.31440543      -1.26350498      -1.46063391
H       -1.12176060      -0.60744007       1.41426239
H       -2.21082708      -1.21494556       0.17584060
H       -2.08655172       0.82888634      -1.11613564
H       -2.13570747       1.42616773       0.53241783
H       -0.04530768       2.48196164      -0.60234746
H        1.97812727       1.24783707       1.18432887
17
Frame=9 idx=008415 GeodesicLength=0.8962890220643023 rxn_smarts="[O:1]([C@@:2]1([H:9])[C:3]([H:10])([H:11])[C:4]([H:12])([H:13])[C:5]([H:14])([H:15])[C:6]([H:16])=[C:7]1[H:17])[H:8]>>[H:8][H:17].[O:1]=[C:2]([C:7]1=[C:6]([H:16])[C:5]([H:14])([H:15])[C:4]([H:12])([H:13])[C:3]1([H:10])[H:11])[H:9]"
O        2.22907458      -1.03112957       0.69769076
C        1.58393926      -0.57570903      -0.33840814
C       -0.11304175      -1.17094906      -0.37122455
C       -1.32901885      -0.59437689       0.34717116
C       -1.54794675       0.82945153      -0.16658044
C       -0.17854615       1.42402232      -0.39076942
C        0.83275988       0.65038341      -0.09095071
H        2.35357369       0.34572561       1.47271162
H        2.11806239      -0.54903485      -1.30039485
H        0.05400829      -2.19099135      -0.01740189
H       -0.31954541      -1.28308964      -1.44058050
H       -1.13392606      -0.59529760       1.42277218
H       -2.21562573      -1.20939202       0.18194885
H       -2.09124934       0.82754566      -1.11816253
H       -2.13266593       1.43895092       0.52504111
H       -0.03644841       2.46822068      -0.64105871
H        1.92659632       1.21566986       1.22819606
17
Frame=10 idx=008415 GeodesicLength=0.9962044020261676 rxn_smarts="[O:1]([C@@:2]1([H:9])[C:3]([H:10])([H:11])[C:4]([H:12])([H:13])[C:5]([H:14])([H:15])[C:6]([H:16])=[C:7]1[H:17])[H:8]>>[H:8][H:17].[O:1]=[C:2]([C:7]1=[C:6]([H:16])[C:5]([H:14])([H:15])[C:4]([H:12])([H:13])[C:3]1([H:10])[H:11])[H:9]"
O        2.27093479      -1.02870269       0.65050091
C        1.60148833      -0.56103471      -0.36721662
C       -0.11081658      -1.16381445      -0.35367850
C       -1.33533275      -0.58777917       0.35412206
C       -1.54934246       0.83365123      -0.17106040
C       -0.17743261       1.41660363      -0.40499336
C        0.82753517       0.64247140      -0.07701374
H        2.34997950       0.29627460       1.49242606
H        2.12934656      -0.49318806      -1.33008038
H        0.06261564      -2.17618627       0.01967112
H       -0.32373347      -1.30381931      -1.41880479
H       -1.14755163      -0.58262864       1.43112544
H       -2.22067148      -1.20390507       0.18724485
H       -2.09475311       0.82602689      -1.12153078
H       -2.13061591       1.45143300       0.51615845
H       -0.02747843       2.45448079      -0.67625495
H        1.87582845       1.18011684       1.26938464
17
Frame=11 idx=008415 GeodesicLength=1.0962779214073448 rxn_smarts="[O:1]([C@@:2]1([H:9])[C:3]([H:10])([H:11])[C:4]([H:12])([H:13])[C:5]([H:14])([H:15])[C:6]([H:16])=[C:7]1[H:17])[H:8]>>[H:8][H:17].[O:1]=[C:2]([C:7]1=[C:6]([H:16])[C:5]([H:14])([H:15])[C:4]([H:12])([H:13])[C:3]1([H:10])[H:11])[H:9]"
O        2.31116056      -1.02382832       0.60325134
C        1.61799154      -0.54515675      -0.39606134
C       -0.10850420      -1.15671678      -0.33524745
C       -1.34206249      -0.58115432       0.36079471
C       -1.55077507       0.83769205      -0.17614673
C       -0.17630619       1.40932628      -0.41778558
C        0.82236062       0.63459660      -0.06404376
H        2.34799607       0.24437455       1.50910525
H        2.14019162      -0.43571975      -1.35767631
H        0.07239160      -2.16016371       0.05903782
H       -0.32692157      -1.32546566      -1.39539921
H       -1.16253986      -0.56952280       1.43927058
H       -2.22592876      -1.19853678       0.19175623
H       -2.09720175       0.82430357      -1.12608961
H       -2.12949721       1.46354986       0.50596226
H       -0.01851245       2.44084936      -0.70830989
H        1.82615754       1.14157258       1.30758169
17
Frame=12 idx=008415 GeodesicLength=1.1965526580161092 rxn_smarts="[O:1]([C@@:2]1([H:9])[C:3]([H:10])([H:11])[C:4]([H:12])([H:13])[C:5]([H:14])([H:15])[C:6]([H:16])=[C:7]1[H:17])[H:8]>>[H:8][H:17].[O:1]=[C:2]([C:7]1=[C:6]([H:16])[C:5]([H:14])([H:15])[C:4]([H:12])([H:13])[C:3]1([H:10])[H:11])[H:9]"
O        2.34950315      -1.01682169       0.55630018
C        1.63344272      -0.52821958      -0.42476334
C       -0.10615708      -1.14962862      -0.31606599
C       -1.34917072      -0.57454837       0.36718155
C       -1.55225582       0.84154813      -0.18173288
C       -0.17520613       1.40221964      -0.42926094
C        0.81727299       0.62675601      -0.05197468
H        2.34758497       0.19004370       1.52280578
H        2.15076247      -0.37681812      -1.38286902
H        0.08315139      -2.14288156       0.10031080
H       -0.32908371      -1.34779358      -1.37048142
H       -1.17877283      -0.55608798       1.44715883
H       -2.23136203      -1.19333572       0.19551851
H       -2.09874908       0.82236474      -1.13165565
H       -2.12921779       1.47525138       0.49467112
H       -0.00965235       2.42737203      -0.73764223
H        1.77790986       1.10057960       1.34249938
17
Frame=13 idx=008415 GeodesicLength=1.297061143216812 rxn_smarts="[O:1]([C@@:2]1([H:9])[C:3]([H:10])([H:11])[C:4]([H:12])([H:13])[C:5]([H:14])([H:15])[C:6]([H:16])=[C:7]1[H:17])[H:8]>>[H:8][H:17].[O:1]=[C:2]([C:7]1=[C:6]([H:16])[C:5]([H:14])([H:15])[C:4]([H:12])([H:13])[C:3]1([H:10])[H:11])[H:9]"
O        2.38577232      -1.00802314       0.50995818
C        1.64785946      -0.51035073      -0.45316312
C       -0.10382457      -1.14253014      -0.29626836
C       -1.35661634      -0.56800710       0.37328112
C       -1.55379209       0.84519847      -0.18770906
C       -0.17416795       1.39529192      -0.43955018
C        0.81229705       0.61894907      -0.04073398
H        2.34864046       0.13324371       1.53363341
H        2.16121923      -0.31665308      -1.40537041
H        0.09470168      -2.12432553       0.14309654
H       -0.33021512      -1.37057719      -1.34418189
H       -1.19611860      -0.54243702       1.45474840
H       -2.23693512      -1.18834587       0.19857543
H       -2.09955247       0.82020840      -1.13803497
H       -2.12967024       1.48650121       0.48250732
H       -0.00098977       2.41404838      -0.76467898
H        1.73139206       1.05780865       1.37389056
17
Frame=14 idx=008415 GeodesicLength=1.3977880352172913 rxn_smarts="[O:1]([C@@:2]1([H:9])[C:3]([H:10])([H:11])[C:4]([H:12])([H:13])[C:5]([H:14])([H:15])[C:6]([H:16])=[C:7]1[H:17])[H:8]>>[H:8][H:17].[O:1]=[C:2]([C:7]1=[C:6]([H:16])[C:5]([H:14])([H:15])[C:4]([H:12])([H:13])[C:3]1([H:10])[H:11])[H:9]"
O        2.41982885      -0.99779022       0.46450272
C        1.66127831      -0.49166622      -0.48111247
C       -0.10155961      -1.13541377      -0.27598225
C       -1.36436720      -0.56158105       0.37909073
C       -1.55539201       0.84862236      -0.19396874
C       -0.17322480       1.38852935      -0.44878636
C        0.80743907       0.61116934      -0.03024209
H        2.35103361       0.07390754       1.54167327
H        2.17172564      -0.25538387      -1.42490023
H        0.10682771      -2.10451720       0.18700699
H       -0.33032614      -1.39360374      -1.31664144
H       -1.21445633      -0.52869434       1.46199933
H       -2.24262289      -1.18361027       0.20096165
H       -2.09976482       0.81784114      -1.14503712
H       -2.13074628       1.49726786       0.46968571
H        0.00739692       2.40084800      -0.78979745
H        1.68692999       1.01407511       1.40154775
17
Frame=15 idx=008415 GeodesicLength=1.498720058465644 rxn_smarts="[O:1]([C@@:2]1([H:9])[C:3]([H:10])([H:11])[C:4]([H:12])([H:13])[C:5]([H:14])([H:15])[C:6]([H:16])=[C:7]1[H:17])[H:8]>>[H:8][H:17].[O:1]=[C:2]([C:7]1=[C:6]([H:16])[C:5]([H:14])([H:15])[C:4]([H:12])([H:13])[C:3]1([H:10])[H:11])[H:9]"
O        2.45159785      -0.98647305       0.42014092
C        1.67375359      -0.47225393      -0.50848910
C       -0.09940723      -1.12828018      -0.25532214
C       -1.37239094      -0.55531814       0.38461216
C       -1.55706249       0.85180130      -0.20041622
C       -0.17240637       1.38190544      -0.45710587
C        0.80269664       0.60341154      -0.02041853
H        2.35458783       0.01187454       1.54701608
H        2.18241727      -0.19315510      -1.44121318
H        0.11932494      -2.08350385       0.23168603
H       -0.32944043      -1.41668726      -1.28799807
H       -1.23366628      -0.51497645       1.46888064
H       -2.24839991      -1.17916906       0.20271516
H       -2.09952973       0.81526921      -1.15248728
H       -2.13234237       1.50752936       0.45640020
H        0.01543713       2.38772257      -0.81334375
H        1.64483053       0.97030306       1.42534295
17
Frame=16 idx=008415 GeodesicLength=1.5998272656764794 rxn_smarts="[O:1]([C@@:2]1([H:9])[C:3]([H:10])([H:11])[C:4]([H:12])([H:13])[C:5]([H:14])([H:15])[C:6]([H:16])=[C:7]1[H:17])[H:8]>>[H:8][H:17].[O:1]=[C:2]([C:7]1=[C:6]([H:16])[C:5]([H:14])([H:15])[C:4]([H:12])([H:13])[C:3]1([H:10])[H:11])[H:9]"
O        2.48105927      -0.97440078       0.37702120
C        1.68535379      -0.45217564      -0.53518984
C       -0.09740480      -1.12113669      -0.23438717
C       -1.38065727      -0.54926436       0.38984929
C       -1.55881030       0.85471740      -0.20696799
C       -0.17173946       1.37538369      -0.46464355
C        0.79805879       0.59567080      -0.01118490
H        2.35909487      -0.05309544       1.54971939
H        2.19340431      -0.13010809      -1.45409128
H        0.13200003      -2.06135550       0.27681336
H       -0.32758712      -1.43966521      -1.25838431
H       -1.25363678      -0.50139259       1.47536807
H       -2.25424156      -1.17506058       0.20387285
H       -2.09897907       0.81249755      -1.16022945
H       -2.13436444       1.51726904       0.44282124
H        0.02306756       2.37461440      -0.83562044
H        1.60538218       0.92750200       1.44523352
