11
Frame=0 idx=005435 GeodesicLength=0.0 rxn_smarts="[C:1]([N:2]([C:3](=[O:4])[C:5](=[O:6])[H:11])[H:10])([H:7])([H:8])[H:9]>>[C:1]([N:2]([C-:3]=[O+:4][C:5](=[O:6])[H:11])[H:10])([H:7])([H:8])[H:9]"
C       -1.13654240       1.35705561       0.11663244
N        0.18476664       0.90001770      -0.29252346
C        0.58527188      -0.34893690      -0.29468513
O       -0.22756411      -1.28363374       0.08979176
C        1.16536592      -1.95260602       0.08243345
O        1.72231392      -2.21491903       1.10228731
H       -1.64950003       0.53742042       0.61353673
H       -1.03856601       2.18985228       0.81232586
H       -1.72277618       1.67400803      -0.74685345
H        0.85422504       1.58472154      -0.59735390
H        1.26300534      -2.44297990      -0.88559162
11
Frame=1 idx=005435 GeodesicLength=0.04751728114288762 rxn_smarts="[C:1]([N:2]([C:3](=[O:4])[C:5](=[O:6])[H:11])[H:10])([H:7])([H:8])[H:9]>>[C:1]([N:2]([C-:3]=[O+:4][C:5](=[O:6])[H:11])[H:10])([H:7])([H:8])[H:9]"
C       -1.13746689       1.35787534       0.11578684
N        0.17890727       0.89163750      -0.29644356
C        0.55894973      -0.36326952      -0.34443937
O       -0.23844789      -1.28878846       0.08870709
C        1.17213874      -1.94667066       0.08710359
O        1.78225169      -2.13683415       1.09237444
H       -1.68570873       0.52890380       0.55617467
H       -1.03220568       2.14670513       0.86014660
H       -1.69770979       1.74054230      -0.73827437
H        0.86390311       1.57328611      -0.57275909
H        1.23538844      -2.50338740      -0.84837685
11
Frame=2 idx=005435 GeodesicLength=0.09510759009730049 rxn_smarts="[C:1]([N:2]([C:3](=[O:4])[C:5](=[O:6])[H:11])[H:10])([H:7])([H:8])[H:9]>>[C:1]([N:2]([C-:3]=[O+:4][C:5](=[O:6])[H:11])[H:10])([H:7])([H:8])[H:9]"
C       -1.13775222       1.35847376       0.11562491
N        0.17252383       0.88241048      -0.30249120
C        0.53306925      -0.37687419      -0.38837827
O       -0.25056555      -1.29385677       0.08391002
C        1.17785000      -1.93982619       0.09230238
O        1.83555997      -2.06135063       1.07791379
H       -1.71921436       0.52422929       0.49979351
H       -1.02588167       2.10103895       0.90531368
H       -1.67197717       1.80419052      -0.72439434
H        0.87244254       1.55901506      -0.55295979
H        1.21394538      -2.55745027      -0.80663468
11
Frame=3 idx=005435 GeodesicLength=0.14370136277574178 rxn_smarts="[C:1]([N:2]([C:3](=[O:4])[C:5](=[O:6])[H:11])[H:10])([H:7])([H:8])[H:9]>>[C:1]([N:2]([C-:3]=[O+:4][C:5](=[O:6])[H:11])[H:10])([H:7])([H:8])[H:9]"
C       -1.13785174       1.35871323       0.11557848
N        0.16569352       0.87283341      -0.31042370
C        0.50779559      -0.38983321      -0.42813296
O       -0.26323179      -1.29850879       0.07801442
C        1.18344310      -1.93184924       0.09762998
O        1.88540868      -1.98773036       1.05843146
H       -1.75133662       0.52294440       0.44239580
H       -1.02058426       2.05198071       0.94825629
H       -1.64478896       1.86632267      -0.70601631
H        0.88043048       1.54298828      -0.53552298
H        1.19502200      -2.60786110      -0.76021048
11
Frame=4 idx=005435 GeodesicLength=0.19227876019202245 rxn_smarts="[C:1]([N:2]([C:3](=[O:4])[C:5](=[O:6])[H:11])[H:10])([H:7])([H:8])[H:9]>>[C:1]([N:2]([C-:3]=[O+:4][C:5](=[O:6])[H:11])[H:10])([H:7])([H:8])[H:9]"
C       -1.13941651       1.35921341       0.11266036
N        0.15900172       0.86352014      -0.31617340
C        0.48283740      -0.40215923      -0.45974698
O       -0.27336981      -1.30059226       0.08410341
C        1.19025978      -1.92404613       0.10175365
O        1.94324963      -1.91885252       1.02468886
H       -1.78531737       0.52583031       0.37740841
H       -1.02221660       1.99930077       0.98698614
H       -1.61346409       1.92829891      -0.68797995
H        0.88923755       1.52563974      -0.51397077
H        1.16919830      -2.65615314      -0.70972972
11
Frame=5 idx=005435 GeodesicLength=0.24117129544161525 rxn_smarts="[C:1]([N:2]([C:3](=[O:4])[C:5](=[O:6])[H:11])[H:10])([H:7])([H:8])[H:9]>>[C:1]([N:2]([C-:3]=[O+:4][C:5](=[O:6])[H:11])[H:10])([H:7])([H:8])[H:9]"
C       -1.13884667       1.35872079       0.11315752
N        0.15236460       0.85452558      -0.32594894
C        0.46019547      -0.41323203      -0.49271569
O       -0.28698277      -1.30428997       0.07382826
C        1.19468977      -1.91472418       0.10733779
O        1.98450162      -1.85122046       0.99671189
H       -1.81224215       0.53101298       0.32149523
H       -1.01995722       1.94616008       1.02350690
H       -1.58456033       1.98363008      -0.66165154
H        0.89575602       1.50838287      -0.50132173
H        1.15508166      -2.69896573      -0.65439971
11
Frame=6 idx=005435 GeodesicLength=0.2903008694741818 rxn_smarts="[C:1]([N:2]([C:3](=[O:4])[C:5](=[O:6])[H:11])[H:10])([H:7])([H:8])[H:9]>>[C:1]([N:2]([C-:3]=[O+:4][C:5](=[O:6])[H:11])[H:10])([H:7])([H:8])[H:9]"
C       -1.13934186       1.35828676       0.11171954
N        0.14604173       0.84608837      -0.33395563
C        0.43828805      -0.42361861      -0.52016506
O       -0.29907381      -1.30603299       0.07101998
C        1.19981823      -1.90563167       0.11234835
O        2.03074252      -1.78815125       0.95765982
H       -1.83938018       0.53975649       0.26051015
H       -1.02355810       1.89003266       1.05609652
H       -1.55287897       2.03772561      -0.63441066
H        0.90254990       1.49075743      -0.48600691
H        1.13679250      -2.73921281      -0.59481609
11
Frame=7 idx=005435 GeodesicLength=0.3395452907300172 rxn_smarts="[C:1]([N:2]([C:3](=[O:4])[C:5](=[O:6])[H:11])[H:10])([H:7])([H:8])[H:9]>>[C:1]([N:2]([C-:3]=[O+:4][C:5](=[O:6])[H:11])[H:10])([H:7])([H:8])[H:9]"
C       -1.13890081       1.35728967       0.11166115
N        0.14022406       0.83814124      -0.34289065
C        0.41820827      -0.43294911      -0.54739621
O       -0.31274393      -1.30839148       0.06064508
C        1.20360308      -1.89584282       0.11789874
O        2.06924157      -1.72776456       0.91869623
H       -1.86240590       0.55080904       0.20441616
H       -1.02692360       1.83394166       1.08550139
H       -1.52199925       2.08640983      -0.60306861
H        0.90845017       1.47353221      -0.47432940
H        1.12324634      -2.77517569      -0.53113388
11
Frame=8 idx=005435 GeodesicLength=0.38892912754553377 rxn_smarts="[C:1]([N:2]([C:3](=[O:4])[C:5](=[O:6])[H:11])[H:10])([H:7])([H:8])[H:9]>>[C:1]([N:2]([C-:3]=[O+:4][C:5](=[O:6])[H:11])[H:10])([H:7])([H:8])[H:9]"
C       -1.13876083       1.35613940       0.11113920
N        0.13505451       0.83083875      -0.35040393
C        0.39944375      -0.44131307      -0.57206878
O       -0.32622032      -1.31006996       0.05067141
C        1.20734642      -1.88601416       0.12314150
O        2.10759063      -1.67174708       0.87331834
H       -1.88346478       0.56443874       0.14860758
H       -1.03382293       1.77772315       1.11086614
H       -1.49063593       2.13113385      -0.57048351
H        0.91435741       1.45666492      -0.46149612
H        1.10911207      -2.80779456      -0.46329184
11
Frame=9 idx=005435 GeodesicLength=0.4380593336819584 rxn_smarts="[C:1]([N:2]([C:3](=[O:4])[C:5](=[O:6])[H:11])[H:10])([H:7])([H:8])[H:9]>>[C:1]([N:2]([C-:3]=[O+:4][C:5](=[O:6])[H:11])[H:10])([H:7])([H:8])[H:9]"
C       -1.13794158       1.35443102       0.11161169
N        0.13040851       0.82397260      -0.35814335
C        0.38237913      -0.44869072      -0.59661597
O       -0.34056434      -1.31223818       0.03521480
C        1.21010054      -1.87559631       0.12889490
O        2.14061370      -1.61909456       0.82720587
H       -1.90144192       0.57991086       0.09588969
H       -1.04109520       1.72102810       1.13359285
H       -1.45960425       2.17165085      -0.53456600
H        0.91939662       1.44050866      -0.45189331
H        1.09774880      -2.83588232      -0.39119118
11
Frame=10 idx=005435 GeodesicLength=0.48724050368391103 rxn_smarts="[C:1]([N:2]([C:3](=[O:4])[C:5](=[O:6])[H:11])[H:10])([H:7])([H:8])[H:9]>>[C:1]([N:2]([C-:3]=[O+:4][C:5](=[O:6])[H:11])[H:10])([H:7])([H:8])[H:9]"
C       -1.13720733       1.35227344       0.11215334
N        0.12640752       0.81768685      -0.36491064
C        0.36678619      -0.45497620      -0.62035944
O       -0.35477742      -1.31423193       0.01770904
C        1.21287227      -1.86469067       0.13410201
O        2.17240954      -1.57062071       0.77632507
H       -1.91738420       0.59723743       0.04408466
H       -1.05085143       1.66397870       1.15314783
H       -1.42850011       2.20844775      -0.49677622
H        0.92430702       1.42509778      -0.44198668
H        1.08593795      -2.86020245      -0.31348895
11
Frame=11 idx=005435 GeodesicLength=0.5366506063730511 rxn_smarts="[C:1]([N:2]([C:3](=[O:4])[C:5](=[O:6])[H:11])[H:10])([H:7])([H:8])[H:9]>>[C:1]([N:2]([C-:3]=[O+:4][C:5](=[O:6])[H:11])[H:10])([H:7])([H:8])[H:9]"
C       -1.13634274       1.34960642       0.11279049
N        0.12286822       0.81171371      -0.37157603
C        0.35245179      -0.46055412      -0.64382394
O       -0.36937565      -1.31633429      -0.00254166
C        1.21487601      -1.85327594       0.14030867
O        2.20295964      -1.52574008       0.72038566
H       -1.93129797       0.61655695      -0.00746349
H       -1.06252248       1.60516504       1.16997010
H       -1.39709406       2.24232006      -0.45601085
H        0.92910903       1.41002755      -0.43227610
H        1.07436821      -2.87948529      -0.22976287
11
Frame=12 idx=005435 GeodesicLength=0.5862859737647259 rxn_smarts="[C:1]([N:2]([C:3](=[O:4])[C:5](=[O:6])[H:11])[H:10])([H:7])([H:8])[H:9]>>[C:1]([N:2]([C-:3]=[O+:4][C:5](=[O:6])[H:11])[H:10])([H:7])([H:8])[H:9]"
C       -1.13626731       1.34651439       0.11281524
N        0.12012036       0.80638371      -0.37593660
C        0.33945646      -0.46487391      -0.66606485
O       -0.38296470      -1.31773340      -0.02267053
C        1.21774123      -1.84140739       0.14544610
O        2.23573896      -1.48698322       0.65392567
H       -1.94371873       0.63799659      -0.06097627
H       -1.07913407       1.54511344       1.18322282
H       -1.36515737       2.27326084      -0.41355849
H        0.93411561       1.39574150      -0.41941775
H        1.06006956      -2.89401255      -0.13678535
11
Frame=13 idx=005435 GeodesicLength=0.6349071511748561 rxn_smarts="[C:1]([N:2]([C:3](=[O:4])[C:5](=[O:6])[H:11])[H:10])([H:7])([H:8])[H:9]>>[C:1]([N:2]([C-:3]=[O+:4][C:5](=[O:6])[H:11])[H:10])([H:7])([H:8])[H:9]"
C       -1.13503338       1.34241210       0.11428246
N        0.11809753       0.80122455      -0.38088982
C        0.32851032      -0.46806605      -0.69021573
O       -0.39748979      -1.32052912      -0.05157994
C        1.21871386      -1.82858031       0.15179931
O        2.26194029      -1.45248178       0.58905872
H       -1.95275384       0.65980725      -0.10899677
H       -1.09400318       1.48565188       1.19424805
H       -1.33494716       2.29885254      -0.36871001
H        0.93872034       1.38230323      -0.40957880
H        1.04824500      -2.90059429      -0.03941745
11
Frame=14 idx=005435 GeodesicLength=0.6829728297086605 rxn_smarts="[C:1]([N:2]([C:3](=[O:4])[C:5](=[O:6])[H:11])[H:10])([H:7])([H:8])[H:9]>>[C:1]([N:2]([C-:3]=[O+:4][C:5](=[O:6])[H:11])[H:10])([H:7])([H:8])[H:9]"
C       -1.13446562       1.33755054       0.11535977
N        0.11696556       0.79630783      -0.38345990
C        0.31930501      -0.47021549      -0.71323455
O       -0.41115315      -1.32304470      -0.08151046
C        1.21978259      -1.81505074       0.15947604
O        2.28953466      -1.42618753       0.51426476
H       -1.96016528       0.68325189      -0.15836581
H       -1.11311739       1.42482973       1.20189139
H       -1.30463106       2.32123508      -0.32191870
H        0.94334784       1.36976013      -0.39805640
H        1.03459685      -2.89843671       0.06555386
11
Frame=15 idx=005435 GeodesicLength=0.7300232921186869 rxn_smarts="[C:1]([N:2]([C:3](=[O:4])[C:5](=[O:6])[H:11])[H:10])([H:7])([H:8])[H:9]>>[C:1]([N:2]([C-:3]=[O+:4][C:5](=[O:6])[H:11])[H:10])([H:7])([H:8])[H:9]"
C       -1.13365923       1.33159687       0.11716112
N        0.11680874       0.79159589      -0.38487828
C        0.31224783      -0.47097165      -0.73738710
O       -0.42420557      -1.32640136      -0.11748179
C        1.22025466      -1.80041041       0.16749320
O        2.31379974      -1.40763580       0.43583209
H       -1.96502895       0.70675605      -0.20476425
H       -1.13294692       1.36445770       1.20699624
H       -1.27596958       2.33887564      -0.27364689
H        0.94799680       1.35836583      -0.38656489
H        1.02070248      -2.88622877       0.17724056
11
Frame=16 idx=005435 GeodesicLength=0.7760088291225897 rxn_smarts="[C:1]([N:2]([C:3](=[O:4])[C:5](=[O:6])[H:11])[H:10])([H:7])([H:8])[H:9]>>[C:1]([N:2]([C-:3]=[O+:4][C:5](=[O:6])[H:11])[H:10])([H:7])([H:8])[H:9]"
C       -1.13344356       1.32421716       0.11914917
N        0.11798151       0.78723218      -0.38296580
C        0.30789645      -0.46945546      -0.76210337
O       -0.43522310      -1.32991477      -0.15877225
C        1.22136500      -1.78477057       0.17409125
O        2.33730897      -1.40099613       0.34720373
H       -1.96769610       0.72991164      -0.24993660
H       -1.15574028       1.30458192       1.20906877
H       -1.24932807       2.35159274      -0.22499088
H        0.95286359       1.34838506      -0.37117473
H        1.00401559      -2.86078377       0.30043069
