7
Frame=0 idx=002473 GeodesicLength=0.0 rxn_smarts="[O:1]=[c:2]1[o:3][c:4]([H:7])[n:5][o:6]1>>[O:1]=[C:2]=[O:6].[O:3]=[C:4]=[N:5][H:7]"
O        2.36538509      -0.60916739       0.01937782
C        1.50242753       0.14579703       0.05240752
O       -0.35995106      -1.19694206      -0.10714930
C       -1.11171092      -0.23658532      -0.04917090
N       -0.99638550       1.03708755       0.05585358
O        0.84060505       1.13140942       0.10902855
H       -2.24037018      -0.27159921      -0.08034724
7
Frame=1 idx=002473 GeodesicLength=0.07667960591913907 rxn_smarts="[O:1]=[c:2]1[o:3][c:4]([H:7])[n:5][o:6]1>>[O:1]=[C:2]=[O:6].[O:3]=[C:4]=[N:5][H:7]"
O        2.37769538      -0.60008951       0.01318691
C        1.49591631       0.13314461       0.07083409
O       -0.34610427      -1.19760813      -0.09979390
C       -1.10721686      -0.24125169      -0.11626708
N       -1.01082956       1.02561008       0.03865687
O        0.83740481       1.12602807       0.12213986
H       -2.24686581      -0.24583344      -0.02875676
7
Frame=2 idx=002473 GeodesicLength=0.1543259079849496 rxn_smarts="[O:1]=[c:2]1[o:3][c:4]([H:7])[n:5][o:6]1>>[O:1]=[C:2]=[O:6].[O:3]=[C:4]=[N:5][H:7]"
O        2.38829980      -0.59120594       0.01079704
C        1.48875244       0.12056741       0.08352280
O       -0.33361088      -1.19615950      -0.10240802
C       -1.10470288      -0.24730374      -0.16299654
N       -1.02480828       1.01492773       0.01317851
O        0.83328823       1.12005166       0.13846058
H       -2.24721843      -0.22087761       0.01944563
7
Frame=3 idx=002473 GeodesicLength=0.23213150872743182 rxn_smarts="[O:1]=[c:2]1[o:3][c:4]([H:7])[n:5][o:6]1>>[O:1]=[C:2]=[O:6].[O:3]=[C:4]=[N:5][H:7]"
O        2.39798415      -0.58215028       0.01156885
C        1.48105629       0.10795493       0.09403393
O       -0.32119635      -1.19428032      -0.11284748
C       -1.10376307      -0.25444906      -0.19778449
N       -1.03836678       1.00486475      -0.01674514
O        0.82824125       1.11360493       0.15491176
H       -2.24395548      -0.19554496       0.06686257
7
Frame=4 idx=002473 GeodesicLength=0.3101364195292149 rxn_smarts="[O:1]=[c:2]1[o:3][c:4]([H:7])[n:5][o:6]1>>[O:1]=[C:2]=[O:6].[O:3]=[C:4]=[N:5][H:7]"
O        2.40722226      -0.57291705       0.01444075
C        1.47337530       0.09577003       0.09998623
O       -0.30881893      -1.19258272      -0.12495133
C       -1.10382266      -0.26243985      -0.22523774
N       -1.05164377       0.99473117      -0.04634957
O        0.82244772       1.10670738       0.17197897
H       -2.23875992      -0.16926896       0.11013269
7
Frame=5 idx=002473 GeodesicLength=0.38830316128254166 rxn_smarts="[O:1]=[c:2]1[o:3][c:4]([H:7])[n:5][o:6]1>>[O:1]=[C:2]=[O:6].[O:3]=[C:4]=[N:5][H:7]"
O        2.41581203      -0.56331151       0.01850838
C        1.46530979       0.08352746       0.10626386
O       -0.29641055      -1.19102393      -0.14057589
C       -1.10487260      -0.27107643      -0.24854377
N       -1.06469265       0.98449643      -0.07713077
O        0.81587466       1.09951468       0.18807558
H       -2.23102069      -0.14212669       0.15340262
7
Frame=6 idx=002473 GeodesicLength=0.4665832130739168 rxn_smarts="[O:1]=[c:2]1[o:3][c:4]([H:7])[n:5][o:6]1>>[O:1]=[C:2]=[O:6].[O:3]=[C:4]=[N:5][H:7]"
O        2.42353185      -0.55428520       0.02919635
C        1.45716480       0.07189114       0.10760102
O       -0.28383603      -1.18920367      -0.16155106
C       -1.10704372      -0.27998855      -0.26885116
N       -1.07802872       0.97402374      -0.10663082
O        0.80863792       1.09222475       0.20205339
H       -2.22042610      -0.11466221       0.19818228
7
Frame=7 idx=002473 GeodesicLength=0.5450465858550397 rxn_smarts="[O:1]=[c:2]1[o:3][c:4]([H:7])[n:5][o:6]1>>[O:1]=[C:2]=[O:6].[O:3]=[C:4]=[N:5][H:7]"
O        2.43040144      -0.54475909       0.03932227
C        1.44841322       0.05988441       0.11196380
O       -0.27123489      -1.18745276      -0.18503617
C       -1.10997227      -0.28951884      -0.28682501
N       -1.09142264       0.96313137      -0.13686122
O        0.80071957       1.08487370       0.21442606
H       -2.20690443      -0.08615879       0.24301027
7
Frame=8 idx=002473 GeodesicLength=0.6235679714342337 rxn_smarts="[O:1]=[c:2]1[o:3][c:4]([H:7])[n:5][o:6]1>>[O:1]=[C:2]=[O:6].[O:3]=[C:4]=[N:5][H:7]"
O        2.43642488      -0.53588165       0.05352050
C        1.43995416       0.04848968       0.11239394
O       -0.25855315      -1.18528361      -0.21044372
C       -1.11346497      -0.29922097      -0.30235747
N       -1.10533491       0.95178244      -0.16372398
O        0.79271549       1.07767948       0.22459596
H       -2.19174150      -0.05756536       0.28601477
7
Frame=9 idx=002473 GeodesicLength=0.702205347883047 rxn_smarts="[O:1]=[c:2]1[o:3][c:4]([H:7])[n:5][o:6]1>>[O:1]=[C:2]=[O:6].[O:3]=[C:4]=[N:5][H:7]"
O        2.44192409      -0.52645893       0.06544390
C        1.43133389       0.03675202       0.11528570
O       -0.24589111      -1.18309090      -0.23544818
C       -1.11716477      -0.30947429      -0.31570552
N       -1.11931671       0.93983457      -0.18955670
O        0.78454641       1.07047507       0.23398100
H       -2.17543179      -0.02803754       0.32599979
7
Frame=10 idx=002473 GeodesicLength=0.780921424044344 rxn_smarts="[O:1]=[c:2]1[o:3][c:4]([H:7])[n:5][o:6]1>>[O:1]=[C:2]=[O:6].[O:3]=[C:4]=[N:5][H:7]"
O        2.44670689      -0.51723041       0.07864958
C        1.42284317       0.02516056       0.11739194
O       -0.23313485      -1.18049564      -0.26158546
C       -1.12114485      -0.32008930      -0.32706179
N       -1.13371909       0.92734050      -0.21336695
O        0.77639592       1.06343999       0.24179709
H       -2.15794719       0.00187430       0.36417558
7
Frame=11 idx=002473 GeodesicLength=0.8597278678638323 rxn_smarts="[O:1]=[c:2]1[o:3][c:4]([H:7])[n:5][o:6]1>>[O:1]=[C:2]=[O:6].[O:3]=[C:4]=[N:5][H:7]"
O        2.45078207      -0.50816454       0.09267877
C        1.41440891       0.01357766       0.11955012
O       -0.22025931      -1.17739613      -0.28895421
C       -1.12531672      -0.33111412      -0.33656611
N       -1.14858804       0.91425832      -0.23540837
O        0.76833892       1.05665429       0.24796535
H       -2.13936583       0.03218453       0.40073445
7
Frame=12 idx=002473 GeodesicLength=0.9386511324648071 rxn_smarts="[O:1]=[c:2]1[o:3][c:4]([H:7])[n:5][o:6]1>>[O:1]=[C:2]=[O:6].[O:3]=[C:4]=[N:5][H:7]"
O        2.45416151      -0.49925347       0.10722920
C        1.40591551       0.00183664       0.12255422
O       -0.20723715      -1.17364379      -0.31776500
C       -1.12959965      -0.34258996      -0.34432800
N       -1.16399545       0.90053798      -0.25580819
O        0.76046704       1.05023450       0.25224250
H       -2.11971182       0.06287810       0.43587527
7
Frame=13 idx=002473 GeodesicLength=1.0177018703224865 rxn_smarts="[O:1]=[c:2]1[o:3][c:4]([H:7])[n:5][o:6]1>>[O:1]=[C:2]=[O:6].[O:3]=[C:4]=[N:5][H:7]"
O        2.45617162      -0.49170122       0.12688743
C        1.39750918      -0.00949249       0.12367610
O       -0.19394353      -1.16845940      -0.35055234
C       -1.13412577      -0.35434156      -0.35051922
N       -1.18064482       0.88624357      -0.27345603
O        0.75309625       1.04479646       0.25230753
H       -2.09806294       0.09295464       0.47165654
7
Frame=14 idx=002473 GeodesicLength=1.0968840629994236 rxn_smarts="[O:1]=[c:2]1[o:3][c:4]([H:7])[n:5][o:6]1>>[O:1]=[C:2]=[O:6].[O:3]=[C:4]=[N:5][H:7]"
O        2.45690569      -0.48494205       0.14864796
C        1.38879966      -0.02105199       0.12618911
O       -0.18042639      -1.16177439      -0.38632463
C       -1.13860329      -0.36651739      -0.35525592
N       -1.19832919       0.87125380      -0.28885473
O        0.74636508       1.04036428       0.24842105
H       -2.07471157       0.12266775       0.50717717
7
Frame=15 idx=002473 GeodesicLength=1.176146881715666 rxn_smarts="[O:1]=[c:2]1[o:3][c:4]([H:7])[n:5][o:6]1>>[O:1]=[C:2]=[O:6].[O:3]=[C:4]=[N:5][H:7]"
O        2.45605032      -0.47963204       0.17446479
C        1.38028666      -0.03212143       0.12692871
O       -0.16678288      -1.15326039      -0.42469754
C       -1.14284592      -0.37905146      -0.35860876
N       -1.21714926       0.85557248      -0.30133096
O        0.74041046       1.03694915       0.24088808
H       -2.04996938       0.15154368       0.54235569
7
Frame=16 idx=002473 GeodesicLength=1.2554253221825111 rxn_smarts="[O:1]=[c:2]1[o:3][c:4]([H:7])[n:5][o:6]1>>[O:1]=[C:2]=[O:6].[O:3]=[C:4]=[N:5][H:7]"
O        2.45409580      -0.47517575       0.20152658
C        1.37231355      -0.04266705       0.12580574
O       -0.15322714      -1.14339021      -0.46305547
C       -1.14651146      -0.39203205      -0.36064232
N       -1.23648305       0.83913889      -0.31151387
O        0.73501708       1.03391601       0.23251421
H       -2.02520479       0.18021017       0.57536513
