17
Frame=0 idx=011053 GeodesicLength=0.0 rxn_smarts="[C:1]([N:2]([C:3](=[O:4])[N:5]([C:6]([H:12])([H:13])[H:14])[C:7]([H:15])([H:16])[H:17])[H:11])([H:8])([H:9])[H:10]>>[C:1]([O:4]/[C:3](=[N:2]/[H:11])[N:5]([C:6]([H:12])([H:13])[H:14])[C:7]([H:15])([H:16])[H:17])([H:8])([H:9])[H:10]"
C        2.73026849      -0.73634853      -0.33272953
N        1.27317884       0.75408356      -0.43380265
C        0.37907897      -0.14955159      -0.14282264
O        0.85368248      -1.31950288       0.00326778
N       -0.96160807       0.06733951      -0.01377209
C       -1.80990070      -0.95556025       0.55882679
C       -1.48178082       1.41240074      -0.04904343
H        2.98259400      -0.62607269       0.71056527
H        2.76078185      -1.75597357      -0.69385625
H        3.24629247      -0.05051289      -0.98672207
H        1.02758098       1.72945260      -0.52301504
H       -1.99799062      -0.77989451       1.62500929
H       -1.32770251      -1.92203228       0.44612972
H       -2.77020198      -0.97211819       0.03809247
H       -1.08631743       1.95363789      -0.90983138
H       -2.56572610       1.36990212      -0.15745434
H       -1.25222993       1.98075104       0.86115805
17
Frame=1 idx=011053 GeodesicLength=0.0400404525450725 rxn_smarts="[C:1]([N:2]([C:3](=[O:4])[N:5]([C:6]([H:12])([H:13])[H:14])[C:7]([H:15])([H:16])[H:17])[H:11])([H:8])([H:9])[H:10]>>[C:1]([O:4]/[C:3](=[N:2]/[H:11])[N:5]([C:6]([H:12])([H:13])[H:14])[C:7]([H:15])([H:16])[H:17])([H:8])([H:9])[H:10]"
C        2.72055757      -0.72696093      -0.32292518
N        1.26804063       0.74406660      -0.46287424
C        0.37194617      -0.16056311      -0.17619802
O        0.85162763      -1.32367456       0.00809860
N       -0.96478903       0.06391539      -0.02138603
C       -1.80865815      -0.95372701       0.56668654
C       -1.47940638       1.41108159      -0.05452326
H        2.97224334      -0.66528167       0.72523495
H        2.75576929      -1.72592548      -0.73823518
H        3.27259868      -0.02268997      -0.92746105
H        1.02154320       1.72112277      -0.52292855
H       -1.98317218      -0.77174083       1.63409613
H       -1.32985867      -1.92187215       0.45382918
H       -2.77529659      -0.96973193       0.05780490
H       -1.09058611       1.94951964      -0.92011569
H       -2.56458756       1.37174474      -0.15096753
H       -1.23797185       1.98071692       0.85186443
17
Frame=2 idx=011053 GeodesicLength=0.0801221945920649 rxn_smarts="[C:1]([N:2]([C:3](=[O:4])[N:5]([C:6]([H:12])([H:13])[H:14])[C:7]([H:15])([H:16])[H:17])[H:11])([H:8])([H:9])[H:10]>>[C:1]([O:4]/[C:3](=[N:2]/[H:11])[N:5]([C:6]([H:12])([H:13])[H:14])[C:7]([H:15])([H:16])[H:17])([H:8])([H:9])[H:10]"
C        2.71063950      -0.71748049      -0.31359039
N        1.26305753       0.73408141      -0.49059929
C        0.36544187      -0.17126302      -0.20560403
O        0.84945566      -1.32766733       0.01136579
N       -0.96728403       0.06059036      -0.02781309
C       -1.80710650      -0.95169404       0.57486939
C       -1.47679271       1.40959799      -0.06051934
H        2.96319036      -0.70680426       0.73685445
H        2.75075530      -1.69239954      -0.78292621
H        3.29440873       0.00404719      -0.86737341
H        1.01611850       1.71206615      -0.52178519
H       -1.96976553      -0.76293222       1.64295076
H       -1.33129279      -1.92142030       0.46310816
H       -2.77913976      -0.96768521       0.07639529
H       -1.09391527       1.94469262      -0.93084504
H       -2.56293953       1.37304379      -0.14629240
H       -1.22483132       1.98122689       0.84180456
17
Frame=3 idx=011053 GeodesicLength=0.12010739217139454 rxn_smarts="[C:1]([N:2]([C:3](=[O:4])[N:5]([C:6]([H:12])([H:13])[H:14])[C:7]([H:15])([H:16])[H:17])[H:11])([H:8])([H:9])[H:10]>>[C:1]([O:4]/[C:3](=[N:2]/[H:11])[N:5]([C:6]([H:12])([H:13])[H:14])[C:7]([H:15])([H:16])[H:17])([H:8])([H:9])[H:10]"
C        2.70060773      -0.70791089      -0.30408248
N        1.25819709       0.72409635      -0.51760738
C        0.35931652      -0.18179314      -0.23250853
O        0.84708437      -1.33187503       0.01238150
N       -0.96933049       0.05735028      -0.03350068
C       -1.80530377      -0.94954467       0.58323843
C       -1.47396360       1.40810507      -0.06662690
H        2.95483796      -0.75013388       0.74592166
H        2.74663227      -1.65563632      -0.82647176
H        3.31220509       0.02964058      -0.80602643
H        1.01104676       1.70225626      -0.52139559
H       -1.95703769      -0.75385339       1.65166020
H       -1.33227711      -1.92083309       0.47314392
H       -2.78223353      -0.96571671       0.09442342
H       -1.09677938       1.93953611      -0.94170904
H       -2.56094717       1.37419910      -0.14225734
H       -1.21205506       1.98211337       0.83141700
17
Frame=4 idx=011053 GeodesicLength=0.16022396419465362 rxn_smarts="[C:1]([N:2]([C:3](=[O:4])[N:5]([C:6]([H:12])([H:13])[H:14])[C:7]([H:15])([H:16])[H:17])[H:11])([H:8])([H:9])[H:10]>>[C:1]([O:4]/[C:3](=[N:2]/[H:11])[N:5]([C:6]([H:12])([H:13])[H:14])[C:7]([H:15])([H:16])[H:17])([H:8])([H:9])[H:10]"
C        2.69011528      -0.69812358      -0.29363998
N        1.25319863       0.71383944      -0.54502048
C        0.35319489      -0.19243463      -0.25878878
O        0.84427885      -1.33658407       0.01020187
N       -0.97103487       0.05414374      -0.03897484
C       -1.80304129      -0.94728673       0.59163381
C       -1.47070356       1.40662847      -0.07242558
H        2.94594605      -0.79452744       0.75317574
H        2.74416649      -1.61576197      -0.86720802
H        3.32587412       0.05424654      -0.74259225
H        1.00599845       1.69148722      -0.52340907
H       -1.94373237      -0.74487067       1.66029020
H       -1.33296513      -1.92014900       0.48299104
H       -2.78478900      -0.96340337       0.11257787
H       -1.09959250       1.93427459      -0.95239772
H       -2.55842346       1.37554901      -0.13753201
H       -1.19849057       1.98297243       0.82111819
17
Frame=5 idx=011053 GeodesicLength=0.20031474851391964 rxn_smarts="[C:1]([N:2]([C:3](=[O:4])[N:5]([C:6]([H:12])([H:13])[H:14])[C:7]([H:15])([H:16])[H:17])[H:11])([H:8])([H:9])[H:10]>>[C:1]([O:4]/[C:3](=[N:2]/[H:11])[N:5]([C:6]([H:12])([H:13])[H:14])[C:7]([H:15])([H:16])[H:17])([H:8])([H:9])[H:10]"
C        2.67943976      -0.68853588      -0.28337089
N        1.24859552       0.70390609      -0.57034525
C        0.34754501      -0.20268850      -0.28235685
O        0.84154595      -1.34136692       0.00756459
N       -0.97233244       0.05105054      -0.04375441
C       -1.80062820      -0.94490340       0.60006392
C       -1.46735723       1.40509755      -0.07852108
H        2.93884284      -0.84046630       0.75676274
H        2.74212384      -1.57321109      -0.90648344
H        3.33541812       0.07730908      -0.67938405
H        1.00128737       1.68046930      -0.52533397
H       -1.93145942      -0.73556921       1.66861913
H       -1.33318838      -1.91924855       0.49357716
H       -2.78660168      -0.96127254       0.12981259
H       -1.10177504       1.92867212      -0.96325366
H       -2.55564904       1.37660093      -0.13401834
H       -1.18580697       1.98415680       0.81042180
17
Frame=6 idx=011053 GeodesicLength=0.24041079745982985 rxn_smarts="[C:1]([N:2]([C:3](=[O:4])[N:5]([C:6]([H:12])([H:13])[H:14])[C:7]([H:15])([H:16])[H:17])[H:11])([H:8])([H:9])[H:10]>>[C:1]([O:4]/[C:3](=[N:2]/[H:11])[N:5]([C:6]([H:12])([H:13])[H:14])[C:7]([H:15])([H:16])[H:17])([H:8])([H:9])[H:10]"
C        2.66841748      -0.67905781      -0.27263682
N        1.24416677       0.69403148      -0.59488273
C        0.34203768      -0.21285923      -0.30490967
O        0.83867422      -1.34646426       0.00357043
N       -0.97335695       0.04802191      -0.04828018
C       -1.79796550      -0.94245657       0.60840098
C       -1.46379738       1.40360085      -0.08450691
H        2.93248317      -0.88702275       0.75741646
H        2.74128776      -1.52841324      -0.94276665
H        3.34104818       0.09898137      -0.61568738
H        0.99667445       1.66908689      -0.52853696
H       -1.91916873      -0.72633619       1.67671702
H       -1.33315986      -1.91827635       0.50407107
H       -2.78799514      -0.95898931       0.14675846
H       -1.10378006       1.92302162      -0.97398578
H       -2.55258174       1.37772895      -0.13046038
H       -1.17298435       1.98540266       0.79971905
17
Frame=7 idx=011053 GeodesicLength=0.2805712549071891 rxn_smarts="[C:1]([N:2]([C:3](=[O:4])[N:5]([C:6]([H:12])([H:13])[H:14])[C:7]([H:15])([H:16])[H:17])[H:11])([H:8])([H:9])[H:10]>>[C:1]([O:4]/[C:3](=[N:2]/[H:11])[N:5]([C:6]([H:12])([H:13])[H:14])[C:7]([H:15])([H:16])[H:17])([H:8])([H:9])[H:10]"
C        2.65707992      -0.66986165      -0.26174547
N        1.24000980       0.68434690      -0.61793870
C        0.33675283      -0.22285244      -0.32615081
O        0.83578121      -1.35172680      -0.00099893
N       -0.97411348       0.04506515      -0.05251172
C       -1.79510755      -0.93991892       0.61665969
C       -1.46012417       1.40210128      -0.09058794
H        2.92746121      -0.93413274       0.75455354
H        2.74122167      -1.48168182      -0.97636258
H        3.34298120       0.11914619      -0.55206466
H        0.99218328       1.65756263      -0.53210905
H       -1.90713894      -0.71702121       1.68455753
H       -1.33283946      -1.91717909       0.51469188
H       -2.78893242      -0.95665941       0.16325649
H       -1.10546680       1.91725291      -0.98471166
H       -2.54929365       1.37879715      -0.12738261
H       -1.16045464       1.98676188       0.78884499
17
Frame=8 idx=011053 GeodesicLength=0.3207668404956272 rxn_smarts="[C:1]([N:2]([C:3](=[O:4])[N:5]([C:6]([H:12])([H:13])[H:14])[C:7]([H:15])([H:16])[H:17])[H:11])([H:8])([H:9])[H:10]>>[C:1]([O:4]/[C:3](=[N:2]/[H:11])[N:5]([C:6]([H:12])([H:13])[H:14])[C:7]([H:15])([H:16])[H:17])([H:8])([H:9])[H:10]"
C        2.64542474      -0.66099069      -0.25072769
N        1.23612123       0.67483585      -0.63971947
C        0.33165977      -0.23270631      -0.34628977
O        0.83289490      -1.35704581      -0.00564139
N       -0.97463277       0.04216952      -0.05652312
C       -1.79212143      -0.93733202       0.62470269
C       -1.45631241       1.40059947      -0.09665214
H        2.92378453      -0.98089090       0.74820688
H        2.74184195      -1.43361947      -1.00679755
H        3.34143707       0.13762806      -0.48912539
H        0.98784141       1.64594822      -0.53593508
H       -1.89536860      -0.70778299       1.69205360
H       -1.33233669      -1.91599507       0.52517274
H       -2.78950718      -0.95423916       0.17920511
H       -1.10683278       1.91145793      -0.99529475
H       -2.54577303       1.37985004      -0.12462015
H       -1.14812072       1.98811333       0.77798550
17
Frame=9 idx=011053 GeodesicLength=0.36088769610430715 rxn_smarts="[C:1]([N:2]([C:3](=[O:4])[N:5]([C:6]([H:12])([H:13])[H:14])[C:7]([H:15])([H:16])[H:17])[H:11])([H:8])([H:9])[H:10]>>[C:1]([O:4]/[C:3](=[N:2]/[H:11])[N:5]([C:6]([H:12])([H:13])[H:14])[C:7]([H:15])([H:16])[H:17])([H:8])([H:9])[H:10]"
C        2.63372348      -0.65260371      -0.24015919
N        1.23260048       0.66562333      -0.65959826
C        0.32696930      -0.24230414      -0.36442415
O        0.83036592      -1.36192971      -0.00827425
N       -0.97492298       0.03936543      -0.06010142
C       -1.78933444      -0.93476995       0.63225838
C       -1.45245346       1.39910305      -0.10271096
H        2.92269886      -1.02637590       0.73782118
H        2.74232292      -1.38524687      -1.03419011
H        3.33692290       0.15409052      -0.42876364
H        0.98377635       1.63442258      -0.53898197
H       -1.88484967      -0.69870951       1.69888798
H       -1.33178265      -1.91474534       0.53552313
H       -2.78979265      -0.95190800       0.19372045
H       -1.10762150       1.90566736      -1.00559888
H       -2.54211245       1.38081830      -0.12268359
H       -1.13651041       1.98950256       0.76727531
17
Frame=10 idx=011053 GeodesicLength=0.4010280269517337 rxn_smarts="[C:1]([N:2]([C:3](=[O:4])[N:5]([C:6]([H:12])([H:13])[H:14])[C:7]([H:15])([H:16])[H:17])[H:11])([H:8])([H:9])[H:10]>>[C:1]([O:4]/[C:3](=[N:2]/[H:11])[N:5]([C:6]([H:12])([H:13])[H:14])[C:7]([H:15])([H:16])[H:17])([H:8])([H:9])[H:10]"
C        2.62187427      -0.64467114      -0.22974243
N        1.22940348       0.65663773      -0.67801000
C        0.32249314      -0.25176904      -0.38144706
O        0.82789240      -1.36670374      -0.01027641
N       -0.97505030       0.03660419      -0.06348464
C       -1.78658447      -0.93219244       0.63954841
C       -1.44852529       1.39759089      -0.10878756
H        2.92315022      -1.07058066       0.72398085
H        2.74309517      -1.33644156      -1.05861644
H        3.32983141       0.16883255      -0.36981089
H        0.97992728       1.62294342      -0.54164148
H       -1.87481100      -0.68973483       1.70535685
H       -1.33119843      -1.91344056       0.54572941
H       -2.78989148      -0.94954631       0.20755261
H       -1.10803490       1.89988269      -1.01574972
H       -2.53832466       1.38173588      -0.12123397
H       -1.12524683       1.99085292       0.75663248
17
Frame=11 idx=011053 GeodesicLength=0.4409931306996055 rxn_smarts="[C:1]([N:2]([C:3](=[O:4])[N:5]([C:6]([H:12])([H:13])[H:14])[C:7]([H:15])([H:16])[H:17])[H:11])([H:8])([H:9])[H:10]>>[C:1]([O:4]/[C:3](=[N:2]/[H:11])[N:5]([C:6]([H:12])([H:13])[H:14])[C:7]([H:15])([H:16])[H:17])([H:8])([H:9])[H:10]"
C        2.61038357      -0.63739669      -0.22037566
N        1.22659729       0.64800488      -0.69396363
C        0.31862584      -0.26090828      -0.39569316
O        0.82614293      -1.37043268      -0.00821845
N       -0.97499041       0.03395329      -0.06626491
C       -1.78439143      -0.92968196       0.64607830
C       -1.44465750       1.39606275      -0.11484064
H        2.92702022      -1.11222206       0.70596176
H        2.74275542      -1.28866758      -1.08050498
H        3.32103802       0.18126932      -0.31536997
H        0.97641774       1.61162914      -0.54238606
H       -1.86700883      -0.68096952       1.71085959
H       -1.33073084      -1.91204392       0.55578104
H       -2.78983012      -0.94741064       0.21911914
H       -1.10764268       1.89409909      -1.02544146
H       -2.53450783       1.38250408      -0.12105167
H       -1.11522139       1.99221078       0.74631077
17
Frame=12 idx=011053 GeodesicLength=0.48084847229635563 rxn_smarts="[C:1]([N:2]([C:3](=[O:4])[N:5]([C:6]([H:12])([H:13])[H:14])[C:7]([H:15])([H:16])[H:17])[H:11])([H:8])([H:9])[H:10]>>[C:1]([O:4]/[C:3](=[N:2]/[H:11])[N:5]([C:6]([H:12])([H:13])[H:14])[C:7]([H:15])([H:16])[H:17])([H:8])([H:9])[H:10]"
C        2.59918276      -0.63071985      -0.21170012
N        1.22418340       0.63970729      -0.70802674
C        0.31515180      -0.26984907      -0.40819396
O        0.82472746      -1.37357844      -0.00391990
N       -0.97483916       0.03135359      -0.06870660
C       -1.78259547      -0.92722871       0.65218902
C       -1.44084023       1.39451941      -0.12093582
H        2.93302176      -1.15165881       0.68451469
H        2.74196265      -1.24153488      -1.10012253
H        3.31098032       0.19183619      -0.26378533
H        0.97323704       1.60048561      -0.54180779
H       -1.86054956      -0.67235573       1.71584136
H       -1.33043303      -1.91062195       0.56578078
H       -2.78979416      -0.94542353       0.22937963
H       -1.10669151       1.88834900      -1.03491024
H       -2.53072785       1.38316076      -0.12176891
H       -1.10597620       1.99355911       0.73617245
17
Frame=13 idx=011053 GeodesicLength=0.5207305769439322 rxn_smarts="[C:1]([N:2]([C:3](=[O:4])[N:5]([C:6]([H:12])([H:13])[H:14])[C:7]([H:15])([H:16])[H:17])[H:11])([H:8])([H:9])[H:10]>>[C:1]([O:4]/[C:3](=[N:2]/[H:11])[N:5]([C:6]([H:12])([H:13])[H:14])[C:7]([H:15])([H:16])[H:17])([H:8])([H:9])[H:10]"
C        2.58801482      -0.62469710      -0.20344768
N        1.22209215       0.63184898      -0.72039128
C        0.31191381      -0.27862133      -0.41977757
O        0.82333537      -1.37663223       0.00080972
N       -0.97457755       0.02877424      -0.07103493
C       -1.78077507      -0.92471438       0.65821980
C       -1.43710148       1.39291534      -0.12725906
H        2.93984386      -1.18948686       0.66003670
H        2.74112790      -1.19453715      -1.11778162
H        3.29962844       0.20065978      -0.21340236
H        0.97024107       1.58961226      -0.53999291
H       -1.85442813      -0.66357751       1.72065111
H       -1.32999267      -1.90909709       0.57595837
H       -2.78956135      -0.94353504       0.23922901
H       -1.10538124       1.88254574      -1.04442068
H       -2.52698155       1.38358732      -0.12333642
H       -1.09739837       1.99495501       0.72593981
17
Frame=14 idx=011053 GeodesicLength=0.5604549391811566 rxn_smarts="[C:1]([N:2]([C:3](=[O:4])[N:5]([C:6]([H:12])([H:13])[H:14])[C:7]([H:15])([H:16])[H:17])[H:11])([H:8])([H:9])[H:10]>>[C:1]([O:4]/[C:3](=[N:2]/[H:11])[N:5]([C:6]([H:12])([H:13])[H:14])[C:7]([H:15])([H:16])[H:17])([H:8])([H:9])[H:10]"
C        2.57750323      -0.61927274      -0.19641394
N        1.22032761       0.62416731      -0.73077516
C        0.30928769      -0.28718125      -0.42879200
O        0.82268767      -1.37831050       0.00995417
N       -0.97421489       0.02626752      -0.07279591
C       -1.77973719      -0.92231101       0.66339819
C       -1.43337384       1.39125169      -0.13334444
H        2.94923622      -1.22363495       0.63252788
H        2.73901764      -1.14948645      -1.13356675
H        3.28810561       0.20744655      -0.16794250
H        0.96758569       1.57871038      -0.53645201
H       -1.85079115      -0.65515004       1.72446052
H       -1.32992265      -1.90747982       0.58580324
H       -2.78942938      -0.94184344       0.24671394
H       -1.10326174       1.87673421      -1.05327089
H       -2.52321321       1.38392605      -0.12579125
H       -1.08980731       1.99616646       0.71628689
17
Frame=15 idx=011053 GeodesicLength=0.5999909323902481 rxn_smarts="[C:1]([N:2]([C:3](=[O:4])[N:5]([C:6]([H:12])([H:13])[H:14])[C:7]([H:15])([H:16])[H:17])[H:11])([H:8])([H:9])[H:10]>>[C:1]([O:4]/[C:3](=[N:2]/[H:11])[N:5]([C:6]([H:12])([H:13])[H:14])[C:7]([H:15])([H:16])[H:17])([H:8])([H:9])[H:10]"
C        2.56754567      -0.61447899      -0.19032689
N        1.21889414       0.61690332      -0.73939025
C        0.30710116      -0.29553886      -0.43601554
O        0.82246540      -1.37915820       0.02180402
N       -0.97380047       0.02380374      -0.07419710
C       -1.77918947      -0.92003504       0.66812100
C       -1.42973007       1.38958404      -0.13942707
H        2.96005800      -1.25502242       0.60252469
H        2.73604441      -1.10583881      -1.14794060
H        3.27669169       0.21244369      -0.12582730
H        0.96524150       1.56807372      -0.53134232
H       -1.84873619      -0.64690317       1.72773900
H       -1.33003877      -1.90588652       0.59565557
H       -2.78938106      -0.94046322       0.25270067
H       -1.10058625       1.87100808      -1.06185391
H       -2.51953789       1.38412288      -0.12916252
H       -1.08304179       1.99738576       0.70693856
17
Frame=16 idx=011053 GeodesicLength=0.6394295918467751 rxn_smarts="[C:1]([N:2]([C:3](=[O:4])[N:5]([C:6]([H:12])([H:13])[H:14])[C:7]([H:15])([H:16])[H:17])[H:11])([H:8])([H:9])[H:10]>>[C:1]([O:4]/[C:3](=[N:2]/[H:11])[N:5]([C:6]([H:12])([H:13])[H:14])[C:7]([H:15])([H:16])[H:17])([H:8])([H:9])[H:10]"
C        2.55805924      -0.61030343      -0.18512606
N        1.21775431       0.61002574      -0.74636764
C        0.30532027      -0.30370285      -0.44176058
O        0.82259566      -1.37921742       0.03572409
N       -0.97332208       0.02137582      -0.07531426
C       -1.77898133      -0.91780878       0.67250154
C       -1.42618266       1.38785893      -0.14554909
H        2.97167537      -1.28388359       0.57027111
H        2.73242545      -1.06339159      -1.16111611
H        3.26544645       0.21571046      -0.08642176
H        0.96313184       1.55762439      -0.52471656
H       -1.84793830      -0.63869710       1.73057133
H       -1.33020564      -1.90421331       0.60558903
H       -2.78932444      -0.93933861       0.25752626
H       -1.09741897       1.86526974      -1.07021314
H       -2.51595636       1.38411496      -0.13338068
H       -1.07707883       1.99857665       0.69778251
