14
Frame=0 idx=005067 GeodesicLength=0.0 rxn_smarts="[C:1]([C:2]([C@@:3]([N:4]([H:13])[H:14])([C:5]#[N:6])[H:12])([H:10])[H:11])([H:7])([H:8])[H:9]>>[C:1]([C:2]([C@@:3]1([H:12])[C:5]([N:4]([H:13])[H:14])=[N:6]1)([H:10])[H:11])([H:7])([H:8])[H:9]"
C       -2.00277795       0.22446253       0.07294719
C       -0.78024814      -0.69306286      -0.14143750
C        0.37056784      -0.06409845       0.53382323
N        2.30301311      -0.24856116      -0.19779108
C        1.28249312       0.85282417      -0.10971135
N        1.23049285       2.01743146      -0.44430477
H       -1.80890546       1.21114333      -0.34624375
H       -2.23413412       0.33920849       1.13297747
H       -2.87071801      -0.21342956      -0.42091860
H       -0.98104422      -1.68044354       0.27916536
H       -0.58475162      -0.78665263      -1.21085325
H        0.44668683      -0.17915847       1.61545880
H        2.48415820      -0.62156120      -1.12123474
H        3.14516753      -0.15810206       0.35812299
14
Frame=1 idx=005067 GeodesicLength=0.061886789345656744 rxn_smarts="[C:1]([C:2]([C@@:3]([N:4]([H:13])[H:14])([C:5]#[N:6])[H:12])([H:10])[H:11])([H:7])([H:8])[H:9]>>[C:1]([C:2]([C@@:3]1([H:12])[C:5]([N:4]([H:13])[H:14])=[N:6]1)([H:10])[H:11])([H:7])([H:8])[H:9]"
C       -2.00211183       0.22187181       0.07264279
C       -0.77486159      -0.68676046      -0.14327991
C        0.38014983      -0.05343440       0.52566684
N        2.29958266      -0.27049988      -0.20065852
C        1.28741743       0.85424801      -0.13297220
N        1.20402548       2.03002431      -0.40664257
H       -1.81753529       1.20826247      -0.35179537
H       -2.22918515       0.33997276       1.13334458
H       -2.87040245      -0.22264170      -0.41476576
H       -0.96671967      -1.67454778       0.28097705
H       -0.58422602      -0.78584714      -1.21324958
H        0.44807386      -0.14891916       1.60966273
H        2.49349474      -0.62571584      -1.12820821
H        3.13229800      -0.18601300       0.36927816
14
Frame=2 idx=005067 GeodesicLength=0.12402658211449671 rxn_smarts="[C:1]([C:2]([C@@:3]([N:4]([H:13])[H:14])([C:5]#[N:6])[H:12])([H:10])[H:11])([H:7])([H:8])[H:9]>>[C:1]([C:2]([C@@:3]1([H:12])[C:5]([N:4]([H:13])[H:14])=[N:6]1)([H:10])[H:11])([H:7])([H:8])[H:9]"
C       -2.00135227       0.21926795       0.07271320
C       -0.76924715      -0.67996806      -0.14551577
C        0.38982936      -0.04220731       0.51722755
N        2.29564255      -0.29177915      -0.20312015
C        1.29242458       0.85689658      -0.15594419
N        1.17742933       2.03964344      -0.37080673
H       -1.82652014       1.20552532      -0.35648933
H       -2.22400382       0.34016089       1.13414327
H       -2.86988069      -0.23186902      -0.40823040
H       -0.95174822      -1.66837899       0.28181601
H       -0.58350858      -0.78378780      -1.21606638
H        0.44980460      -0.11932743       1.60306845
H        2.50259518      -0.63062517      -1.13366514
H        3.11853526      -0.21355125       0.38086960
14
Frame=3 idx=005067 GeodesicLength=0.18612077476565503 rxn_smarts="[C:1]([C:2]([C@@:3]([N:4]([H:13])[H:14])([C:5]#[N:6])[H:12])([H:10])[H:11])([H:7])([H:8])[H:9]>>[C:1]([C:2]([C@@:3]1([H:12])[C:5]([N:4]([H:13])[H:14])=[N:6]1)([H:10])[H:11])([H:7])([H:8])[H:9]"
C       -2.00043985       0.21663177       0.07306715
C       -0.76337884      -0.67275202      -0.14802694
C        0.39954669      -0.03059015       0.50881212
N        2.29108393      -0.31236377      -0.20520640
C        1.29751765       0.86066809      -0.17796142
N        1.15106714       2.04665364      -0.33731200
H       -1.83566825       1.20285722      -0.36046148
H       -2.21866802       0.33984013       1.13524018
H       -2.86903730      -0.24114603      -0.40146564
H       -0.93624300      -1.66196510       0.28176021
H       -0.58238308      -0.78054862      -1.21914475
H        0.45167907      -0.09060208       1.59604773
H        2.51098807      -0.63594273      -1.13787491
H        3.10393577      -0.24074034       0.39252617
14
Frame=4 idx=005067 GeodesicLength=0.24854406233316512 rxn_smarts="[C:1]([C:2]([C@@:3]([N:4]([H:13])[H:14])([C:5]#[N:6])[H:12])([H:10])[H:11])([H:7])([H:8])[H:9]>>[C:1]([C:2]([C@@:3]1([H:12])[C:5]([N:4]([H:13])[H:14])=[N:6]1)([H:10])[H:11])([H:7])([H:8])[H:9]"
C       -1.99941865       0.21394075       0.07389295
C       -0.75726257      -0.66499955      -0.15093309
C        0.40925860      -0.01860539       0.50058168
N        2.28604989      -0.33237907      -0.20660980
C        1.30293800       0.86563690      -0.19840678
N        1.12468415       2.05092322      -0.30808976
H       -1.84511402       1.20046403      -0.36307473
H       -2.21327112       0.33849186       1.13688842
H       -2.86787461      -0.25030840      -0.39458168
H       -0.92015018      -1.65540485       0.28031032
H       -0.58085250      -0.77553502      -1.22269098
H        0.45356593      -0.06286274       1.58883617
H        2.51873444      -0.64168347      -1.14069085
H        3.08871261      -0.26767828       0.40456813
14
Frame=5 idx=005067 GeodesicLength=0.31111981296402924 rxn_smarts="[C:1]([C:2]([C@@:3]([N:4]([H:13])[H:14])([C:5]#[N:6])[H:12])([H:10])[H:11])([H:7])([H:8])[H:9]>>[C:1]([C:2]([C@@:3]1([H:12])[C:5]([N:4]([H:13])[H:14])=[N:6]1)([H:10])[H:11])([H:7])([H:8])[H:9]"
C       -1.99830201       0.21121115       0.07506020
C       -0.75096034      -0.65688479      -0.15411388
C        0.41898170      -0.00643071       0.49264277
N        2.28055066      -0.35192437      -0.20749524
C        1.30864114       0.87158389      -0.21725224
N        1.09848612       2.05321552      -0.28258141
H       -1.85476110       1.19826777      -0.36469993
H       -2.20781423       0.33644094       1.13894759
H       -2.86646235      -0.25942161      -0.38763587
H       -0.90365600      -1.64879456       0.27775681
H       -0.57894950      -0.76918502      -1.22657845
H        0.45547470      -0.03607801       1.58163392
H        2.52584597      -0.64754672      -1.14247036
H        3.07292523      -0.29445347       0.41678608
14
Frame=6 idx=005067 GeodesicLength=0.37393347309135516 rxn_smarts="[C:1]([C:2]([C@@:3]([N:4]([H:13])[H:14])([C:5]#[N:6])[H:12])([H:10])[H:11])([H:7])([H:8])[H:9]>>[C:1]([C:2]([C@@:3]1([H:12])[C:5]([N:4]([H:13])[H:14])=[N:6]1)([H:10])[H:11])([H:7])([H:8])[H:9]"
C       -1.99708542       0.20844603       0.07653579
C       -0.74451360      -0.64847359      -0.15752813
C        0.42870330       0.00584795       0.48501563
N        2.27461728      -0.37109567      -0.20792032
C        1.31459357       0.87839608      -0.23454133
N        1.07250053       2.05390357      -0.26061496
H       -1.86457847       1.19623451      -0.36545284
H       -2.20226576       0.33378354       1.14139360
H       -2.86480839      -0.26848979      -0.38063860
H       -0.88683725      -1.64217227       0.27420967
H       -0.57674053      -0.76164328      -1.23078341
H        0.45738831      -0.01020316       1.57452255
H        2.53243188      -0.65340485      -1.14337133
H        3.05659453      -0.32112907       0.42917366
14
Frame=7 idx=005067 GeodesicLength=0.43669428445636815 rxn_smarts="[C:1]([C:2]([C@@:3]([N:4]([H:13])[H:14])([C:5]#[N:6])[H:12])([H:10])[H:11])([H:7])([H:8])[H:9]>>[C:1]([C:2]([C@@:3]1([H:12])[C:5]([N:4]([H:13])[H:14])=[N:6]1)([H:10])[H:11])([H:7])([H:8])[H:9]"
C       -1.99570474       0.20559277       0.07827668
C       -0.73796016      -0.63976608      -0.16106690
C        0.43837196       0.01813882       0.47763601
N        2.26818234      -0.38987763      -0.20799409
C        1.32078912       0.88577424      -0.25042569
N        1.04694025       2.05315260      -0.24172249
H       -1.87434358       1.19412843      -0.36543771
H       -2.19664389       0.33057357       1.14403827
H       -2.86282706      -0.27752455      -0.37352133
H       -0.86988306      -1.63533665       0.26984754
H       -0.57417989      -0.75303920      -1.23504423
H        0.45915017       0.01482753       1.56734212
H        2.53853215      -0.65902467      -1.14341635
H        3.03957640      -0.34761917       0.44148817
14
Frame=8 idx=005067 GeodesicLength=0.49964055500200827 rxn_smarts="[C:1]([C:2]([C@@:3]([N:4]([H:13])[H:14])([C:5]#[N:6])[H:12])([H:10])[H:11])([H:7])([H:8])[H:9]>>[C:1]([C:2]([C@@:3]1([H:12])[C:5]([N:4]([H:13])[H:14])=[N:6]1)([H:10])[H:11])([H:7])([H:8])[H:9]"
C       -1.99427076       0.20270125       0.08026568
C       -0.73133541      -0.63089507      -0.16479841
C        0.44806425       0.03044888       0.47054513
N        2.26137739      -0.40845634      -0.20772777
C        1.32719970       0.89380451      -0.26505171
N        1.02169985       2.05153905      -0.22574377
H       -1.88429533       1.19217732      -0.36472829
H       -2.19091018       0.32690587       1.14705337
H       -2.86070118      -0.28657595      -0.36638456
H       -0.85268811      -1.62860263       0.26467109
H       -0.57147036      -0.74356186      -1.23962845
H        0.46096084       0.03920087       1.56035153
H        2.54432951      -0.66458197      -1.14278771
H        3.02203977      -0.37410394       0.45396386
14
Frame=9 idx=005067 GeodesicLength=0.562888337223413 rxn_smarts="[C:1]([C:2]([C@@:3]([N:4]([H:13])[H:14])([C:5]#[N:6])[H:12])([H:10])[H:11])([H:7])([H:8])[H:9]>>[C:1]([C:2]([C@@:3]1([H:12])[C:5]([N:4]([H:13])[H:14])=[N:6]1)([H:10])[H:11])([H:7])([H:8])[H:9]"
C       -1.99266943       0.19968179       0.08258936
C       -0.72464823      -0.62172233      -0.16870284
C        0.45767713       0.04279315       0.46358418
N        2.25409334      -0.42679526      -0.20709819
C        1.33387615       0.90233340      -0.27855261
N        0.99689360       2.04870433      -0.21278741
H       -1.89421971       1.19013873      -0.36312270
H       -2.18503797       0.32253903       1.15037320
H       -2.85824285      -0.29561001      -0.35904742
H       -0.83534334      -1.62167800       0.25862232
H       -0.56855528      -0.73294936      -1.24437387
H        0.46255650       0.06301485       1.55322421
H        2.54992820      -0.66994195      -1.14129748
H        3.00369189      -0.40050837       0.46658925
14
Frame=10 idx=005067 GeodesicLength=0.6262351153147449 rxn_smarts="[C:1]([C:2]([C@@:3]([N:4]([H:13])[H:14])([C:5]#[N:6])[H:12])([H:10])[H:11])([H:7])([H:8])[H:9]>>[C:1]([C:2]([C@@:3]1([H:12])[C:5]([N:4]([H:13])[H:14])=[N:6]1)([H:10])[H:11])([H:7])([H:8])[H:9]"
C       -1.99099957       0.19659542       0.08512761
C       -0.71793874      -0.61242905      -0.17275138
C        0.46730135       0.05510870       0.45682536
N        2.24643358      -0.44498931      -0.20620826
C        1.34073118       0.91131708      -0.29108727
N        0.97252265       2.04530640      -0.20218101
H       -1.90423612       1.18815227      -0.36089761
H       -2.17903777       0.31775663       1.15398552
H       -2.85563151      -0.30467470      -0.35167713
H       -0.81785760      -1.61479882       0.25189463
H       -0.56556357      -0.72162920      -1.24934736
H        0.46416934       0.08633157       1.54619494
H        2.55533602      -0.67522078      -1.13915267
H        2.98477077      -0.42682623       0.47927461
14
Frame=11 idx=005067 GeodesicLength=0.6896909566735846 rxn_smarts="[C:1]([C:2]([C@@:3]([N:4]([H:13])[H:14])([C:5]#[N:6])[H:12])([H:10])[H:11])([H:7])([H:8])[H:9]>>[C:1]([C:2]([C@@:3]1([H:12])[C:5]([N:4]([H:13])[H:14])=[N:6]1)([H:10])[H:11])([H:7])([H:8])[H:9]"
C       -1.98922707       0.19341043       0.08787994
C       -0.71122714      -0.60298874      -0.17691289
C        0.47691067       0.06738203       0.45019275
N        2.23836513      -0.46301938      -0.20508853
C        1.34774502       0.92065109      -0.30277787
N        0.94868214       2.04128502      -0.19372502
H       -1.91425333       1.18610239      -0.35804279
H       -2.17289259       0.31252459       1.15781720
H       -2.85282040      -0.31376478      -0.34422324
H       -0.80029135      -1.60784263       0.24453432
H       -0.56251311      -0.70959759      -1.25444157
H        0.46573395       0.10920872       1.53912134
H        2.56060133      -0.68035247      -1.13629804
H        2.96518673      -0.45299869       0.49196439
14
Frame=12 idx=005067 GeodesicLength=0.753284651082042 rxn_smarts="[C:1]([C:2]([C@@:3]([N:4]([H:13])[H:14])([C:5]#[N:6])[H:12])([H:10])[H:11])([H:7])([H:8])[H:9]>>[C:1]([C:2]([C@@:3]1([H:12])[C:5]([N:4]([H:13])[H:14])=[N:6]1)([H:10])[H:11])([H:7])([H:8])[H:9]"
C       -1.98734842       0.19014831       0.09082312
C       -0.70453492      -0.59345939      -0.18116937
C        0.48650836       0.07957582       0.44367271
N        2.22990779      -0.48090514      -0.20377431
C        1.35486138       0.93032752      -0.31373115
N        0.92536184       2.03674612      -0.18718017
H       -1.92423237       1.18401407      -0.35463127
H       -2.16659505       0.30691804       1.16186885
H       -2.84981822      -0.32285029      -0.33671735
H       -0.78269805      -1.60086470       0.23662898
H       -0.55943632      -0.69699115      -1.25966638
H        0.46727410       0.13163558       1.53202990
H        2.56577353      -0.68534655      -1.13278624
H        2.94497635      -0.47894823       0.50463268
14
Frame=13 idx=005067 GeodesicLength=0.8170007664879075 rxn_smarts="[C:1]([C:2]([C@@:3]([N:4]([H:13])[H:14])([C:5]#[N:6])[H:12])([H:10])[H:11])([H:7])([H:8])[H:9]>>[C:1]([C:2]([C@@:3]1([H:12])[C:5]([N:4]([H:13])[H:14])=[N:6]1)([H:10])[H:11])([H:7])([H:8])[H:9]"
C       -1.98536857       0.18678419       0.09396212
C       -0.69787308      -0.58383221      -0.18553014
C        0.49609795       0.09170900       0.43721482
N        2.22105506      -0.49866505      -0.20227225
C        1.36208669       0.94029080      -0.32407157
N        0.90261944       2.03175738      -0.18240669
H       -1.93417537       1.18185942      -0.35062492
H       -2.16013082       0.30088838       1.16613346
H       -2.84663363      -0.33196121      -0.32914266
H       -0.76506730      -1.59383546       0.22816505
H       -0.55637587      -0.68380120      -1.26501336
H        0.46878434       0.15372586       1.52486049
H        2.57088517      -0.69023975      -1.12856890
H        2.92409599      -0.50468014       0.51729454
14
Frame=14 idx=005067 GeodesicLength=0.8808600104566295 rxn_smarts="[C:1]([C:2]([C@@:3]([N:4]([H:13])[H:14])([C:5]#[N:6])[H:12])([H:10])[H:11])([H:7])([H:8])[H:9]>>[C:1]([C:2]([C@@:3]1([H:12])[C:5]([N:4]([H:13])[H:14])=[N:6]1)([H:10])[H:11])([H:7])([H:8])[H:9]"
C       -1.98328242       0.18332967       0.09727980
C       -0.69125869      -0.57414196      -0.18997594
C        0.50568008       0.10375518       0.43080003
N        2.21181916      -0.51630560      -0.20060487
C        1.36936968       0.95052581      -0.33387501
N        0.88045254       2.02636157      -0.17923425
H       -1.94404237       1.17964604      -0.34605694
H       -2.15349562       0.29446813       1.17059513
H       -2.84327010      -0.34105841      -0.32153661
H       -0.74743998      -1.58677212       0.21920794
H       -0.55335886      -0.67011690      -1.27046434
H        0.47028668       0.17546172       1.51760636
H        2.57595807      -0.69503928      -1.12365945
H        2.90258183      -0.53011384       0.52991815
14
Frame=15 idx=005067 GeodesicLength=0.9448440299450508 rxn_smarts="[C:1]([C:2]([C@@:3]([N:4]([H:13])[H:14])([C:5]#[N:6])[H:12])([H:10])[H:11])([H:7])([H:8])[H:9]>>[C:1]([C:2]([C@@:3]1([H:12])[C:5]([N:4]([H:13])[H:14])=[N:6]1)([H:10])[H:11])([H:7])([H:8])[H:9]"
C       -1.98109288       0.17976999       0.10076983
C       -0.68469873      -0.56439029      -0.19451266
C        0.51526186       0.11572620       0.42439179
N        2.20219720      -0.53383444      -0.19878228
C        1.37670150       0.96099297      -0.34325007
N        0.85890809       2.02062397      -0.17749728
H       -1.95382942       1.17735512      -0.34092133
H       -2.14667502       0.28764406       1.17524143
H       -2.83973685      -0.35017145      -0.31388826
H       -0.72981053      -1.57965796       0.20975740
H       -0.55041627      -0.65595918      -1.27601357
H        0.47178361       0.19692347       1.51022920
H        2.58099526      -0.69978142      -1.11802876
H        2.88041216      -0.55524105       0.54250454
14
Frame=16 idx=005067 GeodesicLength=1.0089594577770993 rxn_smarts="[C:1]([C:2]([C@@:3]([N:4]([H:13])[H:14])([C:5]#[N:6])[H:12])([H:10])[H:11])([H:7])([H:8])[H:9]>>[C:1]([C:2]([C@@:3]1([H:12])[C:5]([N:4]([H:13])[H:14])=[N:6]1)([H:10])[H:11])([H:7])([H:8])[H:9]"
C       -1.97879232       0.17611475       0.10441724
C       -0.67820585      -0.55460378      -0.19912353
C        0.52484317       0.12759785       0.41797212
N        2.19219848      -0.55125161      -0.19681930
C        1.38404303       0.97167671      -0.35225817
N        0.83798004       2.01456355      -0.17705362
H       -1.96349240       1.17498894      -0.33524567
H       -2.13966798       0.28044204       1.18005287
H       -2.83603470      -0.35926369      -0.30622551
H       -0.71221898      -1.57249988       0.19986672
H       -0.54756270      -0.64139697      -1.28163938
H        0.47328807       0.21808149       1.50271711
H        2.58599673      -0.70447313      -1.11167975
H        2.85762541      -0.57997627       0.55501886
