15
Frame=0 idx=008460 GeodesicLength=0.0 rxn_smarts="[C:1]1([H:8])([H:9])[C@@:2]2([H:10])[C@@:3]3([H:11])[O:4][C:5]([H:12])([H:13])[C@:6]1([H:14])[C@@:7]23[H:15]>>[C:1]1([H:8])([H:9])[C@:2]([C:3](=[O+:4][C-:5]([H:12])[H:13])[H:11])([H:10])[C:7]([H:15])=[C:6]1[H:14]"
C        0.69603599       1.19914460       0.18576676
C        1.20871337      -0.24141325      -0.08170387
C        0.38909057      -1.36349059       0.44740137
O       -0.86789803      -1.32863244       0.75017388
C       -1.65440707      -0.25454836       0.84810277
C       -0.29090138       0.91379058      -0.93664808
C        0.42080205      -0.15782691      -1.37287149
H        0.35306713       1.45014694       1.18842743
H        1.45541118       1.92463573      -0.11071166
H        2.27632159      -0.45461013      -0.05546409
H        0.73561148      -2.37978412       0.30006117
H       -1.28398507       0.60159456       1.38253438
H       -2.67860952      -0.55528490       1.02663133
H       -1.08143685       1.50190932      -1.37876960
H        0.32218461      -0.85563108      -2.19293030
15
Frame=1 idx=008460 GeodesicLength=0.05151877678734877 rxn_smarts="[C:1]1([H:8])([H:9])[C@@:2]2([H:10])[C@@:3]3([H:11])[O:4][C:5]([H:12])([H:13])[C@:6]1([H:14])[C@@:7]23[H:15]>>[C:1]1([H:8])([H:9])[C@:2]([C:3](=[O+:4][C-:5]([H:12])[H:13])[H:11])([H:10])[C:7]([H:15])=[C:6]1[H:14]"
C        0.70044845       1.19801648       0.18763240
C        1.21223260      -0.24152661      -0.08244105
C        0.39334138      -1.36475796       0.44234137
O       -0.85689250      -1.32778769       0.78130722
C       -1.65151993      -0.25534643       0.83837344
C       -0.30214842       0.90996406      -0.92095474
C        0.40406519      -0.16884022      -1.36194465
H        0.36513372       1.44537818       1.19401875
H        1.45446695       1.92649340      -0.11470705
H        2.27977394      -0.45454209      -0.07307051
H        0.74460563      -2.38107723       0.30959369
H       -1.30380083       0.60821139       1.37671490
H       -2.67943338      -0.55811487       0.99239767
H       -1.07196400       1.51654533      -1.37500390
H        0.31169118      -0.85261572      -2.19425754
15
Frame=2 idx=008460 GeodesicLength=0.10304547346407023 rxn_smarts="[C:1]1([H:8])([H:9])[C@@:2]2([H:10])[C@@:3]3([H:11])[O:4][C:5]([H:12])([H:13])[C@:6]1([H:14])[C@@:7]23[H:15]>>[C:1]1([H:8])([H:9])[C@:2]([C:3](=[O+:4][C-:5]([H:12])[H:13])[H:11])([H:10])[C:7]([H:15])=[C:6]1[H:14]"
C        0.70493033       1.19685870       0.18935538
C        1.21546368      -0.24181596      -0.08330849
C        0.39680882      -1.36597402       0.43710592
O       -0.84562758      -1.32544563       0.81252240
C       -1.64854658      -0.25628330       0.82909610
C       -0.31299295       0.90647497      -0.90544963
C        0.38768022      -0.17960132      -1.35108400
H        0.37716276       1.44072934       1.19931070
H        1.45382705       1.92811952      -0.11851271
H        2.28263794      -0.45484927      -0.09056285
H        0.75270243      -2.38215902       0.31912529
H       -1.32434089       0.61508915       1.37011826
H       -2.67905759      -0.56258104       0.95903460
H       -1.06222147       1.53021564      -1.37108086
H        0.30157383      -0.84877775      -2.19567012
15
Frame=3 idx=008460 GeodesicLength=0.1545301414493714 rxn_smarts="[C:1]1([H:8])([H:9])[C@@:2]2([H:10])[C@@:3]3([H:11])[O:4][C:5]([H:12])([H:13])[C@:6]1([H:14])[C@@:7]23[H:15]>>[C:1]1([H:8])([H:9])[C@:2]([C:3](=[O+:4][C-:5]([H:12])[H:13])[H:11])([H:10])[C:7]([H:15])=[C:6]1[H:14]"
C        0.70948002       1.19568454       0.19093027
C        1.21840983      -0.24227970      -0.08428241
C        0.39948320      -1.36714141       0.43172611
O       -0.83415767      -1.32164629       0.84353967
C       -1.64551648      -0.25734753       0.82022791
C       -0.32343921       0.90331958      -0.89014515
C        0.37168273      -0.19008154      -1.34032425
H        0.38914930       1.43622530       1.20430225
H        1.45350112       1.92953254      -0.12214365
H        2.28493187      -0.45552691      -0.10786296
H        0.75993060      -2.38301091       0.32867635
H       -1.34550906       0.62209992       1.36277923
H       -2.67755274      -0.56862443       0.92676126
H       -1.05225002       1.54297229      -1.36703722
H        0.29185650      -0.84417545      -2.19714742
15
Frame=4 idx=008460 GeodesicLength=0.20602103630038837 rxn_smarts="[C:1]1([H:8])([H:9])[C@@:2]2([H:10])[C@@:3]3([H:11])[O:4][C:5]([H:12])([H:13])[C@:6]1([H:14])[C@@:7]23[H:15]>>[C:1]1([H:8])([H:9])[C@:2]([C:3](=[O+:4][C-:5]([H:12])[H:13])[H:11])([H:10])[C:7]([H:15])=[C:6]1[H:14]"
C        0.71411657       1.19449869       0.19236616
C        1.22109215      -0.24291512      -0.08535471
C        0.40141243      -1.36824945       0.42626934
O       -0.82250210      -1.31645033       0.87420031
C       -1.64241476      -0.25853240       0.81176058
C       -0.33349529       0.90049261      -0.87501687
C        0.35606037      -0.20028706      -1.32967049
H        0.40113922       1.43186584       1.20901951
H        1.45350194       1.93074725      -0.12561994
H        2.28668933      -0.45656611      -0.12499815
H        0.76638574      -2.38360717       0.33833410
H       -1.36726471       0.62913474       1.35475292
H       -2.67497144      -0.57613990       0.89539258
H       -1.04212773       1.55487998      -1.36282819
H        0.28237829      -0.83887158      -2.19860712
15
Frame=5 idx=008460 GeodesicLength=0.2575511218608583 rxn_smarts="[C:1]1([H:8])([H:9])[C@@:2]2([H:10])[C@@:3]3([H:11])[O:4][C:5]([H:12])([H:13])[C@:6]1([H:14])[C@@:7]23[H:15]>>[C:1]1([H:8])([H:9])[C@:2]([C:3](=[O+:4][C-:5]([H:12])[H:13])[H:11])([H:10])[C:7]([H:15])=[C:6]1[H:14]"
C        0.71885276       1.19330372       0.19366842
C        1.22352337      -0.24370867      -0.08651539
C        0.40262682      -1.36926350       0.42079275
O       -0.81069644      -1.31000136       0.90432717
C       -1.63923676      -0.25984297       0.80366105
C       -0.34317729       0.89798841      -0.86003910
C        0.34079409      -0.21020777      -1.31912725
H        0.41316809       1.42764753       1.21347811
H        1.45384022       1.93176729      -0.12896227
H        2.28793536      -0.45794581      -0.14198966
H        0.77216155      -2.38389976       0.34818943
H       -1.38955082       0.63607307       1.34607171
H       -2.67132332      -0.58500350       0.86479622
H       -1.03188935       1.56603227      -1.35843676
H        0.27297172      -0.83293896      -2.19991442
15
Frame=6 idx=008460 GeodesicLength=0.3090451270080887 rxn_smarts="[C:1]1([H:8])([H:9])[C@@:2]2([H:10])[C@@:3]3([H:11])[O:4][C:5]([H:12])([H:13])[C@:6]1([H:14])[C@@:7]23[H:15]>>[C:1]1([H:8])([H:9])[C@:2]([C:3](=[O+:4][C-:5]([H:12])[H:13])[H:11])([H:10])[C:7]([H:15])=[C:6]1[H:14]"
C        0.72367927       1.19210780       0.19483856
C        1.22571917      -0.24465654      -0.08773447
C        0.40316971      -1.37020297       0.41534521
O       -0.79881846      -1.30230042       0.93365154
C       -1.63600327      -0.26124710       0.79589932
C       -0.35249538       0.89579286      -0.84521650
C        0.32591307      -0.21983179      -1.30870797
H        0.42524499       1.42357289       1.21768778
H        1.45449769       1.93261686      -0.13217970
H        2.28869964      -0.45964589      -0.15876166
H        0.77731006      -2.38386125       0.35822823
H       -1.41226117       0.64278349       1.33681362
H       -2.66671218      -0.59509762       0.83510968
H       -1.02158392       1.57643654      -1.35388324
H        0.26364078      -0.82646686      -2.20109040
15
Frame=7 idx=008460 GeodesicLength=0.36062348264624006 rxn_smarts="[C:1]1([H:8])([H:9])[C@@:2]2([H:10])[C@@:3]3([H:11])[O:4][C:5]([H:12])([H:13])[C@:6]1([H:14])[C@@:7]23[H:15]>>[C:1]1([H:8])([H:9])[C@:2]([C:3](=[O+:4][C-:5]([H:12])[H:13])[H:11])([H:10])[C:7]([H:15])=[C:6]1[H:14]"
C        0.72860350       1.19091824       0.19588373
C        1.22770851      -0.24573595      -0.08901459
C        0.40312618      -1.37103630       0.40997178
O       -0.78696004      -1.29355566       0.96213020
C       -1.63271922      -0.26273207       0.78845517
C       -0.36146792       0.89389216      -0.83051591
C        0.31139450      -0.22916811      -1.29840942
H        0.43741055       1.41963740       1.22167342
H        1.45546454       1.93331432      -0.13529224
H        2.28902404      -0.46162145      -0.17537049
H        0.78192329      -2.38347594       0.36847612
H       -1.43533439       0.64921548       1.32702483
H       -2.66118698      -0.60627511       0.80613290
H       -1.01123978       1.58616333      -1.34913645
H        0.25425322      -0.81954035      -2.20200903
15
Frame=8 idx=008460 GeodesicLength=0.4122313853080416 rxn_smarts="[C:1]1([H:8])([H:9])[C@@:2]2([H:10])[C@@:3]3([H:11])[O:4][C:5]([H:12])([H:13])[C@:6]1([H:14])[C@@:7]23[H:15]>>[C:1]1([H:8])([H:9])[C@:2]([C:3](=[O+:4][C-:5]([H:12])[H:13])[H:11])([H:10])[C:7]([H:15])=[C:6]1[H:14]"
C        0.73363668       1.18973882       0.19681358
C        1.22949941      -0.24693324      -0.09034186
C        0.40252738      -1.37173948       0.40474480
O       -0.77509418      -1.28387787       0.98961687
C       -1.62939759      -0.26427438       0.78129850
C       -0.37010043       0.89228556      -0.81590686
C        0.29721649      -0.23821335      -1.28821341
H        0.44970528       1.41583217       1.22545699
H        1.45674598       1.93386729      -0.13831881
H        2.28891713      -0.46385123      -0.19183695
H        0.78607823      -2.38270295       0.37897558
H       -1.45874226       0.65529266       1.31677348
H       -2.65480868      -0.61845651       0.77775349
H       -1.00086100       1.59529094      -1.34420471
H        0.24467758      -0.81225842      -2.20261069
15
Frame=9 idx=008460 GeodesicLength=0.4638879740230029 rxn_smarts="[C:1]1([H:8])([H:9])[C@@:2]2([H:10])[C@@:3]3([H:11])[O:4][C:5]([H:12])([H:13])[C@:6]1([H:14])[C@@:7]23[H:15]>>[C:1]1([H:8])([H:9])[C@:2]([C:3](=[O+:4][C-:5]([H:12])[H:13])[H:11])([H:10])[C:7]([H:15])=[C:6]1[H:14]"
C        0.73875813       1.18857485       0.19764940
C        1.23112827      -0.24823178      -0.09169481
C        0.40147471      -1.37234150       0.39972039
O       -0.76333727      -1.27339723       1.01593025
C       -1.62603497      -0.26589361       0.77441349
C       -0.37842502       0.89094154      -0.80137393
C        0.28335930      -0.24700200      -1.27810040
H        0.46212250       1.41213305       1.22907115
H        1.45829302       1.93431605      -0.14125468
H        2.28843894      -0.46628348      -0.20816662
H        0.78992810      -2.38150821       0.38976644
H       -1.48249116       0.66081346       1.30608186
H       -2.64747088      -0.63122729       0.74985658
H       -0.99049128       1.60388080      -1.33904229
H        0.23474761      -0.80477465      -2.20285684
15
Frame=10 idx=008460 GeodesicLength=0.5156042530275825 rxn_smarts="[C:1]1([H:8])([H:9])[C@@:2]2([H:10])[C@@:3]3([H:11])[O:4][C:5]([H:12])([H:13])[C@:6]1([H:14])[C@@:7]23[H:15]>>[C:1]1([H:8])([H:9])[C@:2]([C:3](=[O+:4][C-:5]([H:12])[H:13])[H:11])([H:10])[C:7]([H:15])=[C:6]1[H:14]"
C        0.74398474       1.18743996       0.19837631
C        1.23261456      -0.24962361      -0.09307078
C        0.40001300      -1.37281254       0.39490425
O       -0.75178251      -1.26213765       1.04113430
C       -1.62265230      -0.26753977       0.76776225
C       -0.38644225       0.88986359      -0.78690208
C        0.26984852      -0.25550785      -1.26808603
H        0.47469969       1.40857185       1.23249932
H        1.46011990       1.93467164      -0.14412955
H        2.28760668      -0.46892026      -0.22433855
H        0.79338361      -2.37992076       0.40073294
H       -1.50644139       0.66585281       1.29498384
H       -2.63935309      -0.64479704       0.72249838
H       -0.98014239       1.61191254      -1.33368567
H        0.22454324      -0.79705290      -2.20267893
15
Frame=11 idx=008460 GeodesicLength=0.5674682544737852 rxn_smarts="[C:1]1([H:8])([H:9])[C@@:2]2([H:10])[C@@:3]3([H:11])[O:4][C:5]([H:12])([H:13])[C@:6]1([H:14])[C@@:7]23[H:15]>>[C:1]1([H:8])([H:9])[C@:2]([C:3](=[O+:4][C-:5]([H:12])[H:13])[H:11])([H:10])[C:7]([H:15])=[C:6]1[H:14]"
C        0.74931690       1.18635792       0.19900854
C        1.23397706      -0.25108136      -0.09449494
C        0.39819189      -1.37315743       0.39032516
O       -0.74042457      -1.25030765       1.06536199
C       -1.61928159      -0.26922292       0.76133752
C       -0.39416067       0.88905641      -0.77244074
C        0.25664563      -0.26374379      -1.25813630
H        0.48745836       1.40515227       1.23580177
H        1.46221900       1.93496920      -0.14697276
H        2.28644686      -0.47172361      -0.24045516
H        0.79653131      -2.37800221       0.41188024
H       -1.53064011       0.67042740       1.28354337
H       -2.63047001      -0.65900535       0.69545314
H       -0.96980176       1.61946413      -1.32815386
H        0.21399170      -0.78918302      -2.20205796
15
Frame=12 idx=008460 GeodesicLength=0.6193521357477236 rxn_smarts="[C:1]1([H:8])([H:9])[C@@:2]2([H:10])[C@@:3]3([H:11])[O:4][C:5]([H:12])([H:13])[C@:6]1([H:14])[C@@:7]23[H:15]>>[C:1]1([H:8])([H:9])[C@:2]([C:3](=[O+:4][C-:5]([H:12])[H:13])[H:11])([H:10])[C:7]([H:15])=[C:6]1[H:14]"
C        0.75472065       1.18523475       0.19958155
C        1.23521511      -0.25259025      -0.09587984
C        0.39612798      -1.37332235       0.38604645
O       -0.72918600      -1.23800475       1.08820259
C       -1.61591916      -0.27086934       0.75510162
C       -0.40159997       0.88842260      -0.75802658
C        0.24370486      -0.27178934      -1.24821159
H        0.50041596       1.40171039       1.23894189
H        1.46449276       1.93512509      -0.14969560
H        2.28494570      -0.47458013      -0.25640530
H        0.79953722      -2.37550119       0.42322836
H       -1.55508898       0.67428925       1.27169010
H       -2.62083353      -0.67331136       0.66885036
H       -0.95953835       1.62656058      -1.32233472
H        0.20300576      -0.78137396      -2.20108930
15
Frame=13 idx=008460 GeodesicLength=0.6713825409547581 rxn_smarts="[C:1]1([H:8])([H:9])[C@@:2]2([H:10])[C@@:3]3([H:11])[O:4][C:5]([H:12])([H:13])[C@:6]1([H:14])[C@@:7]23[H:15]>>[C:1]1([H:8])([H:9])[C@:2]([C:3](=[O+:4][C-:5]([H:12])[H:13])[H:11])([H:10])[C:7]([H:15])=[C:6]1[H:14]"
C        0.76022336       1.18418113       0.20007091
C        1.23637473      -0.25413466      -0.09729655
C        0.39382512      -1.37335804       0.38204218
O       -0.71825317      -1.22527984       1.11009268
C       -1.61259051      -0.27253567       0.74903810
C       -0.40875830       0.88803674      -0.74359541
C        0.23107352      -0.27958101      -1.23833070
H        0.51356655       1.39840535       1.24197455
H        1.46700419       1.93526658      -0.15239682
H        2.28317481      -0.47754621      -0.27229664
H        0.80226761      -2.37270089       0.43464460
H       -1.57972038       0.67761695       1.25951191
H       -2.61049063      -0.68805245       0.64251571
H       -0.94931586       1.63321940      -1.31634656
H        0.19161895      -0.77353740      -2.19962797
15
Frame=14 idx=008460 GeodesicLength=0.723532813076523 rxn_smarts="[C:1]1([H:8])([H:9])[C@@:2]2([H:10])[C@@:3]3([H:11])[O:4][C:5]([H:12])([H:13])[C@:6]1([H:14])[C@@:7]23[H:15]>>[C:1]1([H:8])([H:9])[C@:2]([C:3](=[O+:4][C-:5]([H:12])[H:13])[H:11])([H:10])[C:7]([H:15])=[C:6]1[H:14]"
C        0.76580597       1.18316330       0.20047720
C        1.23746216      -0.25570716      -0.09870859
C        0.39133835      -1.37325436       0.37832380
O       -0.70761421      -1.21218903       1.13095582
C       -1.60929337      -0.27417916       0.74312138
C       -0.41565852       0.88784737      -0.72915737
C        0.21873311      -0.28714918      -1.22847667
H        0.52691008       1.39518228       1.24487122
H        1.46971011       1.93537142      -0.15506720
H        2.28114482      -0.48057559      -0.28805840
H        0.80474941      -2.36956250       0.44607668
H       -1.60451537       0.68034422       1.24700107
H       -2.59947478      -0.70302153       0.61653357
H       -0.93917433       1.63942357      -1.31016622
H        0.17987658      -0.76569366      -2.19772628
15
Frame=15 idx=008460 GeodesicLength=0.7757864449061239 rxn_smarts="[C:1]1([H:8])([H:9])[C@@:2]2([H:10])[C@@:3]3([H:11])[O:4][C:5]([H:12])([H:13])[C@:6]1([H:14])[C@@:7]23[H:15]>>[C:1]1([H:8])([H:9])[C@:2]([C:3](=[O+:4][C-:5]([H:12])[H:13])[H:11])([H:10])[C:7]([H:15])=[C:6]1[H:14]"
C        0.77145551       1.18218499       0.20080360
C        1.23848892      -0.25729759      -0.10010467
C        0.38870849      -1.37302201       0.37488219
O       -0.69728190      -1.19880234       1.15083157
C       -1.60603923      -0.27578736       0.73733788
C       -0.42230962       0.88783534      -0.71471614
C        0.20668697      -0.29451131      -1.21865267
H        0.54043590       1.39203697       1.24763652
H        1.47258208       1.93545700      -0.15770817
H        2.27887625      -0.48364085      -0.30365840
H        0.80698410      -2.36612268       0.45745821
H       -1.62944402       0.68245260       1.23416082
H       -2.58784512      -0.71809459       0.59096791
H       -0.92913987       1.64518374      -1.30381064
H        0.16784156      -0.75787191      -2.19542800
15
Frame=16 idx=008460 GeodesicLength=0.8281337423348446 rxn_smarts="[C:1]1([H:8])([H:9])[C@@:2]2([H:10])[C@@:3]3([H:11])[O:4][C:5]([H:12])([H:13])[C@:6]1([H:14])[C@@:7]23[H:15]>>[C:1]1([H:8])([H:9])[C@:2]([C:3](=[O+:4][C-:5]([H:12])[H:13])[H:11])([H:10])[C:7]([H:15])=[C:6]1[H:14]"
C        0.77716129       1.18124924       0.20105086
C        1.23946531      -0.25889565      -0.10147747
C        0.38596845      -1.37266719       0.37170603
O       -0.68726867      -1.18518136       1.16977173
C       -1.60283551      -0.27735252       0.73167605
C       -0.42872116       0.88798486      -0.70026903
C        0.19493692      -0.30167853      -1.20885765
H        0.55413402       1.38896629       1.25027147
H        1.47559711       1.93553540      -0.16032613
H        2.27638956      -0.48671942      -0.31907209
H        0.80896963      -2.36242109       0.46873049
H       -1.65447469       0.68393644       1.22099179
H       -2.57565319      -0.73317479       0.56585916
H       -0.91923695       1.65050825      -1.29729419
H        0.15556789      -0.75008994      -2.19276099
