9
Frame=0 idx=004557 GeodesicLength=0.0 rxn_smarts="[O:1]=[C:2]1[C:3]([H:6])([H:7])[C:4]([H:8])([H:9])[O:5]1>>[C:3](=[C:4]([H:8])[H:9])([H:6])[H:7].[O:1]=[C:2]=[O:5]"
O        2.11146058      -0.28366432      -0.75121660
C        1.01567533      -0.58698923      -0.44656182
C       -0.00049320       0.83268842       0.14798943
C       -0.98590952      -0.13565154       0.30744128
O        0.27356141      -1.57952810      -0.38373590
H       -0.06263516       1.51164069      -0.69270154
H        0.51530662       1.20523547       1.02358425
H       -1.72501399      -0.32788364      -0.45888488
H       -1.14195207      -0.63584775       1.25408578
9
Frame=1 idx=004557 GeodesicLength=0.04503606663974533 rxn_smarts="[O:1]=[C:2]1[C:3]([H:6])([H:7])[C:4]([H:8])([H:9])[O:5]1>>[C:3](=[C:4]([H:8])[H:9])([H:6])[H:7].[O:1]=[C:2]=[O:5]"
O        2.12441819      -0.29224835      -0.75368657
C        1.02733988      -0.59330802      -0.45377636
C       -0.00263071       0.83347492       0.14823133
C       -0.98588997      -0.14007848       0.30666620
O        0.27806010      -1.58129699      -0.38590230
H       -0.07006752       1.51713162      -0.68854854
H        0.50876331       1.21034899       1.02487107
H       -1.73246641      -0.32258930      -0.45510879
H       -1.14752687      -0.63143440       1.25725397
9
Frame=2 idx=004557 GeodesicLength=0.09007207809690478 rxn_smarts="[O:1]=[C:2]1[C:3]([H:6])([H:7])[C:4]([H:8])([H:9])[O:5]1>>[C:3](=[C:4]([H:8])[H:9])([H:6])[H:7].[O:1]=[C:2]=[O:5]"
O        2.13760786      -0.30102852      -0.75609222
C        1.03915870      -0.59970725      -0.46118716
C       -0.00481170       0.83426791       0.14845458
C       -0.98585003      -0.14456369       0.30586103
O        0.28267619      -1.58301388      -0.38812407
H       -0.07769463       1.52264340      -0.68431388
H        0.50208026       1.21546908       1.02615361
H       -1.73998311      -0.31718382      -0.45110594
H       -1.15318354      -0.62688322       1.26035403
9
Frame=3 idx=004557 GeodesicLength=0.13510848142306064 rxn_smarts="[O:1]=[C:2]1[C:3]([H:6])([H:7])[C:4]([H:8])([H:9])[O:5]1>>[C:3](=[C:4]([H:8])[H:9])([H:6])[H:7].[O:1]=[C:2]=[O:5]"
O        2.15102320      -0.31000675      -0.75844699
C        1.05113454      -0.60619098      -0.46879113
C       -0.00703802       0.83507165       0.14866236
C       -0.98579392      -0.14910357       0.30502370
O        0.28741339      -1.58467898      -0.39039031
H       -0.08551614       1.52817936      -0.67999336
H        0.49525827       1.22059404       1.02743600
H       -1.74755586      -0.31167223      -0.44687734
H       -1.15892546      -0.62219254       1.26337708
9
Frame=4 idx=004557 GeodesicLength=0.1801390995825538 rxn_smarts="[O:1]=[C:2]1[C:3]([H:6])([H:7])[C:4]([H:8])([H:9])[O:5]1>>[C:3](=[C:4]([H:8])[H:9])([H:6])[H:7].[O:1]=[C:2]=[O:5]"
O        2.16465493      -0.31917876      -0.76077693
C        1.06327621      -0.61276206      -0.47657020
C       -0.00931330       0.83588866       0.14885773
C       -0.98572514      -0.15369546       0.30415462
O        0.29226946      -1.58628987      -0.39269080
H       -0.09352853       1.53373345      -0.67558642
H        0.48829538       1.22571981       1.02872322
H       -1.75517144      -0.30605194      -0.44243102
H       -1.16475757      -0.61736382       1.26631978
9
Frame=5 idx=004557 GeodesicLength=0.22513839133316027 rxn_smarts="[O:1]=[C:2]1[C:3]([H:6])([H:7])[C:4]([H:8])([H:9])[O:5]1>>[C:3](=[C:4]([H:8])[H:9])([H:6])[H:7].[O:1]=[C:2]=[O:5]"
O        2.17851499      -0.32856441      -0.76304163
C        1.07557054      -0.61941877      -0.48457561
C       -0.01163807       0.83671403       0.14903649
C       -0.98564114      -0.15833416       0.30325303
O        0.29725652      -1.58782662      -0.39502668
H       -0.10174339       1.53930348      -0.67108055
H        0.48118157       1.23083775       1.03000498
H       -1.76282463      -0.30033042      -0.43773831
H       -1.17067638      -0.61238089       1.26916829
9
Frame=6 idx=004557 GeodesicLength=0.2701363162085499 rxn_smarts="[O:1]=[C:2]1[C:3]([H:6])([H:7])[C:4]([H:8])([H:9])[O:5]1>>[C:3](=[C:4]([H:8])[H:9])([H:6])[H:7].[O:1]=[C:2]=[O:5]"
O        2.19258973      -0.33815948      -0.76528993
C        1.08803891      -0.62617015      -0.49275880
C       -0.01401790       0.83755733       0.14920513
C       -0.98555114      -0.16301869       0.30231963
O        0.30236913      -1.58930250      -0.39739126
H       -0.11015862       1.54489255      -0.66647753
H        0.47392082       1.23595850       1.03129282
H       -1.77050554      -0.29450244      -0.43282074
H       -1.17668539      -0.60725511       1.27192068
9
Frame=7 idx=004557 GeodesicLength=0.3151302628172434 rxn_smarts="[O:1]=[C:2]1[C:3]([H:6])([H:7])[C:4]([H:8])([H:9])[O:5]1>>[C:3](=[C:4]([H:8])[H:9])([H:6])[H:7].[O:1]=[C:2]=[O:5]"
O        2.20689386      -0.34797908      -0.76747855
C        1.10067687      -0.63302007      -0.50114342
C       -0.01645174       0.83842144       0.14935848
C       -0.98545382      -0.16774727       0.30135575
O        0.30760107      -1.59070600      -0.39981149
H       -0.11878387       1.55050133      -0.66178235
H        0.46650665       1.24108975       1.03258093
H       -1.77822064      -0.28857265      -0.42765453
H       -1.18276838      -0.60198745       1.27457518
9
Frame=8 idx=004557 GeodesicLength=0.36012322401957314 rxn_smarts="[O:1]=[C:2]1[C:3]([H:6])([H:7])[C:4]([H:8])([H:9])[O:5]1>>[C:3](=[C:4]([H:8])[H:9])([H:6])[H:7].[O:1]=[C:2]=[O:5]"
O        2.22143110      -0.35803838      -0.76960863
C        1.11349381      -0.63997058      -0.50972987
C       -0.01894166       0.83930726       0.14949424
C       -0.98535007      -0.17251678       0.30036226
O        0.31295433      -1.59202853      -0.40229154
H       -0.12762757       1.55612884      -0.65698923
H        0.45892925       1.24623422       1.03386807
H       -1.78596440      -0.28253913      -0.42223056
H       -1.18892479      -0.59657692       1.27712525
9
Frame=9 idx=004557 GeodesicLength=0.4051121572993713 rxn_smarts="[O:1]=[C:2]1[C:3]([H:6])([H:7])[C:4]([H:8])([H:9])[O:5]1>>[C:3](=[C:4]([H:8])[H:9])([H:6])[H:7].[O:1]=[C:2]=[O:5]"
O        2.23622509      -0.36836380      -0.77160178
C        1.12648706      -0.64702428      -0.51854083
C       -0.02149408       0.84021759       0.14960060
C       -0.98523824      -0.17732682       0.29934610
O        0.31841286      -1.59325245      -0.40488993
H       -0.13671163       1.56176888      -0.65210998
H        0.45117824       1.25140583       1.03513576
H       -1.79374611      -0.27639136      -0.41651213
H       -1.19511318      -0.59103360       1.27957220
9
Frame=10 idx=004557 GeodesicLength=0.45009696551828465 rxn_smarts="[O:1]=[C:2]1[C:3]([H:6])([H:7])[C:4]([H:8])([H:9])[O:5]1>>[C:3](=[C:4]([H:8])[H:9])([H:6])[H:7].[O:1]=[C:2]=[O:5]"
O        2.25124463      -0.37894376      -0.77355581
C        1.13967267      -0.65418936      -0.52753593
C       -0.02410862       0.84115677       0.14969206
C       -0.98512880      -0.18216726       0.29830113
O        0.32399059      -1.59438027      -0.40754967
H       -0.14601774       1.56742469      -0.64712702
H        0.44325176       1.25659413       1.03640584
H       -1.80153560      -0.27014552      -0.41053336
H       -1.20136890      -0.58534942       1.28190277
9
Frame=11 idx=004557 GeodesicLength=0.49507915560093896 rxn_smarts="[O:1]=[C:2]1[C:3]([H:6])([H:7])[C:4]([H:8])([H:9])[O:5]1>>[C:3](=[C:4]([H:8])[H:9])([H:6])[H:7].[O:1]=[C:2]=[O:5]"
O        2.26648846      -0.38978639      -0.77547316
C        1.15305323      -0.66147335      -0.53671319
C       -0.02678823       0.84213056       0.14976969
C       -0.98502625      -0.18703109       0.29722851
O        0.32968606      -1.59540574      -0.41026949
H       -0.15555083       1.57309935      -0.64203729
H        0.43514748       1.26180154       1.03767956
H       -1.80932510      -0.26380708      -0.40429517
H       -1.20768483      -0.57952779       1.28411053
9
Frame=12 idx=004557 GeodesicLength=0.5400570256413135 rxn_smarts="[O:1]=[C:2]1[C:3]([H:6])([H:7])[C:4]([H:8])([H:9])[O:5]1>>[C:3](=[C:4]([H:8])[H:9])([H:6])[H:7].[O:1]=[C:2]=[O:5]"
O        2.28195249      -0.40089965      -0.77736509
C        1.16663591      -0.66888298      -0.54606003
C       -0.02953643       0.84314374       0.14983524
C       -0.98493597      -0.19191088       0.29612997
O        0.33549599      -1.59631935      -0.41305145
H       -0.16531221       1.57879135      -0.63683856
H        0.42685912       1.26703097       1.03895870
H       -1.81710357      -0.25738077      -0.39779930
H       -1.21405532      -0.57357244       1.28619052
9
Frame=13 idx=004557 GeodesicLength=0.5850308839444595 rxn_smarts="[O:1]=[C:2]1[C:3]([H:6])([H:7])[C:4]([H:8])([H:9])[O:5]1>>[C:3](=[C:4]([H:8])[H:9])([H:6])[H:7].[O:1]=[C:2]=[O:5]"
O        2.29763257      -0.41229073      -0.77924701
C        1.18042764      -0.67642621      -0.55556261
C       -0.03235668       0.84420221       0.14989119
C       -0.98486427      -0.19679813       0.29500720
O        0.34141747      -1.59711222      -0.41589398
H       -0.17530266       1.58450108      -0.63152814
H        0.41838162       1.27228528       1.04024628
H       -1.82486019      -0.25087294      -0.39105110
H       -1.22047550      -0.56748832       1.28813817
9
Frame=14 idx=004557 GeodesicLength=0.6300001572951718 rxn_smarts="[O:1]=[C:2]1[C:3]([H:6])([H:7])[C:4]([H:8])([H:9])[O:5]1>>[C:3](=[C:4]([H:8])[H:9])([H:6])[H:7].[O:1]=[C:2]=[O:5]"
O        2.31352140      -0.42396558      -0.78114281
C        1.19443595      -0.68411189      -0.56520369
C       -0.03525261       0.84531208       0.14994159
C       -0.98481766      -0.20168370       0.29386203
O        0.34744846      -1.59777598      -0.41878999
H       -0.18552170       1.59022928      -0.62610128
H        0.40970975       1.27756656       1.04154696
H       -1.83258085      -0.24429138      -0.38406104
H       -1.22694275      -0.56127939       1.28994823
9
Frame=15 idx=004557 GeodesicLength=0.6749721360869415 rxn_smarts="[O:1]=[C:2]1[C:3]([H:6])([H:7])[C:4]([H:8])([H:9])[O:5]1>>[C:3](=[C:4]([H:8])[H:9])([H:6])[H:7].[O:1]=[C:2]=[O:5]"
O        2.32962036      -0.43593318      -0.78306335
C        1.20866956      -0.69194996      -0.57496532
C       -0.03822902       0.84648191       0.14998799
C       -0.98480442      -0.20655804       0.29269731
O        0.35358232      -1.59830080      -0.42174612
H       -0.19597112       1.59597840      -0.62055848
H        0.40083960       1.28288020       1.04286260
H       -1.84026058      -0.23764358      -0.37683423
H       -1.23344669      -0.55495494       1.29161960
9
Frame=16 idx=004557 GeodesicLength=0.7199256704950969 rxn_smarts="[O:1]=[C:2]1[C:3]([H:6])([H:7])[C:4]([H:8])([H:9])[O:5]1>>[C:3](=[C:4]([H:8])[H:9])([H:6])[H:7].[O:1]=[C:2]=[O:5]"
O        2.34591985      -0.44820228      -0.78501455
C        1.22312875      -0.69994627      -0.58483790
C       -0.04129051       0.84771696       0.15003184
C       -0.98482863      -0.21140831       0.29151624
O        0.35981283      -1.59866874      -0.42476298
H       -0.20665078       1.60174486      -0.61489828
H        0.39176504       1.28822502       1.04419415
H       -1.84788201      -0.23094012      -0.36937927
H       -1.23997453      -0.54852113       1.29315075
