15
Frame=0 idx=008216 GeodesicLength=0.0 rxn_smarts="[C:1]1([H:8])([H:9])[O:2][C@@:3]2([H:10])[C:4]([H:11])=[C:5]([H:12])[C:6]([H:13])([H:14])[C@@:7]12[H:15]>>[C:1]1([H:8])([H:9])[O:2][C:3]([H:10])=[C:4]([H:11])[C@:5]2([H:12])[C:6]([H:13])([H:14])[C@@:7]12[H:15]"
C       -1.36888845      -0.32178519      -0.60439692
O       -1.06125469      -1.54484131       0.19769633
C        0.16277348      -1.60876663       0.69353074
C        1.19971949      -0.74694177       0.56272151
C        1.21916296       0.45689891      -0.22589113
C        0.32377830       1.60456654      -0.12275149
C       -0.95657117       0.88760837       0.09653919
H       -0.89536211      -0.43163975      -1.58488258
H       -2.45133741      -0.41379828      -0.70396596
H        0.33441407      -2.56837439       1.17049021
H        2.16417346      -1.16339156       0.84512448
H        1.83139859       0.38918652      -1.12969141
H        0.51411841       2.24088757       0.74382130
H        0.38761305       2.22403837      -1.02062211
H       -1.40373803       0.99635266       1.08227785
15
Frame=1 idx=008216 GeodesicLength=0.08784622603319735 rxn_smarts="[C:1]1([H:8])([H:9])[O:2][C@@:3]2([H:10])[C:4]([H:11])=[C:5]([H:12])[C:6]([H:13])([H:14])[C@@:7]12[H:15]>>[C:1]1([H:8])([H:9])[O:2][C:3]([H:10])=[C:4]([H:11])[C@:5]2([H:12])[C:6]([H:13])([H:14])[C@@:7]12[H:15]"
C       -1.36532677      -0.32790686      -0.62505129
O       -1.04832837      -1.56493334       0.14512203
C        0.15015995      -1.57952427       0.71263194
C        1.21300173      -0.75145841       0.54549878
C        1.21781312       0.45551082      -0.23286368
C        0.32608266       1.60674177      -0.11104085
C       -0.93227542       0.85303112       0.11470321
H       -0.89914292      -0.41564134      -1.61120374
H       -2.44922681      -0.41011122      -0.71706542
H        0.29587403      -2.50485696       1.26201373
H        2.17485719      -1.18093994       0.81552706
H        1.81477670       0.39490393      -1.14697730
H        0.51898041       2.23599182       0.75974268
H        0.36985250       2.22958815      -1.00745129
H       -1.38709801       0.95960474       1.09641414
15
Frame=2 idx=008216 GeodesicLength=0.17624205233218257 rxn_smarts="[C:1]1([H:8])([H:9])[O:2][C@@:3]2([H:10])[C:4]([H:11])=[C:5]([H:12])[C:6]([H:13])([H:14])[C@@:7]12[H:15]>>[C:1]1([H:8])([H:9])[O:2][C:3]([H:10])=[C:4]([H:11])[C@:5]2([H:12])[C:6]([H:13])([H:14])[C@@:7]12[H:15]"
C       -1.36234744      -0.33414254      -0.64249808
O       -1.03343786      -1.58211635       0.09864493
C        0.13830250      -1.55109928       0.72841008
C        1.22495416      -0.75502590       0.53275934
C        1.21677423       0.45376345      -0.23743910
C        0.32825831       1.60848662      -0.10099556
C       -0.90826619       0.81999120       0.13048135
H       -0.90517651      -0.40099588      -1.63445552
H       -2.44760818      -0.40827788      -0.72473239
H        0.25971958      -2.44541327       1.33338707
H        2.18354238      -1.19671611       0.79353195
H        1.79994628       0.39877764      -1.16044168
H        0.52296407       2.23293074       0.77251420
H        0.35324686       2.23256358      -0.99696803
H       -1.37087220       0.92727399       1.10780142
15
Frame=3 idx=008216 GeodesicLength=0.2650008706678865 rxn_smarts="[C:1]1([H:8])([H:9])[O:2][C@@:3]2([H:10])[C:4]([H:11])=[C:5]([H:12])[C:6]([H:13])([H:14])[C@@:7]12[H:15]>>[C:1]1([H:8])([H:9])[O:2][C:3]([H:10])=[C:4]([H:11])[C@:5]2([H:12])[C:6]([H:13])([H:14])[C@@:7]12[H:15]"
C       -1.35993713      -0.34025993      -0.65740616
O       -1.01748152      -1.59668265       0.05709077
C        0.12742830      -1.52419921       0.74055082
C        1.23580636      -0.75771089       0.52340537
C        1.21593901       0.45176073      -0.24031879
C        0.33034480       1.60984145      -0.09230027
C       -0.88453758       0.78840286       0.14423870
H       -0.91317958      -0.38723896      -1.65511639
H       -2.44643772      -0.40765070      -0.72828593
H        0.22566399      -2.39038319       1.38994487
H        2.19061494      -1.21024855       0.77790451
H        1.78652224       0.40131755      -1.17099626
H        0.52634309       2.23114836       0.78274390
H        0.33763848       2.23355712      -0.98845789
H       -1.35472767       0.89834601       1.11700274
15
Frame=4 idx=008216 GeodesicLength=0.3538554553644541 rxn_smarts="[C:1]1([H:8])([H:9])[O:2][C@@:3]2([H:10])[C:4]([H:11])=[C:5]([H:12])[C:6]([H:13])([H:14])[C@@:7]12[H:15]>>[C:1]1([H:8])([H:9])[O:2][C:3]([H:10])=[C:4]([H:11])[C@:5]2([H:12])[C:6]([H:13])([H:14])[C@@:7]12[H:15]"
C       -1.35801824      -0.34615814      -0.67031143
O       -1.00103840      -1.60908048       0.01954167
C        0.11753830      -1.49898715       0.74954224
C        1.24579945      -0.75971663       0.51664588
C        1.21523136       0.44954813      -0.24200249
C        0.33233107       1.61092495      -0.08468450
C       -0.86112500       0.75821939       0.15627560
H       -0.92277669      -0.37416102      -1.67364282
H       -2.44560801      -0.40780956      -0.72880808
H        0.19346630      -2.33954476       1.43530407
H        2.19649878      -1.22168795       0.76747416
H        1.77415332       0.40280081      -1.17942903
H        0.52923619       2.23034384       0.79102363
H        0.32286334       2.23315847      -0.98142187
H       -1.33855176       0.87215010       1.12449296
15
Frame=5 idx=008216 GeodesicLength=0.44259404917725553 rxn_smarts="[C:1]1([H:8])([H:9])[O:2][C@@:3]2([H:10])[C:4]([H:11])=[C:5]([H:12])[C:6]([H:13])([H:14])[C@@:7]12[H:15]>>[C:1]1([H:8])([H:9])[O:2][C:3]([H:10])=[C:4]([H:11])[C@:5]2([H:12])[C:6]([H:13])([H:14])[C@@:7]12[H:15]"
C       -1.35653322      -0.35179299      -0.68156814
O       -0.98457903      -1.61965343      -0.01461706
C        0.10861193      -1.47546190       0.75578740
C        1.25501748      -0.76124965       0.51200028
C        1.21455866       0.44711838      -0.24273951
C        0.33419698       1.61183128      -0.07795427
C       -0.83804456       0.72935479       0.16679823
H       -0.93367961      -0.36171598      -1.69040283
H       -2.44503527      -0.40841493      -0.72700810
H        0.16326315      -2.29236418       1.47166835
H        2.20144544      -1.23138830       0.76142712
H        1.76258160       0.40336054      -1.18618259
H        0.53168934       2.23036045       0.79778331
H        0.30881489       2.23176253      -0.97553160
H       -1.32230777       0.84825339       1.13053941
15
Frame=6 idx=008216 GeodesicLength=0.531269464083155 rxn_smarts="[C:1]1([H:8])([H:9])[O:2][C@@:3]2([H:10])[C:4]([H:11])=[C:5]([H:12])[C:6]([H:13])([H:14])[C@@:7]12[H:15]>>[C:1]1([H:8])([H:9])[O:2][C:3]([H:10])=[C:4]([H:11])[C@:5]2([H:12])[C:6]([H:13])([H:14])[C@@:7]12[H:15]"
C       -1.35535717      -0.35718084      -0.69154452
O       -0.96815442      -1.62875154      -0.04620115
C        0.10045366      -1.45341016       0.75999989
C        1.26379545      -0.76242159       0.50884814
C        1.21396259       0.44452716      -0.24287365
C        0.33593078       1.61256711      -0.07187062
C       -0.81536749       0.70173184       0.17601085
H       -0.94556990      -0.34970569      -1.70564152
H       -2.44458441      -0.40940052      -0.72358288
H        0.13427367      -2.24830518       1.50168236
H        2.20593831      -1.23963488       0.75846582
H        1.75163277       0.40326537      -1.19181844
H        0.53374719       2.23086381       0.80348622
H        0.29535599       2.22970564      -0.97038800
H       -1.30605703       0.82614945       1.13542750
15
Frame=7 idx=008216 GeodesicLength=0.6199033947306959 rxn_smarts="[C:1]1([H:8])([H:9])[O:2][C@@:3]2([H:10])[C:4]([H:11])=[C:5]([H:12])[C:6]([H:13])([H:14])[C@@:7]12[H:15]>>[C:1]1([H:8])([H:9])[O:2][C:3]([H:10])=[C:4]([H:11])[C@:5]2([H:12])[C:6]([H:13])([H:14])[C@@:7]12[H:15]"
C       -1.35442952      -0.36234476      -0.70046234
O       -0.95187081      -1.63660066      -0.07566349
C        0.09295610      -1.43267427       0.76261755
C        1.27222738      -0.76331151       0.50689142
C        1.21341763       0.44179433      -0.24254550
C        0.33753529       1.61317669      -0.06630479
C       -0.79310043       0.67527829       0.18405274
H       -0.95825689      -0.33807945      -1.71956428
H       -2.44419293      -0.41068850      -0.71893566
H        0.10631942      -2.20695137       1.52667648
H        2.21016363      -1.24669349       0.75790367
H        1.74116307       0.40261619      -1.19659089
H        0.53544939       2.23174132       0.80838835
H        0.28242364       2.22718659      -0.96578324
H       -1.28980497       0.80555058       1.13932000
15
Frame=8 idx=008216 GeodesicLength=0.7084802639660414 rxn_smarts="[C:1]1([H:8])([H:9])[O:2][C@@:3]2([H:10])[C:4]([H:11])=[C:5]([H:12])[C:6]([H:13])([H:14])[C@@:7]12[H:15]>>[C:1]1([H:8])([H:9])[O:2][C:3]([H:10])=[C:4]([H:11])[C@:5]2([H:12])[C:6]([H:13])([H:14])[C@@:7]12[H:15]"
C       -1.35370448      -0.36729716      -0.70846340
O       -0.93579812      -1.64334743      -0.10329555
C        0.08600243      -1.41308006       0.76401562
C        1.28035942      -0.76394611       0.50595924
C        1.21291705       0.43894269      -0.24183001
C        0.33901892       1.61368014      -0.06118306
C       -0.77125830       0.64994128       0.19102918
H       -0.97160183      -0.32680727      -1.73227666
H       -2.44381678      -0.41221484      -0.71332287
H        0.07935433      -2.16812120       1.54742554
H        2.21419299      -1.25274869       0.75925700
H        1.73110945       0.40148627      -1.20063220
H        0.53682290       2.23292465       0.81262016
H        0.26998313       2.22430908      -0.96162318
H       -1.27358110       0.78627865       1.14232019
15
Frame=9 idx=008216 GeodesicLength=0.7968471750047843 rxn_smarts="[C:1]1([H:8])([H:9])[O:2][C@@:3]2([H:10])[C:4]([H:11])=[C:5]([H:12])[C:6]([H:13])([H:14])[C@@:7]12[H:15]>>[C:1]1([H:8])([H:9])[O:2][C:3]([H:10])=[C:4]([H:11])[C@:5]2([H:12])[C:6]([H:13])([H:14])[C@@:7]12[H:15]"
C       -1.35316838      -0.37204363      -0.71563006
O       -0.92005386      -1.64912059      -0.12928305
C        0.07958732      -1.39460302       0.76427527
C        1.28812968      -0.76438061       0.50596898
C        1.21241161       0.43595861      -0.24072401
C        0.34038765       1.61409406      -0.05644575
C       -0.74985110       0.62566192       0.19701446
H       -0.98550523      -0.31592420      -1.74388407
H       -2.44344121      -0.41387253      -0.70689311
H        0.05358521      -2.13142241       1.56436750
H        2.21798055      -1.25798101       0.76226934
H        1.72142178       0.39990053      -1.20395589
H        0.53789565       2.23438962       0.81627106
H        0.25802838       2.22113212      -0.95783245
H       -1.25740804       0.76821114       1.14448180
15
Frame=10 idx=008216 GeodesicLength=0.8852427523777523 rxn_smarts="[C:1]1([H:8])([H:9])[O:2][C@@:3]2([H:10])[C:4]([H:11])=[C:5]([H:12])[C:6]([H:13])([H:14])[C@@:7]12[H:15]>>[C:1]1([H:8])([H:9])[O:2][C:3]([H:10])=[C:4]([H:11])[C@:5]2([H:12])[C:6]([H:13])([H:14])[C@@:7]12[H:15]"
C       -1.35276003      -0.37662555      -0.72213823
O       -0.90453465      -1.65406577      -0.15401365
C        0.07354619      -1.37698892       0.76389736
C        1.29569310      -0.76462119       0.50668030
C        1.21194451       0.43289458      -0.23936381
C        0.34166026       1.61443040      -0.05201318
C       -0.72887366       0.60237274       0.20212368
H       -0.99984965      -0.30531032      -1.75450693
H       -2.44301648      -0.41572551      -0.69989640
H        0.02856571      -2.09673793       1.57853172
H        2.22171158      -1.26254306       0.76634343
H        1.71203542       0.39797927      -1.20677649
H        0.53870398       2.23602753       0.81948713
H        0.24650082       2.21776062      -0.95428484
H       -1.24132712       0.75115310       1.14592991
15
Frame=11 idx=008216 GeodesicLength=0.9736799690558973 rxn_smarts="[C:1]1([H:8])([H:9])[O:2][C@@:3]2([H:10])[C:4]([H:11])=[C:5]([H:12])[C:6]([H:13])([H:14])[C@@:7]12[H:15]>>[C:1]1([H:8])([H:9])[O:2][C:3]([H:10])=[C:4]([H:11])[C@:5]2([H:12])[C:6]([H:13])([H:14])[C@@:7]12[H:15]"
C       -1.35246453      -0.38106152      -0.72807094
O       -0.88923483      -1.65826355      -0.17767241
C        0.06784506      -1.36016422       0.76298734
C        1.30306561      -0.76469453       0.50798692
C        1.21151654       0.42975978      -0.23778811
C        0.34284750       1.61469753      -0.04784084
C       -0.70831064       0.58000702       0.20643820
H       -1.01457558      -0.29494677      -1.76423373
H       -2.44253454      -0.41776668      -0.69243695
H        0.00421996      -2.06382481       1.59037667
H        2.22539030      -1.26654563       0.77125346
H        1.70293427       0.39577182      -1.20915438
H        0.53927256       2.23780391       0.82234095
H        0.23537455       2.21424399      -0.95092913
H       -1.22534623       0.73498365       1.14674294
15
Frame=12 idx=008216 GeodesicLength=1.0621428657668153 rxn_smarts="[C:1]1([H:8])([H:9])[O:2][C@@:3]2([H:10])[C:4]([H:11])=[C:5]([H:12])[C:6]([H:13])([H:14])[C@@:7]12[H:15]>>[C:1]1([H:8])([H:9])[O:2][C:3]([H:10])=[C:4]([H:11])[C@:5]2([H:12])[C:6]([H:13])([H:14])[C@@:7]12[H:15]"
C       -1.35227213      -0.38536181      -0.73348529
O       -0.87415638      -1.66177609      -0.20038860
C        0.06244549      -1.34405833       0.76163741
C        1.31024735      -0.76461115       0.50982975
C        1.21112602       0.42656309      -0.23601711
C        0.34396130       1.61490396      -0.04390653
C       -0.68815343       0.55851335       0.21002582
H       -1.02964170      -0.28482103      -1.77311837
H       -2.44199315      -0.41997762      -0.68458399
H       -0.01946866      -2.03255859       1.60017234
H        2.22901214      -1.27006276       0.77685729
H        1.69411444       0.39330954      -1.21112047
H        0.53962509       2.23970707       0.82486360
H        0.22463051       2.21060352      -0.94774427
H       -1.20947687       0.71962685       1.14697841
15
Frame=13 idx=008216 GeodesicLength=1.1506532590135459 rxn_smarts="[C:1]1([H:8])([H:9])[O:2][C@@:3]2([H:10])[C:4]([H:11])=[C:5]([H:12])[C:6]([H:13])([H:14])[C@@:7]12[H:15]>>[C:1]1([H:8])([H:9])[O:2][C:3]([H:10])=[C:4]([H:11])[C@:5]2([H:12])[C:6]([H:13])([H:14])[C@@:7]12[H:15]"
C       -1.35217195      -0.38954251      -0.73843687
O       -0.85927486      -1.66466178      -0.22231179
C        0.05732119      -1.32861312       0.75993053
C        1.31724597      -0.76439241       0.51213641
C        1.21077397       0.42331091      -0.23407121
C        0.34501192       1.61505416      -0.04017961
C       -0.66838875       0.53782854       0.21295423
H       -1.04500768      -0.27491312      -1.78122341
H       -2.44138150      -0.42236203      -0.67639187
H       -0.04257179      -2.00273525       1.60821633
H        2.23258085      -1.27317758       0.78300023
H        1.68556613       0.39062472      -1.21271407
H        0.53978076       2.24171465       0.82710164
H        0.21424559       2.20686661      -0.94470251
H       -1.19372985       0.70499822       1.14669197
15
Frame=14 idx=008216 GeodesicLength=1.2391880445672518 rxn_smarts="[C:1]1([H:8])([H:9])[O:2][C@@:3]2([H:10])[C:4]([H:11])=[C:5]([H:12])[C:6]([H:13])([H:14])[C@@:7]12[H:15]>>[C:1]1([H:8])([H:9])[O:2][C:3]([H:10])=[C:4]([H:11])[C@:5]2([H:12])[C:6]([H:13])([H:14])[C@@:7]12[H:15]"
C       -1.35216389      -0.39360740      -0.74297046
O       -0.84459287      -1.66696812      -0.24351611
C        0.05243594      -1.31377663       0.75791710
C        1.32407019      -0.76404864       0.51485425
C        1.21046576       0.42000742      -0.23197670
C        0.34600929       1.61514906      -0.03664662
C       -0.64900255       0.51790863       0.21527838
H       -1.06064967      -0.26521274      -1.78857969
H       -2.44071236      -0.42489535      -0.66791496
H       -0.06510208      -1.97428820       1.61468215
H        2.23609526      -1.27591357       0.78962732
H        1.67729589       0.38774589      -1.21396539
H        0.53976476       2.24381349       0.82907064
H        0.20419939       2.20304184      -0.94179073
H       -1.17811307       0.69104431       1.14593081
15
Frame=15 idx=008216 GeodesicLength=1.3277501942681849 rxn_smarts="[C:1]1([H:8])([H:9])[O:2][C@@:3]2([H:10])[C:4]([H:11])=[C:5]([H:12])[C:6]([H:13])([H:14])[C@@:7]12[H:15]>>[C:1]1([H:8])([H:9])[O:2][C:3]([H:10])=[C:4]([H:11])[C@:5]2([H:12])[C:6]([H:13])([H:14])[C@@:7]12[H:15]"
C       -1.35224349      -0.39756495      -0.74712579
O       -0.83009518      -1.66874039      -0.26410325
C        0.04777004      -1.29950706       0.75563846
C        1.33072585      -0.76359627       0.51792852
C        1.21020354       0.41665604      -0.22975318
C        0.34696285       1.61519091      -0.03328977
C       -0.62998030       0.49870303       0.21705138
H       -1.07654716      -0.25570284      -1.79522743
H       -2.43998624      -0.42757524      -0.65918734
H       -0.08710939      -1.94708994       1.61976503
H        2.23955870      -1.27830967       0.79666676
H        1.66930312       0.38469830      -1.21490446
H        0.53959731       2.24598919       0.83079595
H        0.19447301       2.19914255      -0.93899219
H       -1.16263266       0.67770634       1.14473732
15
Frame=16 idx=008216 GeodesicLength=1.4163423326677504 rxn_smarts="[C:1]1([H:8])([H:9])[O:2][C@@:3]2([H:10])[C:4]([H:11])=[C:5]([H:12])[C:6]([H:13])([H:14])[C@@:7]12[H:15]>>[C:1]1([H:8])([H:9])[O:2][C:3]([H:10])=[C:4]([H:11])[C@:5]2([H:12])[C:6]([H:13])([H:14])[C@@:7]12[H:15]"
C       -1.35240834      -0.40142105      -0.75093425
O       -0.81577135      -1.67001621      -0.28415476
C        0.04330211      -1.28576608       0.75312828
C        1.33721813      -0.76305038       0.52131305
C        1.20998901       0.41325887      -0.22741679
C        0.34788036       1.61518098      -0.03009516
C       -0.61130783       0.48016564       0.21832345
H       -1.09268056      -0.24637201      -1.80119932
H       -2.43920495      -0.43039430      -0.65023647
H       -0.10862690      -1.92104204       1.62360928
H        2.24297035      -1.28039309       0.80407320
H        1.66158835       0.38150226      -1.21555676
H        0.53929746       2.24823255       0.83229509
H        0.18504713       2.19517769      -0.93629769
H       -1.14729295       0.66493718       1.14314884
