14
Frame=0 idx=011485 GeodesicLength=0.0 rxn_smarts="[C:1]([C@@:2]([C:3]#[N:4])([C:5](=[O:6])[C:7]([H:12])([H:13])[H:14])[H:11])([H:8])([H:9])[H:10]>>[C:1]([C:2]([C:3]#[N:4])([C:5](=[O:6])[H:11])[C:7]([H:12])([H:13])[H:14])([H:8])([H:9])[H:10]"
C       -1.67841366      -0.29338654       0.73968647
C       -0.64665867       0.12359333      -0.20219933
C       -0.74772753       1.32372300      -0.94495999
N       -0.81983860       2.30089213      -1.55097117
C        0.50645301      -0.74984266      -0.33936292
O        0.53399840      -1.86296594       0.28676062
C        1.75770322       0.21570236       0.05374529
H       -1.16446293      -0.55274999       1.67724562
H       -2.48944375       0.41293654       0.88565240
H       -2.03932988      -1.27645549       0.40322611
H        0.68531639      -0.79168874      -1.45286908
H        2.62199239      -0.41594715      -0.12771134
H        1.68143618       0.44158998       1.11486072
H        1.79897547       1.12459917      -0.54310340
14
Frame=1 idx=011485 GeodesicLength=0.1120035179404894 rxn_smarts="[C:1]([C@@:2]([C:3]#[N:4])([C:5](=[O:6])[C:7]([H:12])([H:13])[H:14])[H:11])([H:8])([H:9])[H:10]>>[C:1]([C:2]([C:3]#[N:4])([C:5](=[O:6])[H:11])[C:7]([H:12])([H:13])[H:14])([H:8])([H:9])[H:10]"
C       -1.66711955      -0.29820206       0.73629181
C       -0.62957744       0.11489044      -0.20683875
C       -0.73633985       1.32578532      -0.93507866
N       -0.79845368       2.32151222      -1.51064942
C        0.51024031      -0.77753068      -0.34795200
O        0.53239882      -1.89107701       0.26434447
C        1.74581781       0.21930595       0.05726375
H       -1.16371360      -0.50775956       1.69097395
H       -2.49963853       0.39012380       0.84370124
H       -2.01388407      -1.29741133       0.43769470
H        0.62991876      -0.77591201      -1.48409536
H        2.61776251      -0.41395156      -0.07907370
H        1.66206315       0.48743126       1.10802234
H        1.81052537       1.10279521      -0.57460437
14
Frame=2 idx=011485 GeodesicLength=0.22399369285026338 rxn_smarts="[C:1]([C@@:2]([C:3]#[N:4])([C:5](=[O:6])[C:7]([H:12])([H:13])[H:14])[H:11])([H:8])([H:9])[H:10]>>[C:1]([C:2]([C:3]#[N:4])([C:5](=[O:6])[H:11])[C:7]([H:12])([H:13])[H:14])([H:8])([H:9])[H:10]"
C       -1.65507175      -0.30300391       0.73305791
C       -0.61221252       0.10673709      -0.21161283
C       -0.72462523       1.32883301      -0.92426751
N       -0.77863294       2.34043607      -1.47174799
C        0.51419498      -0.80438406      -0.35883727
O        0.53048659      -1.91855267       0.23960790
C        1.73389581       0.22264002       0.06128565
H       -1.16333279      -0.46135345       1.70270443
H       -2.50812963       0.36516125       0.80192069
H       -1.98709060      -1.31704608       0.47369897
H        0.57289781      -0.76038942      -1.51348371
H        2.61174956      -0.41150423      -0.02871742
H        1.64271574       0.53292215       1.09986604
H        1.82315498       1.07950423      -0.60347484
14
Frame=3 idx=011485 GeodesicLength=0.335990998827612 rxn_smarts="[C:1]([C@@:2]([C:3]#[N:4])([C:5](=[O:6])[C:7]([H:12])([H:13])[H:14])[H:11])([H:8])([H:9])[H:10]>>[C:1]([C:2]([C:3]#[N:4])([C:5](=[O:6])[H:11])[C:7]([H:12])([H:13])[H:14])([H:8])([H:9])[H:10]"
C       -1.64231540      -0.30778102       0.73005077
C       -0.59458380       0.09918344      -0.21641707
C       -0.71263830       1.33266786      -0.91273106
N       -0.76038039       2.35778601      -1.43441749
C        0.51825052      -0.83030964      -0.37190646
O        0.52826308      -1.94534000       0.21249137
C        1.72198127       0.22568637       0.06589503
H       -1.16357685      -0.41353237       1.71244691
H       -2.51494624       0.33797579       0.76028868
H       -1.95877671      -1.33529133       0.51130286
H        0.51446551      -0.74506768      -1.54099629
H        2.60369093      -0.40879388       0.02291907
H        1.62380016       0.57789177       1.09051217
H        1.83676623       1.05492469      -0.62943848
14
Frame=4 idx=011485 GeodesicLength=0.448001943341364 rxn_smarts="[C:1]([C@@:2]([C:3]#[N:4])([C:5](=[O:6])[C:7]([H:12])([H:13])[H:14])[H:11])([H:8])([H:9])[H:10]>>[C:1]([C:2]([C:3]#[N:4])([C:5](=[O:6])[H:11])[C:7]([H:12])([H:13])[H:14])([H:8])([H:9])[H:10]"
C       -1.62887593      -0.31251295       0.72733390
C       -0.57668691       0.09227839      -0.22115167
C       -0.70039845       1.33715765      -0.90059820
N       -0.74387334       2.37366043      -1.39890837
C        0.52235200      -0.85522301      -0.38704578
O        0.52570162      -1.97139235       0.18293117
C        1.71013262       0.22840605       0.07118319
H       -1.16472723      -0.36428591       1.72019809
H       -2.52008387       0.30846247       0.71877248
H       -1.92873860      -1.35205026       0.55056858
H        0.45479065      -0.72980974      -1.56659203
H        2.59339222      -0.40609221       0.07544407
H        1.60570891       0.62215504       1.08011037
H        1.85130630       1.02924641      -0.65224579
14
Frame=5 idx=011485 GeodesicLength=0.5600352330473325 rxn_smarts="[C:1]([C@@:2]([C:3]#[N:4])([C:5](=[O:6])[C:7]([H:12])([H:13])[H:14])[H:11])([H:8])([H:9])[H:10]>>[C:1]([C:2]([C:3]#[N:4])([C:5](=[O:6])[H:11])[C:7]([H:12])([H:13])[H:14])([H:8])([H:9])[H:10]"
C       -1.61478195      -0.31719561       0.72495432
C       -0.55853595       0.08601456      -0.22576783
C       -0.68797541       1.34212754      -0.88805053
N       -0.72905867       2.38827821      -1.36517905
C        0.52644906      -0.87907393      -0.40412369
O        0.52277993      -1.99664971       0.15096737
C        1.69837897       0.23079101       0.07717473
H       -1.16710667      -0.31356518       1.72590635
H       -2.52353681       0.27641947       0.67729472
H       -1.89674252      -1.36721996       0.59158286
H        0.39398074      -0.71453694      -1.59019895
H        2.58070357      -0.40364862       0.12852524
H        1.58875837       0.66562341       1.06873289
H        1.86668735       1.00263575      -0.67181843
14
Frame=6 idx=011485 GeodesicLength=0.6721026581311019 rxn_smarts="[C:1]([C@@:2]([C:3]#[N:4])([C:5](=[O:6])[C:7]([H:12])([H:13])[H:14])[H:11])([H:8])([H:9])[H:10]>>[C:1]([C:2]([C:3]#[N:4])([C:5](=[O:6])[H:11])[C:7]([H:12])([H:13])[H:14])([H:8])([H:9])[H:10]"
C       -1.60001959      -0.32178757       0.72296211
C       -0.54011445       0.08042093      -0.23023155
C       -0.67536233       1.34753612      -0.87514587
N       -0.71624259       2.40167441      -1.33345710
C        0.53049873      -0.90180098      -0.42305521
O        0.51941684      -2.02105553       0.11655010
C        1.68677130       0.23279025       0.08393179
H       -1.17102387      -0.26133451       1.72949995
H       -2.52520685       0.24168274       0.63584732
H       -1.86251846      -1.38064461       0.63442269
H        0.33213865      -0.69903745      -1.61176126
H        2.56551790      -0.40179383       0.18192598
H        1.57323166       0.70811367       1.05652344
H        1.88291308       0.97523637      -0.68801237
14
Frame=7 idx=011485 GeodesicLength=0.7842227668380259 rxn_smarts="[C:1]([C@@:2]([C:3]#[N:4])([C:5](=[O:6])[C:7]([H:12])([H:13])[H:14])[H:11])([H:8])([H:9])[H:10]>>[C:1]([C:2]([C:3]#[N:4])([C:5](=[O:6])[H:11])[C:7]([H:12])([H:13])[H:14])([H:8])([H:9])[H:10]"
C       -1.58458467      -0.32626482       0.72139068
C       -0.52143697       0.07547149      -0.23456649
C       -0.66261340       1.35327898      -0.86202261
N       -0.70541120       2.41402070      -1.30361742
C        0.53445934      -0.92337346      -0.44373627
O        0.51553676      -2.04452599       0.07975859
C        1.67532354       0.23439641       0.09143232
H       -1.17682839      -0.20755206       1.73083433
H       -2.52498813       0.20399033       0.59440787
H       -1.82577142      -1.39214628       0.67917249
H        0.26932322      -0.68320918      -1.63118080
H        2.54773457      -0.40077225       0.23546242
H        1.55932023       0.74952938       1.04352686
H        1.89993652       0.94715676      -0.70086198
14
Frame=8 idx=011485 GeodesicLength=0.8964713396852982 rxn_smarts="[C:1]([C@@:2]([C:3]#[N:4])([C:5](=[O:6])[C:7]([H:12])([H:13])[H:14])[H:11])([H:8])([H:9])[H:10]>>[C:1]([C:2]([C:3]#[N:4])([C:5](=[O:6])[H:11])[C:7]([H:12])([H:13])[H:14])([H:8])([H:9])[H:10]"
C       -1.56847741      -0.33060822       0.72026714
C       -0.50253852       0.07112869      -0.23884123
C       -0.64980028       1.35928756      -0.84885044
N       -0.69643464       2.42554503      -1.27542415
C        0.53827911      -0.94378708      -0.46606911
O        0.51103128      -2.06699614       0.04073731
C        1.66405041       0.23562089       0.09962061
H       -1.18489426      -0.15217355       1.72971278
H       -2.52275837       0.16299999       0.55295268
H       -1.78617630      -1.40153409       0.72595591
H        0.20554933      -0.66698666      -1.64836024
H        2.52727427      -0.40077795       0.28898770
H        1.54717929       0.78977194       1.02977922
H        1.91771607       0.91850960      -0.71046817
14
Frame=9 idx=011485 GeodesicLength=1.008743728012539 rxn_smarts="[C:1]([C@@:2]([C:3]#[N:4])([C:5](=[O:6])[C:7]([H:12])([H:13])[H:14])[H:11])([H:8])([H:9])[H:10]>>[C:1]([C:2]([C:3]#[N:4])([C:5](=[O:6])[H:11])[C:7]([H:12])([H:13])[H:14])([H:8])([H:9])[H:10]"
C       -1.55164023      -0.33473735       0.71963121
C       -0.48341604       0.06736879      -0.24309887
C       -0.63693658       1.36545953      -0.83567536
N       -0.68945023       2.43629915      -1.24893105
C        0.54196026      -0.96299507      -0.48991430
O        0.50581142      -2.08830512      -0.00033858
C        1.65293725       0.23647247       0.10843922
H       -1.19548157      -0.09563809       1.72584329
H       -2.51815957       0.11867535       0.51196215
H       -1.74357123      -1.40833655       0.77435443
H        0.14093462      -0.65032454      -1.66308767
H        2.50402268      -0.40191142       0.34251186
H        1.53680828       0.82871930       1.01528455
H        1.93618093       0.88925355      -0.71698088
14
Frame=10 idx=011485 GeodesicLength=1.1211960862199026 rxn_smarts="[C:1]([C@@:2]([C:3]#[N:4])([C:5](=[O:6])[C:7]([H:12])([H:13])[H:14])[H:11])([H:8])([H:9])[H:10]>>[C:1]([C:2]([C:3]#[N:4])([C:5](=[O:6])[H:11])[C:7]([H:12])([H:13])[H:14])([H:8])([H:9])[H:10]"
C       -1.53407671      -0.33861346       0.71949054
C       -0.46413122       0.06415850      -0.24748035
C       -0.62408751       1.37179428      -0.82271002
N       -0.68426770       2.44642342      -1.22390370
C        0.54544369      -0.98102788      -0.51517114
O        0.49971807      -2.10839472      -0.04320250
C        1.64199548       0.23699381       0.11779905
H       -1.20889293      -0.03813486       1.71900657
H       -2.51099610       0.07082530       0.47160938
H       -1.69771072      -1.41234554       0.82434033
H        0.07552511      -0.63318981      -1.67526680
H        2.47790629      -0.40423635       0.39588571
H        1.52826918       0.86623071       1.00012317
H        1.95530507       0.85951659      -0.72052022
14
Frame=11 idx=011485 GeodesicLength=1.2338565637069412 rxn_smarts="[C:1]([C@@:2]([C:3]#[N:4])([C:5](=[O:6])[C:7]([H:12])([H:13])[H:14])[H:11])([H:8])([H:9])[H:10]>>[C:1]([C:2]([C:3]#[N:4])([C:5](=[O:6])[H:11])[C:7]([H:12])([H:13])[H:14])([H:8])([H:9])[H:10]"
C       -1.51575602      -0.34215852       0.71985289
C       -0.44472888       0.06146274      -0.25211816
C       -0.61127448       1.37824607      -0.81009158
N       -0.68086768       2.45595182      -1.20033325
C        0.54871385      -0.99789829      -0.54168951
O        0.49262266      -2.12714648      -0.08753033
C        1.63120348       0.23723766       0.12760983
H       -1.22522909       0.01967288       1.70897111
H       -2.50093634       0.01963113       0.43250697
H       -1.64856199      -1.41320122       0.87537752
H        0.00948989      -0.61558621      -1.68472941
H        2.44880786      -0.40769946       0.44907964
H        1.52148373       0.90219205       0.98434467
H        1.97503302       0.82929582      -0.72125037
14
Frame=12 idx=011485 GeodesicLength=1.3467839664984653 rxn_smarts="[C:1]([C@@:2]([C:3]#[N:4])([C:5](=[O:6])[C:7]([H:12])([H:13])[H:14])[H:11])([H:8])([H:9])[H:10]>>[C:1]([C:2]([C:3]#[N:4])([C:5](=[O:6])[H:11])[C:7]([H:12])([H:13])[H:14])([H:8])([H:9])[H:10]"
C       -1.49667156      -0.34530299       0.72070309
C       -0.42528021       0.05922996      -0.25717736
C       -0.59852982       1.38476915      -0.79799705
N       -0.67911946       2.46492733      -1.17818065
C        0.55175963      -1.01365480      -0.56928929
O        0.48441981      -2.14447567      -0.13290418
C        1.62052809       0.23728780       0.13776559
H       -1.24441257       0.07694680       1.69558694
H       -2.48772373      -0.03451908       0.39535561
H       -1.59624579      -1.41063621       0.92678143
H       -0.05694890      -0.59756649      -1.69132994
H        2.41661563      -0.41213134       0.50204316
H        1.51632193       0.93652968       0.96799912
H        1.99528698       0.79859585      -0.71935645
14
Frame=13 idx=011485 GeodesicLength=1.4600403370557626 rxn_smarts="[C:1]([C@@:2]([C:3]#[N:4])([C:5](=[O:6])[C:7]([H:12])([H:13])[H:14])[H:11])([H:8])([H:9])[H:10]>>[C:1]([C:2]([C:3]#[N:4])([C:5](=[O:6])[H:11])[C:7]([H:12])([H:13])[H:14])([H:8])([H:9])[H:10]"
C       -1.47684188      -0.34798213       0.72199993
C       -0.40586506       0.05739442      -0.26282707
C       -0.58588055       1.39129424      -0.78660420
N       -0.67874011       2.47338120      -1.15731879
C        0.55457172      -1.02836936      -0.59776705
O        0.47503772      -2.16030479      -0.17884295
C        1.60990135       0.23723491       0.14814088
H       -1.26625960       0.13283267       1.67879973
H       -2.47119520      -0.09114333       0.36077476
H       -1.54096868      -1.40446716       0.97787753
H       -0.12349542      -0.57919844      -1.69496223
H        2.38123573      -0.41726546       0.55459691
H        1.51258341       0.96915161       0.95115991
H        2.01591657       0.76744162      -0.71502737
14
Frame=14 idx=011485 GeodesicLength=1.5736995335706196 rxn_smarts="[C:1]([C@@:2]([C:3]#[N:4])([C:5](=[O:6])[C:7]([H:12])([H:13])[H:14])[H:11])([H:8])([H:9])[H:10]>>[C:1]([C:2]([C:3]#[N:4])([C:5](=[O:6])[H:11])[C:7]([H:12])([H:13])[H:14])([H:8])([H:9])[H:10]"
C       -1.45630855      -0.35016285       0.72367904
C       -0.38658693       0.05587666      -0.26924568
C       -0.57337088       1.39776596      -0.77606719
N       -0.67943867       2.48134716      -1.13768233
C        0.55715482      -1.04215037      -0.62691184
O        0.46446063      -2.17463295      -0.22489738
C        1.59926195       0.23719319       0.15862009
H       -1.29035097       0.18634082       1.65871329
H       -2.45133407      -0.14949755       0.32947593
H       -1.48311333      -1.39468016       1.02783287
H       -0.18980982      -0.56055987      -1.69557705
H        2.34256944      -0.42273982       0.60668743
H        1.51005377       1.00011573       0.93382816
H        2.03681262       0.73578407      -0.70845534
14
Frame=15 idx=011485 GeodesicLength=1.687846040203823 rxn_smarts="[C:1]([C@@:2]([C:3]#[N:4])([C:5](=[O:6])[C:7]([H:12])([H:13])[H:14])[H:11])([H:8])([H:9])[H:10]>>[C:1]([C:2]([C:3]#[N:4])([C:5](=[O:6])[H:11])[C:7]([H:12])([H:13])[H:14])([H:8])([H:9])[H:10]"
C       -1.43513455      -0.35182555       0.72565477
C       -0.36753865       0.05459868      -0.27657630
C       -0.56104353       1.40413334      -0.76648710
N       -0.68085813       2.48887410      -1.11911705
C        0.55951468      -1.05512931      -0.65651477
O        0.45270691      -2.18750119      -0.27065001
C        1.58854080       0.23725343       0.16908935
H       -1.31626214       0.23669520       1.63551845
H       -2.42824817      -0.20892485       0.30189122
H       -1.42304425      -1.38133986       1.07601688
H       -0.25554377      -0.54170362      -1.69318684
H        2.30057677      -0.42816985       0.65813377
H        1.50852103       1.02944891       0.91603288
H        2.05781300       0.70359059      -0.69980524
14
Frame=16 idx=011485 GeodesicLength=1.802570275684211 rxn_smarts="[C:1]([C@@:2]([C:3]#[N:4])([C:5](=[O:6])[C:7]([H:12])([H:13])[H:14])[H:11])([H:8])([H:9])[H:10]>>[C:1]([C:2]([C:3]#[N:4])([C:5](=[O:6])[H:11])[C:7]([H:12])([H:13])[H:14])([H:8])([H:9])[H:10]"
C       -1.41339077      -0.35297750       0.72783905
C       -0.34880333       0.05348224      -0.28493558
C       -0.54893904       1.41036842      -0.75792148
N       -0.68265471       2.49603630      -1.10148339
C        0.56165959      -1.06746569      -0.68637532
O        0.43981192      -2.19902080      -0.31574603
C        1.57767448       0.23749933       0.17945574
H       -1.34349533       0.28325443       1.60951082
H       -2.40213679      -0.26879056       0.27829321
H       -1.36116870      -1.36461526       1.12189532
H       -0.32036108      -0.52266158      -1.68787558
H        2.25526436      -0.43315390       0.70874849
H        1.50779368       1.05721511       0.89781036
H        2.07874572       0.67082946      -0.68921561
