12
Frame=0 idx=003866 GeodesicLength=0.0 rxn_smarts="[O:1]([C@@:2]1([H:8])[C:3]([H:9])([H:10])[C:4]([H:11])([H:12])[C:5]1=[O:6])[H:7]>>[O:1]([C:2][C:3]([C:4]([C:5](=[O:6])[H:8])([H:11])[H:12])([H:9])[H:10])[H:7]"
O        1.96432215      -0.63789360       0.77535364
C        0.89838409       0.01046308       0.40046452
C       -0.44148801      -0.44185143       0.86896281
C       -1.19108612       0.29684842      -0.25131486
C        0.04927368       0.56900563      -1.12015121
O        0.27293850       1.46386457      -1.90910382
H        2.74961259      -0.18222395       0.44654057
H        0.49080068      -0.48657383      -1.31595382
H       -0.60127841      -1.51847578       0.96103930
H       -0.60936753       0.01178510       1.85027027
H       -1.65792521       1.22223573       0.08108065
H       -1.92418641      -0.30718399      -0.78718804
12
Frame=1 idx=003866 GeodesicLength=0.06641828326920825 rxn_smarts="[O:1]([C@@:2]1([H:8])[C:3]([H:9])([H:10])[C:4]([H:11])([H:12])[C:5]1=[O:6])[H:7]>>[O:1]([C:2][C:3]([C:4]([C:5](=[O:6])[H:8])([H:11])[H:12])([H:9])[H:10])[H:7]"
O        1.96970887      -0.64134013       0.78697234
C        0.90305999      -0.00573792       0.38755316
C       -0.44048452      -0.44350800       0.86330380
C       -1.19357600       0.30182580      -0.25020486
C        0.03890156       0.57190368      -1.12778963
O        0.25057908       1.46298076      -1.92294456
H        2.75444499      -0.17679429       0.46977968
H        0.50992364      -0.49016185      -1.31220698
H       -0.60704237      -1.51918884       0.95332856
H       -0.59871198       0.01074205       1.84582042
H       -1.65480279       1.22775537       0.08910899
H       -1.93200049      -0.29847663      -0.78272091
12
Frame=2 idx=003866 GeodesicLength=0.1326809718613921 rxn_smarts="[O:1]([C@@:2]1([H:8])[C:3]([H:9])([H:10])[C:4]([H:11])([H:12])[C:5]1=[O:6])[H:7]>>[O:1]([C:2][C:3]([C:4]([C:5](=[O:6])[H:8])([H:11])[H:12])([H:9])[H:10])[H:7]"
O        1.97495476      -0.64415160       0.79877027
C        0.90767602      -0.02245156       0.37469046
C       -0.43947960      -0.44549825       0.85750472
C       -1.19584098       0.30705130      -0.24889718
C        0.02869239       0.57434045      -1.13539382
O        0.22847125       1.46123906      -1.93692476
H        2.75840368      -0.17006624       0.49303289
H        0.52891747      -0.49398280      -1.30886883
H       -0.61291930      -1.52019090       0.94518220
H       -0.58808178       0.00898919       1.84130845
H       -1.65073077       1.23375512       0.09743173
H       -1.94006315      -0.28903377      -0.77783612
12
Frame=3 idx=003866 GeodesicLength=0.19879125374691975 rxn_smarts="[O:1]([C@@:2]1([H:8])[C:3]([H:9])([H:10])[C:4]([H:11])([H:12])[C:5]1=[O:6])[H:7]>>[O:1]([C:2][C:3]([C:4]([C:5](=[O:6])[H:8])([H:11])[H:12])([H:9])[H:10])[H:7]"
O        1.98005484      -0.64621956       0.81086696
C        0.91219696      -0.03962189       0.36198661
C       -0.43850940      -0.44778696       0.85161267
C       -1.19787013       0.31247648      -0.24741637
C        0.01868849       0.57640907      -1.14287888
O        0.20666832       1.45876037      -1.95092632
H        2.76145046      -0.16232383       0.51580704
H        0.54787965      -0.49799573      -1.30584227
H       -0.61891650      -1.52144326       0.93669448
H       -0.57759503       0.00658927       1.83674879
H       -1.64580843       1.24012988       0.10595817
H       -1.94823922      -0.27897382      -0.77261088
12
Frame=4 idx=003866 GeodesicLength=0.26480272032766583 rxn_smarts="[O:1]([C@@:2]1([H:8])[C:3]([H:9])([H:10])[C:4]([H:11])([H:12])[C:5]1=[O:6])[H:7]>>[O:1]([C:2][C:3]([C:4]([C:5](=[O:6])[H:8])([H:11])[H:12])([H:9])[H:10])[H:7]"
O        1.98499960      -0.64761761       0.82313718
C        0.91665291      -0.05731010       0.34940235
C       -0.43756747      -0.45039666       0.84560563
C       -1.19965548       0.31813206      -0.24574166
C        0.00888064       0.57811065      -1.15026071
O        0.18512151       1.45549576      -1.96501683
H        2.76358586      -0.15337471       0.53833325
H        0.56680629      -0.50227898      -1.30314927
H       -0.62507181      -1.52296713       0.92780639
H       -0.56721231       0.00350437       1.83214648
H       -1.63997233       1.24692701       0.11474214
H       -1.95656740      -0.26822468      -0.76700495
12
Frame=5 idx=003866 GeodesicLength=0.33071489983556945 rxn_smarts="[O:1]([C@@:2]1([H:8])[C:3]([H:9])([H:10])[C:4]([H:11])([H:12])[C:5]1=[O:6])[H:7]>>[O:1]([C:2][C:3]([C:4]([C:5](=[O:6])[H:8])([H:11])[H:12])([H:9])[H:10])[H:7]"
O        1.98976962      -0.64837926       0.83546821
C        0.92105086      -0.07558441       0.33690350
C       -0.43664476      -0.45335875       0.83946573
C       -1.20116804       0.32404573      -0.24385170
C       -0.00073109       0.57944353      -1.15755176
O        0.16379718       1.45139696      -1.97925504
H        2.76472422      -0.14302635       0.56079539
H        0.58568763      -0.50690835      -1.30080539
H       -0.63141400      -1.52478290       0.91847373
H       -0.55689225      -0.00032839       1.82750040
H       -1.63311870       1.25418404       0.12382691
H       -1.96506067      -0.25670185      -0.76096997
12
Frame=6 idx=003866 GeodesicLength=0.39658791430877005 rxn_smarts="[O:1]([C@@:2]1([H:8])[C:3]([H:9])([H:10])[C:4]([H:11])([H:12])[C:5]1=[O:6])[H:7]>>[O:1]([C:2][C:3]([C:4]([C:5](=[O:6])[H:8])([H:11])[H:12])([H:9])[H:10])[H:7]"
O        1.99439828      -0.64856845       0.84774683
C        0.92537924      -0.09453397       0.32442784
C       -0.43574245      -0.45670615       0.83316515
C       -1.20236838       0.33024842      -0.24171968
C       -0.01016399       0.58040899      -1.16476843
O        0.14264402       1.44640757      -1.99371008
H        2.76477627      -0.13103631       0.58342559
H        0.60449959      -0.51196921      -1.29883402
H       -0.63799607      -1.52690477       0.90864188
H       -0.54659667      -0.00497452       1.82279923
H       -1.62511399       1.26192598       0.13326151
H       -1.97371585      -0.24429760      -0.75443583
12
Frame=7 idx=003866 GeodesicLength=0.46243315477824576 rxn_smarts="[O:1]([C@@:2]1([H:8])[C:3]([H:9])([H:10])[C:4]([H:11])([H:12])[C:5]1=[O:6])[H:7]>>[O:1]([C:2][C:3]([C:4]([C:5](=[O:6])[H:8])([H:11])[H:12])([H:9])[H:10])[H:7]"
O        1.99888376      -0.64820512       0.85985514
C        0.92965052      -0.11423153       0.31195883
C       -0.43485455      -0.46048431       0.82668824
C       -1.20322405       0.33678344      -0.23932087
C       -0.01940165       0.58099576      -1.17191329
O        0.12164052       1.44044312      -2.00844005
H        2.76360321      -0.11716004       0.60637076
H        0.62325011      -0.51756094      -1.29724630
H       -0.64485222      -1.52937665       0.89824630
H       -0.53629717      -0.01052540       1.81806189
H       -1.61583574       1.27021817       0.14309968
H       -1.98256274      -0.23089649      -0.74736031
12
Frame=8 idx=003866 GeodesicLength=0.5281660531379433 rxn_smarts="[O:1]([C@@:2]1([H:8])[C:3]([H:9])([H:10])[C:4]([H:11])([H:12])[C:5]1=[O:6])[H:7]>>[O:1]([C:2][C:3]([C:4]([C:5](=[O:6])[H:8])([H:11])[H:12])([H:9])[H:10])[H:7]"
O        2.00312096      -0.64725178       0.87173612
C        0.93391594      -0.13474962       0.29944375
C       -0.43394188      -0.46469977       0.82000534
C       -1.20364913       0.34364602      -0.23661931
C       -0.02841298       0.58120672      -1.17900006
O        0.10072202       1.43351082      -2.02345598
H        2.76085365      -0.10132053       0.62971814
H        0.64195987      -0.52372350      -1.29604914
H       -0.65199033      -1.53216202       0.88725134
H       -0.52593468      -0.01700633       1.81322744
H       -1.60513563       1.27901363       0.15337935
H       -1.99150782      -0.21646364      -0.73963699
12
Frame=9 idx=003866 GeodesicLength=0.5939390345822388 rxn_smarts="[O:1]([C@@:2]1([H:8])[C:3]([H:9])([H:10])[C:4]([H:11])([H:12])[C:5]1=[O:6])[H:7]>>[O:1]([C:2][C:3]([C:4]([C:5](=[O:6])[H:8])([H:11])[H:12])([H:9])[H:10])[H:7]"
O        2.00723987      -0.64563119       0.88350509
C        0.93808212      -0.15601664       0.28703289
C       -0.43308887      -0.46935897       0.81316150
C       -1.20366028       0.35083904      -0.23363769
C       -0.03717565       0.58112999      -1.18593021
O        0.07992698       1.42558842      -2.03872159
H        2.75667660      -0.08364560       0.65299393
H        0.66073652      -0.53045387      -1.29512133
H       -0.65945586      -1.53528668       0.87566218
H       -0.51570423      -0.02446168       1.80838541
H       -1.59307864       1.28829628       0.16404152
H       -2.00049857      -0.20099910      -0.73137170
12
Frame=10 idx=003866 GeodesicLength=0.6596855865389829 rxn_smarts="[O:1]([C@@:2]1([H:8])[C:3]([H:9])([H:10])[C:4]([H:11])([H:12])[C:5]1=[O:6])[H:7]>>[O:1]([C:2][C:3]([C:4]([C:5](=[O:6])[H:8])([H:11])[H:12])([H:9])[H:10])[H:7]"
O        2.01109564      -0.64330330       0.89501010
C        0.94221044      -0.17806900       0.27471183
C       -0.43225039      -0.47445337       0.80615020
C       -1.20318167       0.35835424      -0.23035820
C       -0.04565345       0.58077662      -1.19270901
O        0.05918319       1.41669571      -2.05419741
H        2.75074940      -0.06412969       0.67627075
H        0.67963934      -0.53779136      -1.29445882
H       -0.66723392      -1.53871720       0.86348485
H       -0.50555941      -0.03287660       1.80350182
H       -1.57956524       1.29800279       0.17510292
H       -2.00943394      -0.18448884      -0.72250902
12
Frame=11 idx=003866 GeodesicLength=0.7253669982304676 rxn_smarts="[O:1]([C@@:2]1([H:8])[C:3]([H:9])([H:10])[C:4]([H:11])([H:12])[C:5]1=[O:6])[H:7]>>[O:1]([C:2][C:3]([C:4]([C:5](=[O:6])[H:8])([H:11])[H:12])([H:9])[H:10])[H:7]"
O        2.01471811      -0.64031810       0.90631396
C        0.94630140      -0.20087158       0.26251250
C       -0.43143666      -0.47998793       0.79896863
C       -1.20221631       0.36618596      -0.22675116
C       -0.05379735       0.58022320      -1.19928666
O        0.03857534       1.40679776      -2.06996817
H        2.74295057      -0.04275464       0.69935727
H        0.69869935      -0.54569738      -1.29398336
H       -0.67533264      -1.54244187       0.85067856
H       -0.49553207      -0.04230869       1.79859051
H       -1.56462154       1.30816014       0.18659096
H       -2.01830820      -0.16698688      -0.71302304
12
Frame=12 idx=003866 GeodesicLength=0.7911145552299567 rxn_smarts="[O:1]([C@@:2]1([H:8])[C:3]([H:9])([H:10])[C:4]([H:11])([H:12])[C:5]1=[O:6])[H:7]>>[O:1]([C:2][C:3]([C:4]([C:5](=[O:6])[H:8])([H:11])[H:12])([H:9])[H:10])[H:7]"
O        2.01809828      -0.63650429       0.91731897
C        0.95031213      -0.22438564       0.25055193
C       -0.43067832      -0.48593498       0.79164515
C       -1.20068124       0.37432686      -0.22286652
C       -0.06162239       0.57950049      -1.20560973
O        0.01789697       1.39591001      -2.08581837
H        2.73324472      -0.01973960       0.72205434
H        0.71803204      -0.55421920      -1.29361852
H       -0.68377159      -1.54642309       0.83727063
H       -0.48575176      -0.05271568       1.79367905
H       -1.54816574       1.31859388       0.19839135
H       -2.02691310      -0.14840876      -0.70299828
12
Frame=13 idx=003866 GeodesicLength=0.8568666194616275 rxn_smarts="[O:1]([C@@:2]1([H:8])[C:3]([H:9])([H:10])[C:4]([H:11])([H:12])[C:5]1=[O:6])[H:7]>>[O:1]([C:2][C:3]([C:4]([C:5](=[O:6])[H:8])([H:11])[H:12])([H:9])[H:10])[H:7]"
O        2.02118920      -0.63190098       0.92808744
C        0.95426898      -0.24853659       0.23886158
C       -0.42997847      -0.49228072       0.78418441
C       -1.19858749       0.38275201      -0.21866628
C       -0.06906189       0.57869722      -1.21164704
O       -0.00274298       1.38405171      -2.10183587
H        2.72150863       0.00482747       0.74411810
H        0.73770480      -0.56328976      -1.29326924
H       -0.69253387      -1.55063919       0.82324833
H       -0.47626197      -0.06411758       1.78876535
H       -1.53027633       1.32931868       0.21053811
H       -2.03522861      -0.12888228      -0.69238490
12
Frame=14 idx=003866 GeodesicLength=0.9226316206086902 rxn_smarts="[O:1]([C@@:2]1([H:8])[C:3]([H:9])([H:10])[C:4]([H:11])([H:12])[C:5]1=[O:6])[H:7]>>[O:1]([C:2][C:3]([C:4]([C:5](=[O:6])[H:8])([H:11])[H:12])([H:9])[H:10])[H:7]"
O        2.02393096      -0.62642168       0.93864986
C        0.95816225      -0.27319578       0.22757985
C       -0.42936236      -0.49896799       0.77662742
C       -1.19594077       0.39141647      -0.21418363
C       -0.07608269       0.57791327      -1.21732278
O       -0.02334988       1.37128437      -2.11789026
H        2.70781888       0.03059757       0.76512711
H        0.75783053      -0.57284594      -1.29279677
H       -0.70158866      -1.55502890       0.80866081
H       -0.46719343      -0.07643798       1.78388152
H       -1.51108765       1.34020349       0.22296169
H       -2.04313718      -0.10851691      -0.68129482
12
Frame=15 idx=003866 GeodesicLength=0.9884082536888341 rxn_smarts="[O:1]([C@@:2]1([H:8])[C:3]([H:9])([H:10])[C:4]([H:11])([H:12])[C:5]1=[O:6])[H:7]>>[O:1]([C:2][C:3]([C:4]([C:5](=[O:6])[H:8])([H:11])[H:12])([H:9])[H:10])[H:7]"
O        2.02627790      -0.62006864       0.94898630
C        0.96199607      -0.29823143       0.21678906
C       -0.42883886      -0.50593799       0.76899632
C       -1.19275023       0.40028182      -0.20943938
C       -0.08266780       0.57724100      -1.22259196
O       -0.04394541       1.35766034      -2.13389979
H        2.69223579       0.05729370       0.78485094
H        0.77848191      -0.58283055      -1.29208790
H       -0.71089591      -1.55953010       0.79354149
H       -0.45862516      -0.08960038       1.77903743
H       -1.49072335       1.35115043       0.23560492
H       -2.05054494      -0.08742821      -0.66978744
12
Frame=16 idx=003866 GeodesicLength=1.054206970966874 rxn_smarts="[O:1]([C@@:2]1([H:8])[C:3]([H:9])([H:10])[C:4]([H:11])([H:12])[C:5]1=[O:6])[H:7]>>[O:1]([C:2][C:3]([C:4]([C:5](=[O:6])[H:8])([H:11])[H:12])([H:9])[H:10])[H:7]"
O        2.02819450      -0.61285977       0.95908260
C        0.96577375      -0.32351125       0.20655747
C       -0.42841755      -0.51312974       0.76131060
C       -1.18903875       0.40930952      -0.20445693
C       -0.08881145       0.57677014      -1.22742377
O       -0.06454388       1.34324203      -2.14978455
H        2.67487280       0.08464674       0.80309393
H        0.79971618      -0.59319594      -1.29103488
H       -0.72041447      -1.56407959       0.77792458
H       -0.45062753      -0.10352121       1.77424078
H       -1.46932306       1.36206411       0.24841706
H       -2.05738056      -0.06573505      -0.65792690
