14
Frame=0 idx=006629 GeodesicLength=0.0 rxn_smarts="[O:1]=[C:2]([C@@:3]1([H:9])[C@@:4]2([H:10])[C:5]([H:11])([H:12])[C:6]([H:13])([H:14])[N:7]12)[H:8]>>[O-:1][C:2](=[C:3]([N+:7]([C:4](=[C:5]([H:11])[H:12])[H:10])=[C:6]([H:13])[H:14])[H:9])[H:8]"
O        1.60280097       2.40888878       0.80281094
C        1.06687905       1.33784090       0.68997049
C        0.28418495       0.99157832      -0.53361309
C        0.10190587      -0.49237631      -1.00942959
C        0.34050066      -1.65621388      -0.23644007
C       -1.42520875      -0.02609008       0.71829293
N       -0.98340710       0.35863312      -0.48393636
H        1.15997526       0.55084072       1.45378998
H        0.42078635       1.68256489      -1.35765236
H        0.25919911      -0.51191434      -2.08803499
H        1.15544697      -2.30576185      -0.53429628
H       -0.46518210      -2.13813716       0.28654838
H       -1.45298273       0.69614212       1.52386100
H       -2.06489853      -0.89599528       0.76812903
14
Frame=1 idx=006629 GeodesicLength=0.10044967419447523 rxn_smarts="[O:1]=[C:2]([C@@:3]1([H:9])[C@@:4]2([H:10])[C:5]([H:11])([H:12])[C:6]([H:13])([H:14])[N:7]12)[H:8]>>[O-:1][C:2](=[C:3]([N+:7]([C:4](=[C:5]([H:11])[H:12])[H:10])=[C:6]([H:13])[H:14])[H:9])[H:8]"
O        1.45409473       2.48325827       0.87961158
C        1.08205586       1.35533055       0.68233661
C        0.30787122       0.98995657      -0.53632684
C        0.09756100      -0.50496567      -1.01363543
C        0.30216312      -1.66889109      -0.23229920
C       -1.39693008      -0.03246279       0.72301800
N       -0.96518685       0.36836762      -0.48192033
H        1.28939177       0.55138892       1.40559139
H        0.45495041       1.66213310      -1.37389825
H        0.24730876      -0.53080230      -2.09259289
H        1.13476947      -2.31194666      -0.49396903
H       -0.52101512      -2.16990869       0.24424232
H       -1.41014134       0.68101173       1.53672851
H       -2.07689294      -0.87246954       0.75311356
14
Frame=2 idx=006629 GeodesicLength=0.20062869546303463 rxn_smarts="[O:1]=[C:2]([C@@:3]1([H:9])[C@@:4]2([H:10])[C:5]([H:11])([H:12])[C:6]([H:13])([H:14])[N:7]12)[H:8]>>[O-:1][C:2](=[C:3]([N+:7]([C:4](=[C:5]([H:11])[H:12])[H:10])=[C:6]([H:13])[H:14])[H:9])[H:8]"
O        1.31341867       2.52667113       0.95531500
C        1.09364201       1.37523312       0.67589938
C        0.32899612       0.98976204      -0.53813772
C        0.09317501      -0.51636630      -1.01723910
C        0.26691240      -1.67793360      -0.22604092
C       -1.37216557      -0.03970396       0.72572568
N       -0.94842910       0.37739555      -0.48087334
H        1.41757050       0.56679992       1.35036005
H        0.48709450       1.64404315      -1.38759879
H        0.23668573      -0.54792740      -2.09628665
H        1.11316234      -2.31636377      -0.45405477
H       -0.56971182      -2.19616543       0.20775416
H       -1.37217803       0.66452895       1.54755970
H       -2.08817276      -0.84997343       0.73761730
14
Frame=3 idx=006629 GeodesicLength=0.3007059912661529 rxn_smarts="[O:1]=[C:2]([C@@:3]1([H:9])[C@@:4]2([H:10])[C:5]([H:11])([H:12])[C:6]([H:13])([H:14])[N:7]12)[H:8]>>[O-:1][C:2](=[C:3]([N+:7]([C:4](=[C:5]([H:11])[H:12])[H:10])=[C:6]([H:13])[H:14])[H:9])[H:8]"
O        1.18521310       2.54304472       1.03188003
C        1.10184851       1.39539892       0.67053003
C        0.34704500       0.99107774      -0.53924211
C        0.08819745      -0.52670706      -1.02054164
C        0.23382159      -1.68397234      -0.21841826
C       -1.35159967      -0.04754032       0.72617407
N       -0.93369652       0.38578852      -0.48108619
H        1.54357261       0.59520657       1.28617257
H        0.51674359       1.62820623      -1.39916068
H        0.22701861      -0.56363557      -2.09940458
H        1.09303197      -2.31691538      -0.41163494
H       -0.61204125      -2.21820901       0.17749554
H       -1.33945277       0.64691814       1.55618956
H       -2.09970222      -0.82866114       0.72104659
14
Frame=4 idx=006629 GeodesicLength=0.4007154263330054 rxn_smarts="[O:1]=[C:2]([C@@:3]1([H:9])[C@@:4]2([H:10])[C:5]([H:11])([H:12])[C:6]([H:13])([H:14])[N:7]12)[H:8]>>[O-:1][C:2](=[C:3]([N+:7]([C:4](=[C:5]([H:11])[H:12])[H:10])=[C:6]([H:13])[H:14])[H:9])[H:8]"
O        1.07020375       2.53903266       1.10633024
C        1.10734495       1.41527269       0.66724673
C        0.36316994       0.99319737      -0.53891089
C        0.08330501      -0.53649801      -1.02306073
C        0.20289700      -1.68801148      -0.20932312
C       -1.33454617      -0.05607106       0.72498569
N       -0.92015812       0.39338411      -0.48192544
H        1.66489392       0.63975256       1.21783154
H        0.54509861       1.61333255      -1.40839699
H        0.21833588      -0.57823239      -2.10160528
H        1.07174468      -2.31698232      -0.37122741
H       -0.64949844      -2.23762531       0.15127903
H       -1.31161611       0.62832108       1.56308934
H       -2.11117492      -0.80887244       0.70368730
14
Frame=5 idx=006629 GeodesicLength=0.5004601481119055 rxn_smarts="[O:1]=[C:2]([C@@:3]1([H:9])[C@@:4]2([H:10])[C:5]([H:11])([H:12])[C:6]([H:13])([H:14])[N:7]12)[H:8]>>[O-:1][C:2](=[C:3]([N+:7]([C:4](=[C:5]([H:11])[H:12])[H:10])=[C:6]([H:13])[H:14])[H:9])[H:8]"
O        0.96989649       2.51542684       1.18285670
C        1.11108724       1.43322536       0.66519025
C        0.37669864       0.99650001      -0.53769431
C        0.07799255      -0.54573141      -1.02514749
C        0.17336965      -1.69027183      -0.19930754
C       -1.32138901      -0.06490737       0.72187361
N       -0.90833080       0.40032840      -0.48383738
H        1.78117310       0.69767066       1.14105919
H        0.57164534       1.59969173      -1.41587959
H        0.21101301      -0.59209304      -2.10311293
H        1.05169745      -2.31397907      -0.32872316
H       -0.68242633      -2.25495329       0.13002578
H       -1.28914235       0.60952952       1.56768488
H       -2.12328496      -0.79043651       0.68501200
14
Frame=6 idx=006629 GeodesicLength=0.6003154442464468 rxn_smarts="[O:1]=[C:2]([C@@:3]1([H:9])[C@@:4]2([H:10])[C:5]([H:11])([H:12])[C:6]([H:13])([H:14])[N:7]12)[H:8]>>[O-:1][C:2](=[C:3]([N+:7]([C:4](=[C:5]([H:11])[H:12])[H:10])=[C:6]([H:13])[H:14])[H:9])[H:8]"
O        0.88236387       2.47769127       1.25730705
C        1.11413144       1.44980618       0.66488189
C        0.38969821       0.99979135      -0.53520850
C        0.07275331      -0.55501034      -1.02674778
C        0.14477932      -1.69195148      -0.18893110
C       -1.31058026      -0.07418057       0.71774782
N       -0.89679077       0.40669556      -0.48588140
H        1.88912319       0.77266273       1.06293803
H        0.59826267       1.58568981      -1.42160783
H        0.20371283      -0.60547163      -2.10416138
H        1.03036573      -2.31131228      -0.28834471
H       -0.71272392      -2.27126093       0.11089194
H       -1.26973856       0.58980126       1.57140405
H       -2.13535707      -0.77295094       0.66571193
14
Frame=7 idx=006629 GeodesicLength=0.6997998807271477 rxn_smarts="[O:1]=[C:2]([C@@:3]1([H:9])[C@@:4]2([H:10])[C:5]([H:11])([H:12])[C:6]([H:13])([H:14])[N:7]12)[H:8]>>[O-:1][C:2](=[C:3]([N+:7]([C:4](=[C:5]([H:11])[H:12])[H:10])=[C:6]([H:13])[H:14])[H:9])[H:8]"
O        0.80983259       2.42405061       1.33391702
C        1.11709596       1.46384705       0.66555866
C        0.40105394       1.00383320      -0.53189848
C        0.06731027      -0.56412279      -1.02793711
C        0.11690890      -1.69275148      -0.17813217
C       -1.30274886      -0.08355484       0.71214035
N       -0.88621404       0.41253604      -0.48864800
H        1.98808579       0.86191400       0.97832331
H        0.62398289       1.57200159      -1.42596528
H        0.19796099      -0.61857398      -2.10455663
H        1.00961919      -2.30650634      -0.24633208
H       -0.74006963      -2.28659176       0.09536860
H       -1.25482415       0.57033622       1.57313600
H       -2.14799385      -0.75641753       0.64502581
14
Frame=8 idx=006629 GeodesicLength=0.7993024144093601 rxn_smarts="[O:1]=[C:2]([C@@:3]1([H:9])[C@@:4]2([H:10])[C:5]([H:11])([H:12])[C:6]([H:13])([H:14])[N:7]12)[H:8]>>[O-:1][C:2](=[C:3]([N+:7]([C:4](=[C:5]([H:11])[H:12])[H:10])=[C:6]([H:13])[H:14])[H:9])[H:8]"
O        0.75002789       2.35924727       1.40790233
C        1.12071337       1.47636961       0.66747126
C        0.41304515       1.00724805      -0.52765596
C        0.06190541      -0.57366548      -1.02899661
C        0.08906869      -1.69386581      -0.16788499
C       -1.29608332      -0.09315976       0.70598781
N       -0.87509467       0.41796312      -0.49120721
H        2.07474921       0.96843008       0.89505633
H        0.65062124       1.55711344      -1.42907540
H        0.19164383      -0.63159106      -2.10493069
H        0.98739791      -2.30243913      -0.20605731
H       -0.76632592      -2.30163771       0.08084000
H       -1.24137641       0.55009411       1.57450561
H       -2.16029236      -0.74010673       0.62404484
14
Frame=9 idx=006629 GeodesicLength=0.8984710557334111 rxn_smarts="[O:1]=[C:2]([C@@:3]1([H:9])[C@@:4]2([H:10])[C:5]([H:11])([H:12])[C:6]([H:13])([H:14])[N:7]12)[H:8]>>[O-:1][C:2](=[C:3]([N+:7]([C:4](=[C:5]([H:11])[H:12])[H:10])=[C:6]([H:13])[H:14])[H:9])[H:8]"
O        0.70449009       2.28191816       1.48126434
C        1.12547687       1.48689145       0.67018969
C        0.42523336       1.01039021      -0.52272495
C        0.05647270      -0.58357904      -1.02992146
C        0.06122023      -1.69510029      -0.15799113
C       -1.29080702      -0.10270829       0.69906600
N       -0.86365465       0.42300807      -0.49387788
H        2.14759974       1.09093177       0.81097703
H        0.67776549       1.54128784      -1.43117157
H        0.18593832      -0.64470309      -2.10510580
H        0.96432410      -2.29818619      -0.16599273
H       -0.79140394      -2.31633610       0.06812742
H       -1.23016264       0.53002984       1.57482449
H       -2.17249265      -0.72384435       0.60233656
14
Frame=10 idx=006629 GeodesicLength=0.9971339935474465 rxn_smarts="[O:1]=[C:2]([C@@:3]1([H:9])[C@@:4]2([H:10])[C:5]([H:11])([H:12])[C:6]([H:13])([H:14])[N:7]12)[H:8]>>[O-:1][C:2](=[C:3]([N+:7]([C:4](=[C:5]([H:11])[H:12])[H:10])=[C:6]([H:13])[H:14])[H:9])[H:8]"
O        0.67424972       2.19136389       1.55393405
C        1.13189520       1.49544308       0.67334047
C        0.43788408       1.01319648      -0.51737032
C        0.05099450      -0.59394292      -1.03080683
C        0.03325229      -1.69647018      -0.14845831
C       -1.28661094      -0.11193085       0.69141852
N       -0.85166642       0.42775352      -0.49671348
H        2.20387521       1.22918410       0.72701960
H        0.70556648       1.52434092      -1.43257118
H        0.18111345      -0.65810707      -2.10512722
H        0.94036723      -2.29361177      -0.12581628
H       -0.81558751      -2.33068674       0.05728698
H       -1.22087958       0.51072104       1.57394494
H       -2.18445371      -0.70725351       0.57991904
14
Frame=11 idx=006629 GeodesicLength=1.0953347669779159 rxn_smarts="[O:1]=[C:2]([C@@:3]1([H:9])[C@@:4]2([H:10])[C:5]([H:11])([H:12])[C:6]([H:13])([H:14])[N:7]12)[H:8]>>[O-:1][C:2](=[C:3]([N+:7]([C:4](=[C:5]([H:11])[H:12])[H:10])=[C:6]([H:13])[H:14])[H:9])[H:8]"
O        0.65654538       2.09297246       1.62022592
C        1.14018997       1.50322396       0.67697181
C        0.45357942       1.01394226      -0.51171761
C        0.04536484      -0.60539499      -1.03221359
C        0.00442503      -1.69902416      -0.14039380
C       -1.28149225      -0.12085001       0.68398494
N       -0.83753217       0.43228066      -0.49888003
H        2.24006517       1.38494679       0.65160579
H        0.73618484       1.50458753      -1.43349082
H        0.17420041      -0.67199128      -2.10595876
H        0.91379570      -2.29141228      -0.08873485
H       -0.84056773      -2.34493006       0.04660566
H       -1.20978715       0.49097854       1.57351707
H       -2.19497146      -0.68932941       0.55847826
14
Frame=12 idx=006629 GeodesicLength=1.192924120868637 rxn_smarts="[O:1]=[C:2]([C@@:3]1([H:9])[C@@:4]2([H:10])[C:5]([H:11])([H:12])[C:6]([H:13])([H:14])[N:7]12)[H:8]>>[O-:1][C:2](=[C:3]([N+:7]([C:4](=[C:5]([H:11])[H:12])[H:10])=[C:6]([H:13])[H:14])[H:9])[H:8]"
O        0.65767592       1.97696342       1.68605429
C        1.15078436       1.50993551       0.67990386
C        0.47028453       1.01425804      -0.50634024
C        0.03972360      -0.61745999      -1.03366338
C       -0.02467131      -1.70140036      -0.13223290
C       -1.27700640      -0.12853887       0.67570780
N       -0.82237482       0.43669469      -0.50162288
H        2.25238735       1.55643783       0.57816604
H        0.76813312       1.48308082      -1.43453277
H        0.16904403      -0.68676815      -2.10657392
H        0.88625582      -2.28850161      -0.05049678
H       -0.86522088      -2.35843762       0.03809409
H       -1.19998610       0.47366703       1.57127016
H       -2.20502921      -0.66993073       0.53626662
14
Frame=13 idx=006629 GeodesicLength=1.2903100350991423 rxn_smarts="[O:1]=[C:2]([C@@:3]1([H:9])[C@@:4]2([H:10])[C:5]([H:11])([H:12])[C:6]([H:13])([H:14])[N:7]12)[H:8]>>[O-:1][C:2](=[C:3]([N+:7]([C:4](=[C:5]([H:11])[H:12])[H:10])=[C:6]([H:13])[H:14])[H:9])[H:8]"
O        0.67488983       1.84873339       1.74390059
C        1.16381451       1.51673019       0.68239688
C        0.49190258       1.01144536      -0.50149961
C        0.03384576      -0.63117216      -1.03588674
C       -0.05506953      -1.70484190      -0.12506526
C       -1.27067669      -0.13466684       0.66754148
N       -0.80381852       0.44115319      -0.50414246
H        2.23452082       1.74880236       0.51722444
H        0.80543700       1.45696744      -1.43590152
H        0.16115744      -0.70306341      -2.10826205
H        0.85523533      -2.28893981      -0.01571448
H       -0.89182072      -2.37106588       0.03081089
H       -1.18635367       0.45728301       1.56918359
H       -2.21306414      -0.64736495       0.51541423
14
Frame=14 idx=006629 GeodesicLength=1.3865197753296574 rxn_smarts="[O:1]=[C:2]([C@@:3]1([H:9])[C@@:4]2([H:10])[C:5]([H:11])([H:12])[C:6]([H:13])([H:14])[N:7]12)[H:8]>>[O-:1][C:2](=[C:3]([N+:7]([C:4](=[C:5]([H:11])[H:12])[H:10])=[C:6]([H:13])[H:14])[H:9])[H:8]"
O        0.71578032       1.69978335       1.79438020
C        1.17726752       1.52691356       0.68272951
C        0.51735000       1.00665143      -0.49846708
C        0.02783696      -0.64613778      -1.03881498
C       -0.08604051      -1.70789273      -0.11760983
C       -1.26288526      -0.13779520       0.65894591
N       -0.78245694       0.44587522      -0.50772968
H        2.17731407       1.95537595       0.46990236
H        0.84800728       1.42649882      -1.43875106
H        0.15327237      -0.72135584      -2.11058161
H        0.82219366      -2.29024761       0.01816963
H       -0.91940399      -2.38176542       0.02664909
H       -1.16906515       0.44477803       1.56573902
H       -2.21917034      -0.62068179       0.49543851
14
Frame=15 idx=006629 GeodesicLength=1.4807085733867487 rxn_smarts="[O:1]=[C:2]([C@@:3]1([H:9])[C@@:4]2([H:10])[C:5]([H:11])([H:12])[C:6]([H:13])([H:14])[N:7]12)[H:8]>>[O-:1][C:2](=[C:3]([N+:7]([C:4](=[C:5]([H:11])[H:12])[H:10])=[C:6]([H:13])[H:14])[H:9])[H:8]"
O        0.77939825       1.53828707       1.82808037
C        1.18820930       1.54227663       0.68157168
C        0.54862966       0.99861398      -0.49780159
C        0.02149807      -0.66256476      -1.04313208
C       -0.11806716      -1.71075796      -0.11071211
C       -1.25150994      -0.13717284       0.65072016
N       -0.75708331       0.45097544      -0.51246161
H        2.07257951       2.16828921       0.44516339
H        0.89950230       1.39024518      -1.44274141
H        0.14393808      -0.74153459      -2.11436215
H        0.78628105      -2.29370546       0.04906131
H       -0.94919357      -2.38984039       0.02570673
H       -1.14237976       0.43514212       1.56243066
H       -2.22180248      -0.58825363       0.47847665
14
Frame=16 idx=006629 GeodesicLength=1.572389941171288 rxn_smarts="[O:1]=[C:2]([C@@:3]1([H:9])[C@@:4]2([H:10])[C:5]([H:11])([H:12])[C:6]([H:13])([H:14])[N:7]12)[H:8]>>[O-:1][C:2](=[C:3]([N+:7]([C:4](=[C:5]([H:11])[H:12])[H:10])=[C:6]([H:13])[H:14])[H:9])[H:8]"
O        0.85708068       1.38597423       1.83807232
C        1.19540285       1.56158509       0.68050890
C        0.58571326       0.98762920      -0.49876322
C        0.01505507      -0.67965190      -1.04904089
C       -0.15142998      -1.71361358      -0.10595682
C       -1.23446170      -0.13323887       0.64430353
N       -0.72749901       0.45630039      -0.51769048
H        1.92013602       2.36737774       0.44482182
H        0.96133176       1.34863740      -1.44596015
H        0.13445237      -0.76178847      -2.11975142
H        0.74712066      -2.29983918       0.07537656
H       -0.98216342      -2.39498114       0.02541538
H       -1.10152385       0.42545624       1.56150951
H       -2.21921473      -0.54984713       0.46715496
