14
Frame=0 idx=004600 GeodesicLength=0.0 rxn_smarts="[C:1]([C@@:2]1([H:9])[C:3]([H:10])([H:11])[N:4]1[C:5]([H:12])([H:13])[H:14])([H:6])([H:7])[H:8]>>[C:1](/[C:2](=[N:4]\[C:3]([C:5]([H:12])([H:13])[H:14])([H:10])[H:11])[H:9])([H:6])([H:7])[H:8]"
C       -1.96322470       0.38754045      -0.43035009
C       -0.59431829       0.65067410       0.16409123
C        0.23383054      -0.53089774       0.49675187
N        0.49122088       0.62546653      -0.72528042
C        1.95570106      -0.33125222      -0.07994993
H       -2.69685951       0.15695127       0.34639576
H       -2.31204315       1.26989378      -0.97037720
H       -1.91268537      -0.44191697      -1.13744548
H       -0.61020107       1.43367962       0.93850448
H       -0.12518932      -1.48751683       0.14158537
H        0.59316291      -0.51179141       1.52201405
H        2.45093989       0.38901670       0.56300341
H        2.17855826      -1.34546287       0.27017447
H        2.31110785      -0.26438441      -1.09911748
14
Frame=1 idx=004600 GeodesicLength=0.08684852175449025 rxn_smarts="[C:1]([C@@:2]1([H:9])[C:3]([H:10])([H:11])[N:4]1[C:5]([H:12])([H:13])[H:14])([H:6])([H:7])[H:8]>>[C:1](/[C:2](=[N:4]\[C:3]([C:5]([H:12])([H:13])[H:14])([H:10])[H:11])[H:9])([H:6])([H:7])[H:8]"
C       -1.97609785       0.39678476      -0.41680105
C       -0.59452280       0.65307079       0.14732234
C        0.23480881      -0.55395318       0.47172018
N        0.48694354       0.58768242      -0.73794940
C        1.96713866      -0.32332618      -0.07039817
H       -2.70077905       0.20535355       0.37874779
H       -2.31932281       1.26714466      -0.97949167
H       -1.95468353      -0.45670015      -1.09587632
H       -0.58840563       1.45443820       0.90220924
H       -0.11376014      -1.51110815       0.10631015
H        0.56323527      -0.54938129       1.50740699
H        2.42974692       0.40097257       0.59320142
H        2.21180952      -1.33540506       0.27080528
H        2.35388908      -0.23557296      -1.07720679
14
Frame=2 idx=004600 GeodesicLength=0.17381098379596016 rxn_smarts="[C:1]([C@@:2]1([H:9])[C:3]([H:10])([H:11])[N:4]1[C:5]([H:12])([H:13])[H:14])([H:6])([H:7])[H:8]>>[C:1](/[C:2](=[N:4]\[C:3]([C:5]([H:12])([H:13])[H:14])([H:10])[H:11])[H:9])([H:6])([H:7])[H:8]"
C       -1.98781584       0.40599713      -0.40330803
C       -0.59432751       0.65573434       0.13048151
C        0.23587997      -0.57750409       0.44708256
N        0.48289023       0.55091771      -0.74947225
C        1.97733609      -0.31555245      -0.06097847
H       -2.70237696       0.25454034       0.40990353
H       -2.32672416       1.26277301      -0.98936111
H       -1.99488405      -0.47087566      -1.05208851
H       -0.56699903       1.47518516       0.86480230
H       -0.10200676      -1.53515676       0.07139128
H        0.53357179      -0.58703381       1.49209634
H        2.40749558       0.41089804       0.62314098
H        2.24444645      -1.32509626       0.27086970
H        2.39351420      -0.20482670      -1.05455983
14
Frame=3 idx=004600 GeodesicLength=0.2595773052876515 rxn_smarts="[C:1]([C@@:2]1([H:9])[C:3]([H:10])([H:11])[N:4]1[C:5]([H:12])([H:13])[H:14])([H:6])([H:7])[H:8]>>[C:1](/[C:2](=[N:4]\[C:3]([C:5]([H:12])([H:13])[H:14])([H:10])[H:11])[H:9])([H:6])([H:7])[H:8]"
C       -1.99798446       0.41491101      -0.38973188
C       -0.59351829       0.65846938       0.11355870
C        0.23678933      -0.60119957       0.42268000
N        0.47934297       0.51528759      -0.75938319
C        1.98603219      -0.30786043      -0.05169317
H       -2.70143604       0.30371667       0.43939932
H       -2.33365622       1.25642295      -0.99904990
H       -2.03271965      -0.48400482      -1.00597547
H       -0.54579974       1.49535287       0.82595233
H       -0.09046437      -1.55894034       0.03687728
H        0.50375899      -0.62429239       1.47548764
H        2.38429023       0.41872002       0.65225162
H        2.27571836      -1.31396273       0.27047179
H        2.42964671      -0.17262021      -1.03084507
14
Frame=4 idx=004600 GeodesicLength=0.3455570136999539 rxn_smarts="[C:1]([C@@:2]1([H:9])[C:3]([H:10])([H:11])[N:4]1[C:5]([H:12])([H:13])[H:14])([H:6])([H:7])[H:8]>>[C:1](/[C:2](=[N:4]\[C:3]([C:5]([H:12])([H:13])[H:14])([H:10])[H:11])[H:9])([H:6])([H:7])[H:8]"
C       -2.00716211       0.42379970      -0.37615963
C       -0.59237940       0.66154254       0.09646532
C        0.23785062      -0.62533136       0.39853175
N        0.47602173       0.48076216      -0.76832183
C        1.99368625      -0.30041222      -0.04246423
H       -2.69833199       0.35342547       0.46764604
H       -2.34111191       1.24851429      -1.00902455
H       -2.06871588      -0.49625132      -0.95777223
H       -0.52509738       1.51567155       0.78582649
H       -0.07848286      -1.58311395       0.00246926
H        0.47410862      -0.66155069       1.45821940
H        2.36025591       0.42447923       0.68129552
H        2.30650822      -1.30260915       0.26965361
H        2.46285019      -0.13892627      -1.00636491
14
Frame=5 idx=004600 GeodesicLength=0.43141223748941004 rxn_smarts="[C:1]([C@@:2]1([H:9])[C:3]([H:10])([H:11])[N:4]1[C:5]([H:12])([H:13])[H:14])([H:6])([H:7])[H:8]>>[C:1](/[C:2](=[N:4]\[C:3]([C:5]([H:12])([H:13])[H:14])([H:10])[H:11])[H:9])([H:6])([H:7])[H:8]"
C       -2.01527171       0.43259413      -0.36251038
C       -0.59086442       0.66492290       0.07915874
C        0.23900801      -0.64979301       0.37455023
N        0.47299987       0.44736658      -0.77623501
C        2.00026554      -0.29321143      -0.03326070
H       -2.69305427       0.40335212       0.49453052
H       -2.34901137       1.23896786      -1.01887124
H       -2.10266414      -0.50740956      -0.90747621
H       -0.50484733       1.53604831       0.74422158
H       -0.06619385      -1.60745986      -0.03189928
H        0.44444438      -0.69869226       1.44012762
H        2.33544604       0.42817246       0.71016143
H        2.33663498      -1.29088745       0.26848334
H        2.49310828      -0.10397077      -0.98098065
14
Frame=6 idx=004600 GeodesicLength=0.5169048662572658 rxn_smarts="[C:1]([C@@:2]1([H:9])[C:3]([H:10])([H:11])[N:4]1[C:5]([H:12])([H:13])[H:14])([H:6])([H:7])[H:8]>>[C:1](/[C:2](=[N:4]\[C:3]([C:5]([H:12])([H:13])[H:14])([H:10])[H:11])[H:9])([H:6])([H:7])[H:8]"
C       -2.02226626       0.44125552      -0.34855651
C       -0.58884098       0.66843046       0.06143780
C        0.24015260      -0.67457617       0.35042057
N        0.47033988       0.41484308      -0.78324792
C        2.00575888      -0.28611721      -0.02393809
H       -2.68547330       0.45395289       0.52015628
H       -2.35715054       1.22727497      -1.02849275
H       -2.13482285      -0.51747158      -0.85427997
H       -0.48464316       1.55623094       0.70057788
H       -0.05371998      -1.63172901      -0.06661833
H        0.41436953      -0.73589777       1.42072408
H        2.30965125       0.42961423       0.73912132
H        2.36596020      -1.27846466       0.26681113
H        2.52068473      -0.06734569      -0.95411550
14
Frame=7 idx=004600 GeodesicLength=0.602412570151561 rxn_smarts="[C:1]([C@@:2]1([H:9])[C:3]([H:10])([H:11])[N:4]1[C:5]([H:12])([H:13])[H:14])([H:6])([H:7])[H:8]>>[C:1](/[C:2](=[N:4]\[C:3]([C:5]([H:12])([H:13])[H:14])([H:10])[H:11])[H:9])([H:6])([H:7])[H:8]"
C       -2.02829525       0.44986177      -0.33438423
C       -0.58648432       0.67226559       0.04333872
C        0.24145656      -0.69971655       0.32623564
N        0.46794749       0.38338842      -0.78947337
C        2.01030037      -0.27930954      -0.01451185
H       -2.67579760       0.50476037       0.54447145
H       -2.36605561       1.21397869      -1.03750931
H       -2.16481782      -0.52621281      -0.79887463
H       -0.46493276       1.57656105       0.65505955
H       -0.04078333      -1.65613354      -0.10168293
H        0.38411858      -0.77311965       1.40033947
H        2.28304182       0.42904091       0.76802704
H        2.39478835      -1.26558217       0.26506919
H        2.54551353      -0.02978254      -0.92610473
14
Frame=8 idx=004600 GeodesicLength=0.6878293321351664 rxn_smarts="[C:1]([C@@:2]1([H:9])[C:3]([H:10])([H:11])[N:4]1[C:5]([H:12])([H:13])[H:14])([H:6])([H:7])[H:8]>>[C:1](/[C:2](=[N:4]\[C:3]([C:5]([H:12])([H:13])[H:14])([H:10])[H:11])[H:9])([H:6])([H:7])[H:8]"
C       -2.03333069       0.45840555      -0.31985088
C       -0.58373502       0.67636140       0.02472844
C        0.24288198      -0.72521816       0.30181845
N        0.46584731       0.35287543      -0.79502677
C        2.01389019      -0.27273241      -0.00489026
H       -2.66395593       0.55591761       0.56753880
H       -2.37568751       1.19886680      -1.04573582
H       -2.19267139      -0.53355432      -0.74090279
H       -0.44553657       1.59694480       0.60728357
H       -0.02743379      -1.68056234      -0.13732850
H        0.35347379      -0.81047214       1.37871718
H        2.25549074       0.42639150       0.79700275
H        2.42305322      -1.25206993       0.26327893
H        2.56771367       0.00884621      -0.89663311
14
Frame=9 idx=004600 GeodesicLength=0.7732044208977232 rxn_smarts="[C:1]([C@@:2]1([H:9])[C:3]([H:10])([H:11])[N:4]1[C:5]([H:12])([H:13])[H:14])([H:6])([H:7])[H:8]>>[C:1](/[C:2](=[N:4]\[C:3]([C:5]([H:12])([H:13])[H:14])([H:10])[H:11])[H:9])([H:6])([H:7])[H:8]"
C       -2.03739068       0.46691960      -0.30486461
C       -0.58060716       0.68071262       0.00551454
C        0.24445674      -0.75109759       0.27706156
N        0.46402927       0.32324183      -0.80001265
C        2.01656316      -0.26638747       0.00499790
H       -2.64996728       0.60745859       0.58937608
H       -2.38615680       1.18190280      -1.05293993
H       -2.21828579      -0.53935533      -0.68024574
H       -0.42646550       1.61736592       0.55698040
H       -0.01361385      -1.70498345      -0.17372400
H        0.32236381      -0.84803809       1.35572017
H        2.22692882       0.42165934       0.82609874
H        2.45080638      -1.23785339       0.26156493
H        2.58733890       0.04845462      -0.86552740
14
Frame=10 idx=004600 GeodesicLength=0.8585233521129166 rxn_smarts="[C:1]([C@@:2]1([H:9])[C:3]([H:10])([H:11])[N:4]1[C:5]([H:12])([H:13])[H:14])([H:6])([H:7])[H:8]>>[C:1](/[C:2](=[N:4]\[C:3]([C:5]([H:12])([H:13])[H:14])([H:10])[H:11])[H:9])([H:6])([H:7])[H:8]"
C       -2.04044888       0.47541685      -0.28935424
C       -0.57710412       0.68532326      -0.01441826
C        0.24620493      -0.77735190       0.25188163
N        0.46246917       0.29443651      -0.80453361
C        2.01831296      -0.26029213       0.01521853
H       -2.63374480       0.65921529       0.61003282
H       -2.39759718       1.16319374      -1.05873450
H       -2.24143470      -0.54344287      -0.61698704
H       -0.40775346       1.63779523       0.50385079
H        0.00071415      -1.72935523      -0.21098467
H        0.29073413      -0.88585386       1.33123270
H        2.19726490       0.41490775       0.85527128
H        2.47802537      -1.22284640       0.26018726
H        2.60435754       0.08885374      -0.83266267
14
Frame=11 idx=004600 GeodesicLength=0.9438494358856759 rxn_smarts="[C:1]([C@@:2]1([H:9])[C:3]([H:10])([H:11])[N:4]1[C:5]([H:12])([H:13])[H:14])([H:6])([H:7])[H:8]>>[C:1](/[C:2](=[N:4]\[C:3]([C:5]([H:12])([H:13])[H:14])([H:10])[H:11])[H:9])([H:6])([H:7])[H:8]"
C       -2.04250605       0.48395016      -0.27321346
C       -0.57325294       0.69017761      -0.03517620
C        0.24816176      -0.80401050       0.22617404
N        0.46115601       0.26638433      -0.80868113
C        2.01915655      -0.25444136       0.02584670
H       -2.61532239       0.71122453       0.62953093
H       -2.41009364       1.14274972      -1.06283458
H       -2.26196175      -0.54565016      -0.55105071
H       -0.38945752       1.65814768       0.44760154
H        0.01562569      -1.75366178      -0.24926387
H        0.25855355      -0.92400964       1.30508251
H        2.16639957       0.40617166       0.88451474
H        2.50475189      -1.20695331       0.25934026
H        2.61878926       0.12992107      -0.79787077
14
Frame=12 idx=004600 GeodesicLength=1.029158582968363 rxn_smarts="[C:1]([C@@:2]1([H:9])[C:3]([H:10])([H:11])[N:4]1[C:5]([H:12])([H:13])[H:14])([H:6])([H:7])[H:8]>>[C:1](/[C:2](=[N:4]\[C:3]([C:5]([H:12])([H:13])[H:14])([H:10])[H:11])[H:9])([H:6])([H:7])[H:8]"
C       -2.04349335       0.49255000      -0.25634055
C       -0.56905029       0.69524509      -0.05690872
C        0.25034004      -0.83107934       0.19983756
N        0.46007801       0.23900286      -0.81255134
C        2.01905127      -0.24882080       0.03696114
H       -2.59458583       0.76337252       0.64793485
H       -2.42370101       1.12065920      -1.06482104
H       -2.27961674      -0.54579172      -0.48246212
H       -0.37160919       1.67827785       0.38786452
H        0.03116388      -1.77785006      -0.28868236
H        0.22576200      -0.96256754       1.27707796
H        2.13417041       0.39552542       0.91376539
H        2.53091482      -1.19003642       0.25931654
H        2.63057598       0.17151294      -0.76099183
14
Frame=13 idx=004600 GeodesicLength=1.11439997832582 rxn_smarts="[C:1]([C@@:2]1([H:9])[C:3]([H:10])([H:11])[N:4]1[C:5]([H:12])([H:13])[H:14])([H:6])([H:7])[H:8]>>[C:1](/[C:2](=[N:4]\[C:3]([C:5]([H:12])([H:13])[H:14])([H:10])[H:11])[H:9])([H:6])([H:7])[H:8]"
C       -2.04322164       0.50125003      -0.23859047
C       -0.56444095       0.70045891      -0.07980415
C        0.25272164      -0.85858671       0.17273058
N        0.45922768       0.21220345      -0.81624468
C        2.01784333      -0.24335847       0.04866437
H       -2.57125024       0.81569585       0.66528581
H       -2.43831938       1.09684526      -1.06431897
H       -2.29409650      -0.54370254      -0.41096685
H       -0.35415797       1.69797261       0.32412296
H        0.04736319      -1.80185440      -0.32940183
H        0.19223644      -1.00168496       1.24692645
H        2.10024439       0.38294792       0.94303119
H        2.55631706      -1.17190578       0.26031040
H        2.63953294       0.21371884      -0.72174482
14
Frame=14 idx=004600 GeodesicLength=1.1998120282053333 rxn_smarts="[C:1]([C@@:2]1([H:9])[C:3]([H:10])([H:11])[N:4]1[C:5]([H:12])([H:13])[H:14])([H:6])([H:7])[H:8]>>[C:1](/[C:2](=[N:4]\[C:3]([C:5]([H:12])([H:13])[H:14])([H:10])[H:11])[H:9])([H:6])([H:7])[H:8]"
C       -2.04181656       0.51017434      -0.21990636
C       -0.55957975       0.70586014      -0.10402571
C        0.25544058      -0.88659353       0.14477784
N        0.45854007       0.18591142      -0.81989677
C        2.01564790      -0.23813789       0.06103967
H       -2.54544460       0.86804650       0.68176650
H       -2.45434203       1.07178703      -1.06084541
H       -2.30514275      -0.53919969      -0.33703353
H       -0.33745400       1.71714348       0.25621109
H        0.06445006      -1.82579205      -0.37157070
H        0.15819483      -1.04138325       1.21455619
H        2.06465378       0.36875500       0.97215404
H        2.58113573      -1.15255754       0.26294777
H        2.64571673       0.25598603      -0.68017463
14
Frame=15 idx=004600 GeodesicLength=1.2852373686029965 rxn_smarts="[C:1]([C@@:2]1([H:9])[C:3]([H:10])([H:11])[N:4]1[C:5]([H:12])([H:13])[H:14])([H:6])([H:7])[H:8]>>[C:1](/[C:2](=[N:4]\[C:3]([C:5]([H:12])([H:13])[H:14])([H:10])[H:11])[H:9])([H:6])([H:7])[H:8]"
C       -2.03894334       0.51931625      -0.20004009
C       -0.55438989       0.71130682      -0.12981233
C        0.25844556      -0.91510388       0.11573515
N        0.45805845       0.16010802      -0.82357771
C        2.01218308      -0.23307343       0.07419125
H       -2.51675324       0.92065708       0.69734954
H       -2.47142169       1.04526126      -1.05392799
H       -2.31225815      -0.53212756      -0.26011685
H       -0.32154204       1.73536654       0.18352662
H        0.08249465      -1.84946303      -0.41548394
H        0.12345846      -1.08189841       1.17948623
H        2.02684837       0.35294017       1.00104321
H        2.60494989      -1.13172825       0.26757081
H        2.64886989       0.29843845      -0.63594391
14
Frame=16 idx=004600 GeodesicLength=1.3708671113139546 rxn_smarts="[C:1]([C@@:2]1([H:9])[C:3]([H:10])([H:11])[N:4]1[C:5]([H:12])([H:13])[H:14])([H:6])([H:7])[H:8]>>[C:1](/[C:2](=[N:4]\[C:3]([C:5]([H:12])([H:13])[H:14])([H:10])[H:11])[H:9])([H:6])([H:7])[H:8]"
C       -2.03455786       0.52883472      -0.17891973
C       -0.54898525       0.71678130      -0.15740861
C        0.26183421      -0.94416963       0.08552060
N        0.45772161       0.13466797      -0.82741567
C        2.00743097      -0.22816480       0.08824731
H       -2.48505370       0.97348543       0.71215477
H       -2.48978785       1.01753900      -1.04308177
H       -2.31510977      -0.52225257      -0.18040690
H       -0.30669103       1.75240491       0.10566608
H        0.10169232      -1.87294024      -0.46124421
H        0.08819727      -1.12330872       1.14154150
H        1.98669753       0.33559779       1.02970949
H        2.62774883      -1.10937957       0.27454593
H        2.64886271       0.34090440      -0.58890880
