11
Frame=0 idx=008646 GeodesicLength=0.0 rxn_smarts="[C:1]([n:2]1[n:3][c:4]([H:11])[o:5][c:6]1=[O:7])([H:8])([H:9])[H:10]>>[C-:6]#[O+:7].[C:1](/[N:2]=[N:3]/[C:4](=[O:5])[H:11])([H:8])([H:9])[H:10]"
C       -1.59795388      -0.36366188      -0.10065185
N       -0.22441157       0.08892401      -0.32233444
N        0.59611887      -0.86902185      -0.49897820
C        1.89830366      -0.45745590      -0.35506444
O        2.19429669       0.63298538       0.10780460
C        0.24328520       1.24758103       0.95444109
O        0.06198897       2.37170955       0.98323292
H       -1.98796856      -0.64407321      -1.07912659
H       -1.63713408      -1.22859074       0.56077873
H       -2.18531787       0.46227184       0.29498059
H        2.63879261      -1.24066828      -0.54508244
11
Frame=1 idx=008646 GeodesicLength=0.03658776727091623 rxn_smarts="[C:1]([n:2]1[n:3][c:4]([H:11])[o:5][c:6]1=[O:7])([H:8])([H:9])[H:10]>>[C-:6]#[O+:7].[C:1](/[N:2]=[N:3]/[C:4](=[O:5])[H:11])([H:8])([H:9])[H:10]"
C       -1.60037116      -0.36772135      -0.10228161
N       -0.22429009       0.07886841      -0.31302076
N        0.59811864      -0.87986253      -0.48700146
C        1.89726405      -0.46272329      -0.34691202
O        2.18598680       0.62952821       0.12353649
C        0.25019720       1.25993746       0.95180758
O        0.06870330       2.38531361       0.97607066
H       -1.99060600      -0.63871221      -1.08335585
H       -1.64750238      -1.23573456       0.55469923
H       -2.18327910       0.45999818       0.29650790
H        2.64577875      -1.22889190      -0.57005014
11
Frame=2 idx=008646 GeodesicLength=0.07319512130493136 rxn_smarts="[C:1]([n:2]1[n:3][c:4]([H:11])[o:5][c:6]1=[O:7])([H:8])([H:9])[H:10]>>[C-:6]#[O+:7].[C:1](/[N:2]=[N:3]/[C:4](=[O:5])[H:11])([H:8])([H:9])[H:10]"
C       -1.60278163      -0.37189275      -0.10395604
N       -0.22412726       0.06854633      -0.30311686
N        0.60014154      -0.89101373      -0.47429238
C        1.89626728      -0.46852169      -0.33777391
O        2.17773772       0.62588183       0.13931169
C        0.25718440       1.27244013       0.94896940
O        0.07588521       2.39912529       0.96827980
H       -1.99288813      -0.63293722      -1.08781096
H       -1.65818913      -1.24321194       0.54812111
H       -2.18122942       0.45744830       0.29827595
H        2.65199942      -1.21586455      -0.59600781
11
Frame=3 idx=008646 GeodesicLength=0.10979902844188998 rxn_smarts="[C:1]([n:2]1[n:3][c:4]([H:11])[o:5][c:6]1=[O:7])([H:8])([H:9])[H:10]>>[C-:6]#[O+:7].[C:1](/[N:2]=[N:3]/[C:4](=[O:5])[H:11])([H:8])([H:9])[H:10]"
C       -1.60516781      -0.37618116      -0.10568225
N       -0.22391385       0.05790496      -0.29253446
N        0.60219230      -0.90253635      -0.46065115
C        1.89531661      -0.47486120      -0.32759548
O        2.16955635       0.62196679       0.15533555
C        0.26425261       1.28510950       0.94590095
O        0.08356767       2.41315045       0.95972451
H       -1.99474080      -0.62674498      -1.09251716
H       -1.66922067      -1.25100081       0.54101849
H       -2.17915918       0.45461107       0.30024824
H        2.65731677      -1.20141828      -0.62324726
11
Frame=4 idx=008646 GeodesicLength=0.14635695241206714 rxn_smarts="[C:1]([n:2]1[n:3][c:4]([H:11])[o:5][c:6]1=[O:7])([H:8])([H:9])[H:10]>>[C-:6]#[O+:7].[C:1](/[N:2]=[N:3]/[C:4](=[O:5])[H:11])([H:8])([H:9])[H:10]"
C       -1.60747194      -0.38061444      -0.10742780
N       -0.22375859       0.04725109      -0.28164846
N        0.60422249      -0.91390274      -0.44730872
C        1.89438038      -0.48122086      -0.31774042
O        2.16133302       0.61851273       0.16986941
C        0.27167512       1.29765431       0.94258875
O        0.09175563       2.42704210       0.95119160
H       -1.99646552      -0.61977371      -1.09734031
H       -1.68013076      -1.25944295       0.53302577
H       -2.17696389       0.45116636       0.30308302
H        2.66142406      -1.18667189      -0.64829284
11
Frame=5 idx=008646 GeodesicLength=0.18293744105551343 rxn_smarts="[C:1]([n:2]1[n:3][c:4]([H:11])[o:5][c:6]1=[O:7])([H:8])([H:9])[H:10]>>[C-:6]#[O+:7].[C:1](/[N:2]=[N:3]/[C:4](=[O:5])[H:11])([H:8])([H:9])[H:10]"
C       -1.60972837      -0.38519581      -0.10917361
N       -0.22370321       0.03659808      -0.27043026
N        0.60625013      -0.92507668      -0.43426339
C        1.89346334      -0.48733369      -0.30865051
O        2.15311417       0.61551173       0.18310788
C        0.27940230       1.31014814       0.93903877
O        0.10037561       2.44088121       0.94265587
H       -1.99811436      -0.61197017      -1.10226816
H       -1.69089532      -1.26856670       0.52409613
H       -2.17471446       0.44705655       0.30688001
H        2.66455016      -1.17205265      -0.67099273
11
Frame=6 idx=008646 GeodesicLength=0.21956721136015778 rxn_smarts="[C:1]([n:2]1[n:3][c:4]([H:11])[o:5][c:6]1=[O:7])([H:8])([H:9])[H:10]>>[C-:6]#[O+:7].[C:1](/[N:2]=[N:3]/[C:4](=[O:5])[H:11])([H:8])([H:9])[H:10]"
C       -1.61194565      -0.38992296      -0.11092227
N       -0.22370960       0.02583306      -0.25869269
N        0.60829756      -0.93623291      -0.42105898
C        1.89256864      -0.49330256      -0.30005238
O        2.14493048       0.61272569       0.19563136
C        0.28734311       1.32269462       0.93521744
O        0.10944112       2.45479235       0.93379232
H       -1.99953472      -0.60333445      -1.10732115
H       -1.70168492      -1.27832735       0.51423344
H       -2.17244111       0.44231121       0.31151739
H        2.66673509      -1.15723670      -0.69234447
11
Frame=7 idx=008646 GeodesicLength=0.25623337076050307 rxn_smarts="[C:1]([n:2]1[n:3][c:4]([H:11])[o:5][c:6]1=[O:7])([H:8])([H:9])[H:10]>>[C-:6]#[O+:7].[C:1](/[N:2]=[N:3]/[C:4](=[O:5])[H:11])([H:8])([H:9])[H:10]"
C       -1.61413335      -0.39480390      -0.11265655
N       -0.22379511       0.01494097      -0.24634629
N        0.61036298      -0.94736204      -0.40762462
C        1.89165381      -0.49899914      -0.29206375
O        2.13678430       0.61011078       0.20764023
C        0.29545848       1.33535589       0.93108005
O        0.11895129       2.46883660       0.92443802
H       -2.00070639      -0.59373129      -1.11247386
H       -1.71252018      -1.28879117       0.50330752
H       -2.17016079       0.43682892       0.31712470
H        2.66810495      -1.14238563      -0.71242544
11
Frame=8 idx=008646 GeodesicLength=0.2929738903119414 rxn_smarts="[C:1]([n:2]1[n:3][c:4]([H:11])[o:5][c:6]1=[O:7])([H:8])([H:9])[H:10]>>[C-:6]#[O+:7].[C:1](/[N:2]=[N:3]/[C:4](=[O:5])[H:11])([H:8])([H:9])[H:10]"
C       -1.61628984      -0.39984373      -0.11438090
N       -0.22392871       0.00381226      -0.23319427
N        0.61247114      -0.95861906      -0.39356473
C        1.89073006      -0.50454358      -0.28441350
O        2.12870728       0.60742850       0.21967552
C        0.30368990       1.34822348       0.92657772
O        0.12896316       2.48311942       0.91424877
H       -2.00147999      -0.58313124      -1.11774950
H       -1.72352668      -1.29993771       0.49126530
H       -2.16790201       0.43059926       0.32363232
H        2.66856568      -1.12710762      -0.73209672
11
Frame=9 idx=008646 GeodesicLength=0.3298155731391208 rxn_smarts="[C:1]([n:2]1[n:3][c:4]([H:11])[o:5][c:6]1=[O:7])([H:8])([H:9])[H:10]>>[C-:6]#[O+:7].[C:1](/[N:2]=[N:3]/[C:4](=[O:5])[H:11])([H:8])([H:9])[H:10]"
C       -1.61840748      -0.40505847      -0.11608403
N       -0.22410082      -0.00762509      -0.21907152
N        0.61463360      -0.97008258      -0.37867170
C        1.88979113      -0.51000139      -0.27694424
O        2.12071941       0.60447671       0.23218529
C        0.31200176       1.36138007       0.92162042
O        0.13956166       2.49772855       0.90285394
H       -2.00175944      -0.57138527      -1.12314202
H       -1.73475484      -1.31183484       0.47794841
H       -2.16568158       0.42351663       0.33114410
H        2.66799659      -1.11111432      -0.75183865
11
Frame=10 idx=008646 GeodesicLength=0.36671895397089815 rxn_smarts="[C:1]([n:2]1[n:3][c:4]([H:11])[o:5][c:6]1=[O:7])([H:8])([H:9])[H:10]>>[C-:6]#[O+:7].[C:1](/[N:2]=[N:3]/[C:4](=[O:5])[H:11])([H:8])([H:9])[H:10]"
C       -1.62049212      -0.41043137      -0.11773595
N       -0.22439873      -0.01920981      -0.20411691
N        0.61681246      -0.98145210      -0.36359813
C        1.88875323      -0.51507163      -0.27013841
O        2.11274218       0.60175424       0.24421098
C        0.32045168       1.37473154       0.91621998
O        0.15061253       2.51253081       0.89068525
H       -2.00172704      -0.55826455      -1.12850804
H       -1.74597079      -1.32457414       0.46314431
H       -2.16350567       0.41538049       0.33999146
H        2.66672228      -1.09539348      -0.77015456
11
Frame=11 idx=008646 GeodesicLength=0.40373039711073455 rxn_smarts="[C:1]([n:2]1[n:3][c:4]([H:11])[o:5][c:6]1=[O:7])([H:8])([H:9])[H:10]>>[C-:6]#[O+:7].[C:1](/[N:2]=[N:3]/[C:4](=[O:5])[H:11])([H:8])([H:9])[H:10]"
C       -1.62253721      -0.41596814      -0.11933314
N       -0.22479423      -0.03106403      -0.18808690
N        0.61903409      -0.99288323      -0.34798440
C        1.88763141      -0.51991208      -0.26366232
O        2.10480369       0.59900177       0.25632161
C        0.32898304       1.38838181       0.91028413
O        0.16219667       2.52763820       0.87728699
H       -2.00122378      -0.54362188      -1.13384007
H       -1.75728117      -1.33817670       0.44667971
H       -2.16140809       0.40609653       0.35021368
H        2.66459558      -1.07949226      -0.78787931
11
Frame=12 idx=008646 GeodesicLength=0.4408718137506673 rxn_smarts="[C:1]([n:2]1[n:3][c:4]([H:11])[o:5][c:6]1=[O:7])([H:8])([H:9])[H:10]>>[C-:6]#[O+:7].[C:1](/[N:2]=[N:3]/[C:4](=[O:5])[H:11])([H:8])([H:9])[H:10]"
C       -1.62451893      -0.42168230      -0.12086567
N       -0.22526871      -0.04330987      -0.17071164
N        0.62130571      -1.00450282      -0.33150152
C        1.88640218      -0.52462010      -0.25728127
O        2.09691513       0.59591372       0.26917514
C        0.33755487       1.40240942       0.90368943
O        0.17446099       2.54311937       0.86213396
H       -2.00007300      -0.52729240      -1.13909761
H       -1.76876101      -1.35266470       0.42834852
H       -2.15940230       0.39552698       0.36186063
H        2.66138508      -1.06289730      -0.80574996
11
Frame=13 idx=008646 GeodesicLength=0.4781940374943015 rxn_smarts="[C:1]([n:2]1[n:3][c:4]([H:11])[o:5][c:6]1=[O:7])([H:8])([H:9])[H:10]>>[C-:6]#[O+:7].[C:1](/[N:2]=[N:3]/[C:4](=[O:5])[H:11])([H:8])([H:9])[H:10]"
C       -1.62643343      -0.42759098      -0.12228100
N       -0.22584589      -0.05602538      -0.15175305
N        0.62362743      -1.01633898      -0.31415412
C        1.88502981      -0.52923634      -0.25087170
O        2.08907157       0.59218759       0.28341438
C        0.34612351       1.41691910       0.89623547
O        0.18756892       2.55906245       0.84457766
H       -1.99821761      -0.50889707      -1.14415507
H       -1.78037780      -1.36817647       0.40776310
H       -2.15752483       0.38337134       0.37528410
H        2.65697833      -1.04527527      -0.82405975
11
Frame=14 idx=008646 GeodesicLength=0.5156455347728758 rxn_smarts="[C:1]([n:2]1[n:3][c:4]([H:11])[o:5][c:6]1=[O:7])([H:8])([H:9])[H:10]>>[C-:6]#[O+:7].[C:1](/[N:2]=[N:3]/[C:4](=[O:5])[H:11])([H:8])([H:9])[H:10]"
C       -1.62824907      -0.43363566      -0.12359838
N       -0.22655672      -0.06913092      -0.13127766
N        0.62597404      -1.02824837      -0.29624152
C        1.88347651      -0.53365517      -0.24458270
O        2.08119902       0.58827611       0.29814336
C        0.35473630       1.43171441       0.88802470
O        0.20138206       2.57521563       0.82519962
H       -1.99562826      -0.48860286      -1.14884805
H       -1.79198799      -1.38444058       0.38501379
H       -2.15580986       0.36966414       0.39023188
H        2.65146396      -1.02715672      -0.84206503
11
Frame=15 idx=008646 GeodesicLength=0.5532374315972758 rxn_smarts="[C:1]([n:2]1[n:3][c:4]([H:11])[o:5][c:6]1=[O:7])([H:8])([H:9])[H:10]>>[C-:6]#[O+:7].[C:1](/[N:2]=[N:3]/[C:4](=[O:5])[H:11])([H:8])([H:9])[H:10]"
C       -1.62993016      -0.43981155      -0.12473771
N       -0.22743147      -0.08271482      -0.10902983
N        0.62831856      -1.04022982      -0.27789263
C        1.88166623      -0.53792640      -0.23825858
O        2.07323302       0.58381199       0.31409093
C        0.36333069       1.44686024       0.87879219
O        0.21607467       2.59159509       0.80322010
H       -1.99225063      -0.46593801      -1.15294834
H       -1.80346902      -1.40155067       0.35965809
H       -2.15426159       0.35403393       0.40709638
H        2.64471971      -1.00812998      -0.85999061
11
Frame=16 idx=008646 GeodesicLength=0.590976088346373 rxn_smarts="[C:1]([n:2]1[n:3][c:4]([H:11])[o:5][c:6]1=[O:7])([H:8])([H:9])[H:10]>>[C-:6]#[O+:7].[C:1](/[N:2]=[N:3]/[C:4](=[O:5])[H:11])([H:8])([H:9])[H:10]"
C       -1.63146318      -0.44604671      -0.12574340
N       -0.22848072      -0.09674159      -0.08504958
N        0.63066140      -1.05224194      -0.25920633
C        1.87961860      -0.54199988      -0.23200876
O        2.06516373       0.57918296       0.33050405
C        0.37194021       1.46214005       0.86873089
O        0.23149164       2.60794546       0.77935667
H       -1.98798029      -0.44140087      -1.15632830
H       -1.81477156      -1.41903085       0.33204682
H       -2.15300117       0.33672564       0.42525114
H        2.63682135      -0.98853227      -0.87755322
