17
Frame=0 idx=007840 GeodesicLength=0.0 rxn_smarts="[C:1]([C:2]([C@@:3]([O:4][H:14])([C:5]([C:6](=[O:7])[H:17])([H:15])[H:16])[H:13])([H:11])[H:12])([H:8])([H:9])[H:10]>>[C:1]([C:2]([C:5]([C:3](=[O:4])[H:13])([C:6](=[O:7])[H:17])[H:16])([H:11])[H:12])([H:8])([H:9])[H:10].[H:14][H:15]"
C       -2.22643401      -0.43182827      -0.55524507
C       -0.84196668       0.17784660      -0.70645957
C       -0.09306066      -0.11678208       0.77000601
O        0.18540971      -1.36908250       0.93838389
C        0.98949454       0.75685999       0.38778423
C        2.11292359       0.40666928      -0.51514034
O        2.07545103      -0.38445964      -1.41785552
H       -2.75891399      -0.32948830      -1.50387496
H       -2.14554259      -1.48764565      -0.30247586
H       -2.80879145       0.07235601       0.21696570
H       -0.24903980      -0.33785089      -1.45597273
H       -0.91936176       1.23801746      -0.94880814
H       -0.76551971       0.36583024       1.50178946
H        1.50167607      -1.00540599       1.58699947
H        2.02912461      -0.35555304       1.70289039
H        0.88117668       1.82206937       0.58812720
H        3.03337448       0.97844738      -0.28711421
17
Frame=1 idx=007840 GeodesicLength=0.2052491424103674 rxn_smarts="[C:1]([C:2]([C@@:3]([O:4][H:14])([C:5]([C:6](=[O:7])[H:17])([H:15])[H:16])[H:13])([H:11])[H:12])([H:8])([H:9])[H:10]>>[C:1]([C:2]([C:5]([C:3](=[O:4])[H:13])([C:6](=[O:7])[H:17])[H:16])([H:11])[H:12])([H:8])([H:9])[H:10].[H:14][H:15]"
C       -2.24369172      -0.41275417      -0.54526514
C       -0.84632915       0.16552829      -0.70189319
C       -0.09547159      -0.12568056       0.78700498
O        0.15358443      -1.38416969       0.95226098
C        0.98014878       0.74447770       0.37808536
C        2.14941546       0.43880108      -0.47907110
O        2.20402004      -0.36540215      -1.36895349
H       -2.77455627      -0.31986919      -1.49566762
H       -2.18709125      -1.46504278      -0.27177379
H       -2.81796184       0.11908688       0.21465080
H       -0.25873382      -0.37371776      -1.43991229
H       -0.91397411       1.21532577      -0.98954376
H       -0.75277853       0.36317022       1.52864485
H        1.47133561      -1.06010271       1.60658871
H        2.09990844      -0.45538096       1.61956650
H        0.81490507       1.81874754       0.48003064
H        3.01727046       1.09698251      -0.27475243
17
Frame=2 idx=007840 GeodesicLength=0.4105969563330671 rxn_smarts="[C:1]([C:2]([C@@:3]([O:4][H:14])([C:5]([C:6](=[O:7])[H:17])([H:15])[H:16])[H:13])([H:11])[H:12])([H:8])([H:9])[H:10]>>[C:1]([C:2]([C:5]([C:3](=[O:4])[H:13])([C:6](=[O:7])[H:17])[H:16])([H:11])[H:12])([H:8])([H:9])[H:10].[H:14][H:15]"
C       -2.26191169      -0.39436769      -0.53289935
C       -0.85224633       0.15083654      -0.69891505
C       -0.09719249      -0.13150206       0.80242938
O        0.12137616      -1.39497714       0.97022462
C        0.97067201       0.73347855       0.36257163
C        2.18741567       0.47688056      -0.44032664
O        2.34056719      -0.32600882      -1.31955072
H       -2.79291498      -0.31472393      -1.48432372
H       -2.22957453      -1.44097648      -0.23455185
H       -2.82589577       0.16810715       0.21282805
H       -0.27237854      -0.41542697      -1.42359111
H       -0.91003054       1.18663121      -1.03651518
H       -0.73741908       0.36677511       1.55305616
H        1.44419099      -1.10786383       1.62250096
H        2.16033755      -0.56861002       1.52200951
H        0.75449036       1.80612189       0.36983977
H        3.00051401       1.20562594      -0.24478647
17
Frame=3 idx=007840 GeodesicLength=0.6158282658062403 rxn_smarts="[C:1]([C:2]([C@@:3]([O:4][H:14])([C:5]([C:6](=[O:7])[H:17])([H:15])[H:16])[H:13])([H:11])[H:12])([H:8])([H:9])[H:10]>>[C:1]([C:2]([C:5]([C:3](=[O:4])[H:13])([C:6](=[O:7])[H:17])[H:16])([H:11])[H:12])([H:8])([H:9])[H:10].[H:14][H:15]"
C       -2.28128952      -0.37679173      -0.51780694
C       -0.85973873       0.13253099      -0.69754475
C       -0.09826985      -0.13331210       0.81667821
O        0.08728077      -1.40032530       0.99508785
C        0.96114928       0.72288456       0.33955270
C        2.22765978       0.51988638      -0.39625826
O        2.48403534      -0.26150592      -1.27059960
H       -2.81418427      -0.31511639      -1.46940981
H       -2.27351745      -1.41484952      -0.18922593
H       -2.83247933       0.22020485       0.21074174
H       -0.29027703      -0.46537379      -1.40572022
H       -0.90746620       1.14949317      -1.09072144
H       -0.71897567       0.37943803       1.57435870
H        1.42227673      -1.15039134       1.63092204
H        2.20769532      -0.69691850       1.40510218
H        0.70077375       1.78502893       0.25514146
H        2.98532707       1.30511766      -0.19029793
17
Frame=4 idx=007840 GeodesicLength=0.8202880806285545 rxn_smarts="[C:1]([C:2]([C@@:3]([O:4][H:14])([C:5]([C:6](=[O:7])[H:17])([H:15])[H:16])[H:13])([H:11])[H:12])([H:8])([H:9])[H:10]>>[C:1]([C:2]([C:5]([C:3](=[O:4])[H:13])([C:6](=[O:7])[H:17])[H:16])([H:11])[H:12])([H:8])([H:9])[H:10].[H:14][H:15]"
C       -2.30169167      -0.36017860      -0.49946893
C       -0.86862821       0.10920611      -0.69751196
C       -0.09851549      -0.12934277       0.83041087
O        0.04991960      -1.39773063       1.03071087
C        0.95189161       0.71184433       0.30718498
C        2.27073334       0.56702332      -0.34275386
O        2.63423193      -0.16755577      -1.21966677
H       -2.83822063      -0.32252463      -1.45019214
H       -2.31899454      -1.38569984      -0.13375009
H       -2.83731201       0.27618096       0.20732585
H       -0.31240392      -0.52614057      -1.38410619
H       -0.90619830       1.10075553      -1.15305741
H       -0.69664729       0.40524674       1.59162546
H        1.40839325      -1.19017002       1.62569004
H        2.23710622      -0.84278423       1.25891070
H        0.65489226       1.75567419       0.13164583
H        2.97144386       1.39619590      -0.10299723
17
Frame=5 idx=007840 GeodesicLength=1.0229944139109186 rxn_smarts="[C:1]([C:2]([C@@:3]([O:4][H:14])([C:5]([C:6](=[O:7])[H:17])([H:15])[H:16])[H:13])([H:11])[H:12])([H:8])([H:9])[H:10]>>[C:1]([C:2]([C:5]([C:3](=[O:4])[H:13])([C:6](=[O:7])[H:17])[H:16])([H:11])[H:12])([H:8])([H:9])[H:10].[H:14][H:15]"
C       -2.32282607      -0.34516936      -0.47658390
C       -0.87915018       0.07991372      -0.69834367
C       -0.09710539      -0.11643650       0.84364236
O        0.00938746      -1.38251866       1.08082345
C        0.94356683       0.69971309       0.26200617
C        2.31689915       0.61710354      -0.27379774
O        2.79440488      -0.04275762      -1.15564648
H       -2.86539854      -0.33916277      -1.42451309
H       -2.36490915      -1.35279934      -0.06565830
H       -2.83997697       0.33544512       0.20246146
H       -0.33909000      -0.59916933      -1.35624582
H       -0.90750369       1.03739883      -1.22342504
H       -0.66843745       0.44993992       1.60294453
H        1.40601796      -1.23151766       1.59473189
H        2.23898371      -1.00520543       1.06850646
H        0.61972600       1.71736231      -0.00808538
H        2.95541144       1.47786013       0.02718311
17
Frame=6 idx=007840 GeodesicLength=1.221970655642806 rxn_smarts="[C:1]([C:2]([C@@:3]([O:4][H:14])([C:5]([C:6](=[O:7])[H:17])([H:15])[H:16])[H:13])([H:11])[H:12])([H:8])([H:9])[H:10]>>[C:1]([C:2]([C:5]([C:3](=[O:4])[H:13])([C:6](=[O:7])[H:17])[H:16])([H:11])[H:12])([H:8])([H:9])[H:10].[H:14][H:15]"
C       -2.34352898      -0.33082696      -0.44763788
C       -0.89077261       0.04525631      -0.69872818
C       -0.09171735      -0.09363463       0.85546796
O       -0.02758401      -1.35186752       1.14393610
C        0.93821154       0.68450701       0.20263165
C        2.36367030       0.66663156      -0.18161345
O        2.96878208       0.10192644      -1.05175700
H       -2.89529924      -0.36439582      -1.38962726
H       -2.40832718      -1.31390518       0.01656384
H       -2.83918781       0.39837130       0.19628581
H       -0.37090806      -0.68253348      -1.32071290
H       -0.91266202       0.95823592      -1.29922300
H       -0.63090399       0.51390192       1.60670915
H        1.41675273      -1.28342730       1.52284575
H        2.20107277      -1.16852934       0.82309551
H        0.59971443       1.66515369      -0.17200246
H        2.92268740       1.55513609       0.19376636
17
Frame=7 idx=007840 GeodesicLength=1.4173097484234243 rxn_smarts="[C:1]([C:2]([C@@:3]([O:4][H:14])([C:5]([C:6](=[O:7])[H:17])([H:15])[H:16])[H:13])([H:11])[H:12])([H:8])([H:9])[H:10]>>[C:1]([C:2]([C:5]([C:3](=[O:4])[H:13])([C:6](=[O:7])[H:17])[H:16])([H:11])[H:12])([H:8])([H:9])[H:10].[H:14][H:15]"
C       -2.36300767      -0.31785791      -0.41036333
C       -0.90561141       0.01142135      -0.69993346
C       -0.07884748      -0.06246011       0.85878973
O       -0.04713133      -1.30818812       1.20311329
C        0.93773854       0.66481091       0.12452999
C        2.40261087       0.71260857      -0.06658504
O        3.15390717       0.23464687      -0.87306006
H       -2.93064881      -0.39522363      -1.34020236
H       -2.44342776      -1.27159183       0.10951525
H       -2.83484424       0.45789283       0.19615687
H       -0.41233512      -0.76566350      -1.28386485
H       -0.92744041       0.87291195      -1.37301882
H       -0.57824550       0.58988082       1.59986731
H        1.43288687      -1.34875889       1.40295868
H        2.12861392      -1.29462946       0.53784776
H        0.60407417       1.59406058      -0.36722127
H        2.86170819       1.62613957       0.38147032
17
Frame=8 idx=007840 GeodesicLength=1.6078432833891683 rxn_smarts="[C:1]([C:2]([C@@:3]([O:4][H:14])([C:5]([C:6](=[O:7])[H:17])([H:15])[H:16])[H:13])([H:11])[H:12])([H:8])([H:9])[H:10]>>[C:1]([C:2]([C:5]([C:3](=[O:4])[H:13])([C:6](=[O:7])[H:17])[H:16])([H:11])[H:12])([H:8])([H:9])[H:10].[H:14][H:15]"
C       -2.37855819      -0.29687714      -0.37068768
C       -0.91889456      -0.01757703      -0.70075229
C       -0.05913870      -0.03977158       0.85566523
O       -0.03904073      -1.27482610       1.23990260
C        0.94198031       0.63787945       0.04747094
C        2.41873471       0.75360472       0.05706902
O        3.31097622       0.33171541      -0.62833980
H       -2.96537252      -0.41845566      -1.28371402
H       -2.47132154      -1.21614889       0.20629333
H       -2.82409604       0.52512063       0.19359545
H       -0.46041612      -0.84067420      -1.25028790
H       -0.94331554       0.78900419      -1.43933057
H       -0.51550400       0.64729704       1.59266411
H        1.44782173      -1.42469826       1.25958906
H        2.06380257      -1.35347089       0.26295315
H        0.62963627       1.49245354      -0.57349133
H        2.76270613       1.70542477       0.53140070
17
Frame=9 idx=007840 GeodesicLength=1.7960875846997173 rxn_smarts="[C:1]([C:2]([C@@:3]([O:4][H:14])([C:5]([C:6](=[O:7])[H:17])([H:15])[H:16])[H:13])([H:11])[H:12])([H:8])([H:9])[H:10]>>[C:1]([C:2]([C:5]([C:3](=[O:4])[H:13])([C:6](=[O:7])[H:17])[H:16])([H:11])[H:12])([H:8])([H:9])[H:10].[H:14][H:15]"
C       -2.38862285      -0.27177202      -0.33398273
C       -0.92918197      -0.03605113      -0.69990673
C       -0.03817503      -0.02604991       0.85247773
O       -0.01270834      -1.25631649       1.25468296
C        0.94655320       0.61296483      -0.01467620
C        2.40951881       0.79258430       0.17133022
O        3.41448853       0.38272827      -0.34412812
H       -2.99408454      -0.43303037      -1.22849845
H       -2.48926659      -1.15717297       0.29268561
H       -2.81036859       0.58893937       0.18957953
H       -0.50955500      -0.89837084      -1.22107250
H       -0.95794185       0.72013965      -1.49020906
H       -0.45252796       0.68135530       1.59428447
H        1.45681531      -1.49792877       1.11540423
H        2.02631729      -1.35458022       0.01769383
H        0.67552935       1.36250241      -0.77144737
H        2.65321022       1.79005859       0.61578255
17
Frame=10 idx=007840 GeodesicLength=1.9810155135626302 rxn_smarts="[C:1]([C:2]([C@@:3]([O:4][H:14])([C:5]([C:6](=[O:7])[H:17])([H:15])[H:16])[H:13])([H:11])[H:12])([H:8])([H:9])[H:10]>>[C:1]([C:2]([C:5]([C:3](=[O:4])[H:13])([C:6](=[O:7])[H:17])[H:16])([H:11])[H:12])([H:8])([H:9])[H:10].[H:14][H:15]"
C       -2.39577817      -0.23998918      -0.30254433
C       -0.93700669      -0.04728240      -0.69801649
C       -0.01917087      -0.02579433       0.85239449
O        0.02301611      -1.25832441       1.25025536
C        0.94764386       0.59057536      -0.05986219
C        2.38099359       0.83143329       0.26872896
O        3.45962205       0.41141516      -0.05242480
H       -3.01862066      -0.43358794      -1.17851070
H       -2.50386050      -1.09277557       0.36690827
H       -2.79408913       0.65437718       0.18178558
H       -0.55919692      -0.94268779      -1.19662106
H       -0.96796390       0.66526599      -1.52818246
H       -0.39440695       0.68735042       1.60866154
H        1.46676782      -1.55905277       0.98656687
H        2.02856208      -1.31377109      -0.18998168
H        0.73387684       1.19795683      -0.94725407
H        2.54961145       1.87489124       0.63809669
17
Frame=11 idx=007840 GeodesicLength=2.165555114576261 rxn_smarts="[C:1]([C:2]([C@@:3]([O:4][H:14])([C:5]([C:6](=[O:7])[H:17])([H:15])[H:16])[H:13])([H:11])[H:12])([H:8])([H:9])[H:10]>>[C:1]([C:2]([C:5]([C:3](=[O:4])[H:13])([C:6](=[O:7])[H:17])[H:16])([H:11])[H:12])([H:8])([H:9])[H:10].[H:14][H:15]"
C       -2.40081530      -0.20428509      -0.27642654
C       -0.94309811      -0.05437138      -0.69615635
C       -0.00284061      -0.03453683       0.85567285
O        0.06210910      -1.27356923       1.23408422
C        0.94334800       0.57252297      -0.09402004
C        2.33985672       0.86979931       0.34701405
O        3.45111649       0.42910842       0.23273614
H       -3.03981431      -0.42389771      -1.13442498
H       -2.51594242      -1.02601918       0.42996131
H       -2.77582731       0.71922605       0.17069984
H       -0.60895431      -0.97842411      -1.17514702
H       -0.97257208       0.62082798      -1.55739373
H       -0.34150134       0.67420333       1.63241005
H        1.48088556      -1.60633905       0.87405398
H        2.06276875      -1.24122485      -0.37120242
H        0.79553861       1.00711692      -1.08714837
H        2.46574257       1.94986246       0.61528701
17
Frame=12 idx=007840 GeodesicLength=2.3539126439128246 rxn_smarts="[C:1]([C:2]([C@@:3]([O:4][H:14])([C:5]([C:6](=[O:7])[H:17])([H:15])[H:16])[H:13])([H:11])[H:12])([H:8])([H:9])[H:10]>>[C:1]([C:2]([C:5]([C:3](=[O:4])[H:13])([C:6](=[O:7])[H:17])[H:16])([H:11])[H:12])([H:8])([H:9])[H:10].[H:14][H:15]"
C       -2.40364941      -0.16742797      -0.25560758
C       -0.94746601      -0.06156569      -0.69574174
C        0.01141646      -0.04727158       0.86082180
O        0.10164351      -1.29388287       1.21291445
C        0.93456229       0.55770787      -0.12374467
C        2.29283163       0.90352826       0.40643843
O        3.39681653       0.43989640       0.49404923
H       -3.05792673      -0.41097315      -1.09541309
H       -2.52548561      -0.95698504       0.48580536
H       -2.75522243       0.78290303       0.15305122
H       -0.65766389      -1.01173625      -1.15401552
H       -0.97214000       0.57767624      -1.58450164
H       -0.29156108       0.65193952       1.66002177
H        1.49896958      -1.64173824       0.77815053
H        2.12042374      -1.14286083      -0.53434892
H        0.84617507       0.81617417      -1.18149822
H        2.40827635       2.00461614       0.57361860
17
Frame=13 idx=007840 GeodesicLength=2.5472719577480145 rxn_smarts="[C:1]([C:2]([C@@:3]([O:4][H:14])([C:5]([C:6](=[O:7])[H:17])([H:15])[H:16])[H:13])([H:11])[H:12])([H:8])([H:9])[H:10]>>[C:1]([C:2]([C:5]([C:3](=[O:4])[H:13])([C:6](=[O:7])[H:17])[H:16])([H:11])[H:12])([H:8])([H:9])[H:10].[H:14][H:15]"
C       -2.40463567      -0.12977131      -0.23953884
C       -0.95064743      -0.07186650      -0.69734586
C        0.02414895      -0.06247262       0.86634472
O        0.13911303      -1.31605351       1.19080453
C        0.92442022       0.54044638      -0.15280856
C        2.24414715       0.92852308       0.45299940
O        3.31290916       0.44867541       0.71477677
H       -3.07430336      -0.39631482      -1.05996529
H       -2.53346552      -0.88398564       0.53697439
H       -2.73126368       0.84635345       0.12728118
H       -0.70567621      -1.04662635      -1.13146531
H       -0.96903280       0.52917724      -1.61290112
H       -0.24266079       0.62599985       1.68696606
H        1.52075883      -1.66939650       0.70308121
H        2.19714751      -1.02329570      -0.68298727
H        0.87962242       0.64326396      -1.23843345
H        2.36941820       2.03734356       0.53621743
17
Frame=14 idx=007840 GeodesicLength=2.7443194223705483 rxn_smarts="[C:1]([C:2]([C@@:3]([O:4][H:14])([C:5]([C:6](=[O:7])[H:17])([H:15])[H:16])[H:13])([H:11])[H:12])([H:8])([H:9])[H:10]>>[C:1]([C:2]([C:5]([C:3](=[O:4])[H:13])([C:6](=[O:7])[H:17])[H:16])([H:11])[H:12])([H:8])([H:9])[H:10].[H:14][H:15]"
C       -2.40391273      -0.09313592      -0.22771050
C       -0.95291872      -0.08544453      -0.70017554
C        0.03528751      -0.07727194       0.87254252
O        0.17218503      -1.33636948       1.17249594
C        0.91519795       0.51862165      -0.18154581
C        2.19668135       0.94349128       0.49101963
O        3.21449464       0.45083280       0.89398945
H       -3.08893175      -0.38207624      -1.02757181
H       -2.53935724      -0.80932907       0.58322957
H       -2.70524371       0.90666870       0.09474415
H       -0.75212185      -1.08307571      -1.10611910
H       -0.96552843       0.47465107      -1.64182711
H       -0.19500436       0.60231246       1.71103158
H        1.54336949      -1.69335204       0.65056212
H        2.28450789      -0.88040219      -0.82518163
H        0.89796908       0.49220102      -1.27181564
H        2.34332584       2.05167816       0.51233219
17
Frame=15 idx=007840 GeodesicLength=2.943401089625685 rxn_smarts="[C:1]([C:2]([C@@:3]([O:4][H:14])([C:5]([C:6](=[O:7])[H:17])([H:15])[H:16])[H:13])([H:11])[H:12])([H:8])([H:9])[H:10]>>[C:1]([C:2]([C:5]([C:3](=[O:4])[H:13])([C:6](=[O:7])[H:17])[H:16])([H:11])[H:12])([H:8])([H:9])[H:10].[H:14][H:15]"
C       -2.40171365      -0.05719001      -0.21975759
C       -0.95448011      -0.10243397      -0.70334460
C        0.04474075      -0.09147285       0.88007752
O        0.19911256      -1.35476625       1.16045788
C        0.90813054       0.48984396      -0.20938441
C        2.15121901       0.94892488       0.52343592
O        3.11282976       0.44439739       1.03540765
H       -3.10207982      -0.36713625      -0.99811233
H       -2.54384001      -0.73308109       0.62427592
H       -2.67709735       0.96384699       0.05653329
H       -0.79774453      -1.12119757      -1.07704270
H       -0.96176650       0.41424473      -1.66995115
H       -0.14912190       0.58228662       1.73207467
H        1.56478914      -1.71776281       0.62165102
H        2.37720368      -0.70438114      -0.96797867
H        0.90650453       0.35344513      -1.29112616
H        2.32331388       2.05243226       0.50278374
17
Frame=16 idx=007840 GeodesicLength=3.142367108137694 rxn_smarts="[C:1]([C:2]([C@@:3]([O:4][H:14])([C:5]([C:6](=[O:7])[H:17])([H:15])[H:16])[H:13])([H:11])[H:12])([H:8])([H:9])[H:10]>>[C:1]([C:2]([C:5]([C:3](=[O:4])[H:13])([C:6](=[O:7])[H:17])[H:16])([H:11])[H:12])([H:8])([H:9])[H:10].[H:14][H:15]"
C       -2.39756051      -0.02162416      -0.21629709
C       -0.95466515      -0.12361712      -0.70603909
C        0.05239653      -0.10441611       0.89029459
O        0.21836476      -1.37070689       1.15824522
C        0.90378997       0.45282303      -0.23512644
C        2.10890889       0.94433699       0.55182506
O        3.01726919       0.42510725       1.14102754
H       -3.11286117      -0.35166867      -0.97241938
H       -2.54730376      -0.65394877       0.65989579
H       -2.64610057       1.01836856       0.01084854
H       -0.84257497      -1.16197254      -1.04229747
H       -0.95588764       0.34618340      -1.69668738
H       -0.10574844       0.56779877       1.75065502
H        1.58154777      -1.74663995       0.61666115
H        2.46347232      -0.47621730      -1.11961480
H        0.91096900       0.21427236      -1.29883028
H        2.30598377       2.04192116       0.50785901
