15
Frame=0 idx=006964 GeodesicLength=0.0 rxn_smarts="[C:1]([C:2]1([C:3]([H:11])([H:12])[H:13])[N:4]([H:14])[C@:5]1([C:6]#[N:7])[H:15])([H:8])([H:9])[H:10]>>[C:1]([C+:2]([C:3]([H:11])([H:12])[H:13])[N:4]([C:5](=[C:6]=[N-:7])[H:15])[H:14])([H:8])([H:9])[H:10]"
C       -0.79034657       1.37471909      -0.41737413
C       -0.45109255      -0.06108909      -0.25279025
C       -1.12640771      -0.83265284       0.82962933
N        0.38438137      -0.64990664      -1.12267727
C        1.43759128      -0.94689973      -0.23436029
C        2.07397135       0.10819548       0.44127681
N        2.57939778       1.00261101       0.97793245
H       -1.76360701       1.62387239       0.00362929
H       -0.74192479       1.67536786      -1.46696492
H       -0.02799972       1.95657986       0.11859386
H       -2.21166203      -0.72895438       0.71058886
H       -0.84795556      -1.88313231       0.79854365
H       -0.87553926      -0.43397946       1.81537332
H        0.54158183      -0.25049629      -2.04010712
H        1.81961159      -1.95423501      -0.16129354
15
Frame=1 idx=006964 GeodesicLength=0.05326010068591527 rxn_smarts="[C:1]([C:2]1([C:3]([H:11])([H:12])[H:13])[N:4]([H:14])[C@:5]1([C:6]#[N:7])[H:15])([H:8])([H:9])[H:10]>>[C:1]([C+:2]([C:3]([H:11])([H:12])[H:13])[N:4]([C:5](=[C:6]=[N-:7])[H:15])[H:14])([H:8])([H:9])[H:10]"
C       -0.79927441       1.37163375      -0.43133736
C       -0.44459132      -0.05932262      -0.24956626
C       -1.11831751      -0.82504445       0.83792366
N        0.37933894      -0.65181599      -1.12944333
C        1.43478679      -0.93918031      -0.24244627
C        2.08346565       0.09580832       0.45216757
N        2.57974943       0.95531834       1.05008036
H       -1.76892838       1.62379260      -0.00335800
H       -0.77768990       1.65758234      -1.48585167
H       -0.03653093       1.97124852       0.08302432
H       -2.20384105      -0.71992500       0.72698527
H       -0.84546123      -1.87730189       0.81242525
H       -0.86023787      -0.42247650       1.82029981
H        0.54596829      -0.23722266      -2.03833013
H        1.83156351      -1.94309444      -0.20257320
15
Frame=2 idx=006964 GeodesicLength=0.10632580111985199 rxn_smarts="[C:1]([C:2]1([C:3]([H:11])([H:12])[H:13])[N:4]([H:14])[C@:5]1([C:6]#[N:7])[H:15])([H:8])([H:9])[H:10]>>[C:1]([C+:2]([C:3]([H:11])([H:12])[H:13])[N:4]([C:5](=[C:6]=[N-:7])[H:15])[H:14])([H:8])([H:9])[H:10]"
C       -0.80834814       1.36849306      -0.44531417
C       -0.43803493      -0.05724076      -0.24659025
C       -1.10990276      -0.81716184       0.84607912
N        0.37452530      -0.65340476      -1.13610555
C        1.43236099      -0.93054383      -0.25038584
C        2.09261518       0.08369253       0.46380077
N        2.57929218       0.90428566       1.12078077
H       -1.77448018       1.62363189      -0.01068919
H       -0.81318194       1.63933294      -1.50395806
H       -0.04588109       1.98551634       0.04734238
H       -2.19565288      -0.71078548       0.74328645
H       -0.84237808      -1.87106978       0.82636161
H       -0.84466828      -0.41058771       1.82497531
H        0.55018352      -0.22427508      -2.03642686
H        1.84355110      -1.92988319      -0.24315649
15
Frame=3 idx=006964 GeodesicLength=0.1590358776682547 rxn_smarts="[C:1]([C:2]1([C:3]([H:11])([H:12])[H:13])[N:4]([H:14])[C@:5]1([C:6]#[N:7])[H:15])([H:8])([H:9])[H:10]>>[C:1]([C+:2]([C:3]([H:11])([H:12])[H:13])[N:4]([C:5](=[C:6]=[N-:7])[H:15])[H:14])([H:8])([H:9])[H:10]"
C       -0.81763502       1.36527593      -0.45907482
C       -0.43157475      -0.05490417      -0.24378089
C       -1.10162612      -0.80924869       0.85385617
N        0.37012291      -0.65456235      -1.14241398
C        1.43021320      -0.92098354      -0.25765320
C        2.10100304       0.07163928       0.47716091
N        2.58060143       0.85065607       1.18725023
H       -1.78050183       1.62326081      -0.01842668
H       -0.84805042       1.62082985      -1.52103320
H       -0.05629327       1.99927250       0.01220421
H       -2.18753323      -0.70177570       0.75894431
H       -0.83914794      -1.86467422       0.84001511
H       -0.82959256      -0.39870817       1.82930668
H        0.55463351      -0.21138687      -2.03406435
H        1.85538106      -1.91469073      -0.28229051
15
Frame=4 idx=006964 GeodesicLength=0.21138247860774761 rxn_smarts="[C:1]([C:2]1([C:3]([H:11])([H:12])[H:13])[N:4]([H:14])[C@:5]1([C:6]#[N:7])[H:15])([H:8])([H:9])[H:10]>>[C:1]([C+:2]([C:3]([H:11])([H:12])[H:13])[N:4]([C:5](=[C:6]=[N-:7])[H:15])[H:14])([H:8])([H:9])[H:10]"
C       -0.82721353       1.36199102      -0.47259917
C       -0.42522525      -0.05229600      -0.24106814
C       -1.09362496      -0.80136095       0.86120596
N        0.36615051      -0.65527063      -1.14832122
C        1.42834299      -0.91050402      -0.26418696
C        2.10875269       0.05962750       0.49207263
N        2.58472581       0.79478710       1.24938307
H       -1.78716160       1.62261811      -0.02664397
H       -0.88222352       1.60213838      -1.53711573
H       -0.06790402       2.01259143      -0.02224361
H       -2.17963334      -0.69299915       0.77376972
H       -0.83587683      -1.85817800       0.85331995
H       -0.81529089      -0.38690361       1.83331146
H        0.55926356      -0.19855833      -2.03124352
H        1.86691837      -1.89768284      -0.31964046
15
Frame=5 idx=006964 GeodesicLength=0.2636274973447288 rxn_smarts="[C:1]([C:2]1([C:3]([H:11])([H:12])[H:13])[N:4]([H:14])[C@:5]1([C:6]#[N:7])[H:15])([H:8])([H:9])[H:10]>>[C:1]([C+:2]([C:3]([H:11])([H:12])[H:13])[N:4]([C:5](=[C:6]=[N-:7])[H:15])[H:14])([H:8])([H:9])[H:10]"
C       -0.83698850       1.35863553      -0.48641164
C       -0.41848921      -0.04918275      -0.23853756
C       -1.08470558      -0.79289154       0.86872508
N        0.36236584      -0.65561784      -1.15431822
C        1.42703650      -0.89918621      -0.27119897
C        2.11665717       0.04725434       0.50716788
N        2.58532529       0.73461183       1.31210050
H       -1.79408614       1.62176155      -0.03533823
H       -0.91621236       1.58287364      -1.55282260
H       -0.08053766       2.02588354      -0.05730965
H       -2.17079117      -0.68380706       0.78915616
H       -0.83152618      -1.85098915       0.86698707
H       -0.79984227      -0.37430423       1.83723869
H        0.56334424      -0.18605514      -2.02869009
H        1.87845004      -1.87898651      -0.35674840
15
Frame=6 idx=006964 GeodesicLength=0.3150401213717994 rxn_smarts="[C:1]([C:2]1([C:3]([H:11])([H:12])[H:13])[N:4]([H:14])[C@:5]1([C:6]#[N:7])[H:15])([H:8])([H:9])[H:10]>>[C:1]([C+:2]([C:3]([H:11])([H:12])[H:13])[N:4]([C:5](=[C:6]=[N-:7])[H:15])[H:14])([H:8])([H:9])[H:10]"
C       -0.84711319       1.35519187      -0.49957995
C       -0.41208338      -0.04585606      -0.23578547
C       -1.07711541      -0.78490925       0.87537710
N        0.35922554      -0.65542363      -1.15936473
C        1.42575360      -0.88696807      -0.27644016
C        2.12378789       0.03501478       0.52423578
N        2.59406459       0.67437754       1.36661116
H       -1.80212007       1.62036696      -0.04478835
H       -0.94861385       1.56385674      -1.56722530
H       -0.09478380       2.03861281      -0.09037630
H       -2.16317468      -0.67537010       0.80243936
H       -0.82813298      -1.84414912       0.87973503
H       -0.78702419      -0.36252730       1.84077106
H        0.56806277      -0.17340966      -2.02507974
H        1.88926716      -1.85880752      -0.39052949
15
Frame=7 idx=006964 GeodesicLength=0.3657864968961853 rxn_smarts="[C:1]([C:2]1([C:3]([H:11])([H:12])[H:13])[N:4]([H:14])[C@:5]1([C:6]#[N:7])[H:15])([H:8])([H:9])[H:10]>>[C:1]([C+:2]([C:3]([H:11])([H:12])[H:13])[N:4]([C:5](=[C:6]=[N-:7])[H:15])[H:14])([H:8])([H:9])[H:10]"
C       -0.85747199       1.35170176      -0.51254197
C       -0.40547516      -0.04205709      -0.23288953
C       -1.06967635      -0.77688666       0.88167096
N        0.35654819      -0.65472574      -1.16397797
C        1.42486938      -0.87391416      -0.28114965
C        2.13103237       0.02249070       0.54199622
N        2.60459761       0.61239409       1.41765657
H       -1.81071409       1.61863959      -0.05457678
H       -0.98038511       1.54458138      -1.58086633
H       -0.11022595       2.05124406      -0.12303179
H       -2.15566937      -0.66713952       0.81486715
H       -0.82467526      -1.83716558       0.89209544
H       -0.77497426      -0.35085608       1.84414235
H        0.57277255      -0.16080930      -2.02114123
H        1.89944745      -1.83749745      -0.42225343
15
Frame=8 idx=006964 GeodesicLength=0.41618006488032716 rxn_smarts="[C:1]([C:2]1([C:3]([H:11])([H:12])[H:13])[N:4]([H:14])[C@:5]1([C:6]#[N:7])[H:15])([H:8])([H:9])[H:10]>>[C:1]([C+:2]([C:3]([H:11])([H:12])[H:13])[N:4]([C:5](=[C:6]=[N-:7])[H:15])[H:14])([H:8])([H:9])[H:10]"
C       -0.86825630       1.34810912      -0.52521461
C       -0.39907801      -0.03790930      -0.22977601
C       -1.06318105      -0.76903329       0.88741552
N        0.35439879      -0.65351018      -1.16780154
C        1.42405078      -0.86003354      -0.28449440
C        2.13775883       0.00991933       0.56111139
N        2.62160897       0.54926910       1.46321182
H       -1.82043799       1.61633058      -0.06527414
H       -1.01089549       1.52532752      -1.59376702
H       -0.12730482       2.06358936      -0.15441391
H       -2.14905835      -0.65940240       0.82581135
H       -0.82182899      -1.83022682       0.90395884
H       -0.76490039      -0.33948760       1.84730446
H        0.57784259      -0.14812983      -2.01641619
H        1.90928143      -1.81481206      -0.45165557
15
Frame=9 idx=006964 GeodesicLength=0.4660640446869046 rxn_smarts="[C:1]([C:2]1([C:3]([H:11])([H:12])[H:13])[N:4]([H:14])[C@:5]1([C:6]#[N:7])[H:15])([H:8])([H:9])[H:10]>>[C:1]([C+:2]([C:3]([H:11])([H:12])[H:13])[N:4]([C:5](=[C:6]=[N-:7])[H:15])[H:14])([H:8])([H:9])[H:10]"
C       -0.87936819       1.34445032      -0.53809535
C       -0.39231923      -0.03314673      -0.22674712
C       -1.05593994      -0.76069296       0.89323033
N        0.35260824      -0.65176280      -1.17158341
C        1.42387605      -0.84508285      -0.28810927
C        2.14460544      -0.00323935       0.58067554
N        2.63660180       0.48235393       1.50818485
H       -1.83068656       1.61362174      -0.07639281
H       -1.04128361       1.50555884      -1.60642425
H       -0.14559993       2.07601864      -0.18628877
H       -2.14172601      -0.65153549       0.83697845
H       -0.81794395      -1.82268240       0.91605449
H       -0.75413390      -0.32742939       1.85043068
H        0.58253687      -0.13547583      -2.01189879
H        1.91877291      -1.79095565      -0.48001457
15
Frame=10 idx=006964 GeodesicLength=0.5157787725469505 rxn_smarts="[C:1]([C:2]1([C:3]([H:11])([H:12])[H:13])[N:4]([H:14])[C@:5]1([C:6]#[N:7])[H:15])([H:8])([H:9])[H:10]>>[C:1]([C+:2]([C:3]([H:11])([H:12])[H:13])[N:4]([C:5](=[C:6]=[N-:7])[H:15])[H:14])([H:8])([H:9])[H:10]"
C       -0.89088000       1.34071051      -0.55053940
C       -0.38582398      -0.02796445      -0.22324012
C       -1.05025224      -0.75272404       0.89826559
N        0.35151425      -0.64937950      -1.17421096
C        1.42363796      -0.82934150      -0.28971370
C        2.15097347      -0.01636636       0.60173504
N        2.66083464       0.41522038       1.54590403
H       -1.84211462       1.61030164      -0.08838608
H       -1.07028646       1.48582930      -1.61833699
H       -0.16553231       2.08820096      -0.21668683
H       -2.13588671      -0.64443861       0.84588805
H       -0.81528718      -1.81538956       0.92733612
H       -0.74648514      -0.31604737       1.85337170
H        0.58795325      -0.12253944      -2.00617378
H        1.92763509      -1.76607196      -0.50521268
15
Frame=11 idx=006964 GeodesicLength=0.5650860759411871 rxn_smarts="[C:1]([C:2]1([C:3]([H:11])([H:12])[H:13])[N:4]([H:14])[C@:5]1([C:6]#[N:7])[H:15])([H:8])([H:9])[H:10]>>[C:1]([C+:2]([C:3]([H:11])([H:12])[H:13])[N:4]([C:5](=[C:6]=[N-:7])[H:15])[H:14])([H:8])([H:9])[H:10]"
C       -0.90281287       1.33687036      -0.56319723
C       -0.37910153      -0.02214590      -0.21979494
C       -1.04405216      -0.74430563       0.90331069
N        0.35089286      -0.64634432      -1.17667936
C        1.42393467      -0.81253249      -0.29125924
C        2.15701086      -0.03055577       0.62395306
N        2.68465272       0.34485221       1.58202152
H       -1.85424883       1.60645492      -0.10091298
H       -1.09914302       1.46556462      -1.63010039
H       -0.18683474       2.10040944      -0.24748767
H       -2.12956648      -0.63726172       0.85488310
H       -0.81183139      -1.80753496       0.93875869
H       -0.73845138      -0.30404030       1.85626503
H        0.59332248      -0.10934038      -2.00043718
H        1.93622882      -1.74009008      -0.52932309
15
Frame=12 idx=006964 GeodesicLength=0.6141936614255499 rxn_smarts="[C:1]([C:2]1([C:3]([H:11])([H:12])[H:13])[N:4]([H:14])[C@:5]1([C:6]#[N:7])[H:15])([H:8])([H:9])[H:10]>>[C:1]([C+:2]([C:3]([H:11])([H:12])[H:13])[N:4]([C:5](=[C:6]=[N-:7])[H:15])[H:14])([H:8])([H:9])[H:10]"
C       -0.91518935       1.33291958      -0.57600341
C       -0.37225357      -0.01568266      -0.21633263
C       -1.03768572      -0.73553500       0.90823789
N        0.35085006      -0.64258265      -1.17880593
C        1.42466552      -0.79464440      -0.29233961
C        2.16244296      -0.04599247       0.64773650
N        2.70982272       0.27178869       1.61537459
H       -1.86714330       1.60206885      -0.11397620
H       -1.12781022       1.44472902      -1.64167095
H       -0.20954339       2.11257594      -0.27858734
H       -2.12309857      -0.63011847       0.86359250
H       -0.80791710      -1.79921632       0.95016136
H       -0.73060188      -0.29157555       1.85908517
H        0.59890704      -0.09572280      -1.99443621
H        1.94455480      -1.71301177      -0.55203576
15
Frame=13 idx=006964 GeodesicLength=0.6634452230956813 rxn_smarts="[C:1]([C:2]1([C:3]([H:11])([H:12])[H:13])[N:4]([H:14])[C@:5]1([C:6]#[N:7])[H:15])([H:8])([H:9])[H:10]>>[C:1]([C+:2]([C:3]([H:11])([H:12])[H:13])[N:4]([C:5](=[C:6]=[N-:7])[H:15])[H:14])([H:8])([H:9])[H:10]"
C       -0.92803866       1.32885180      -0.58887894
C       -0.36544836      -0.00857900      -0.21271829
C       -1.03170763      -0.72655932       0.91286703
N        0.35153497      -0.63799887      -1.18029796
C        1.42566500      -0.77571297      -0.29230902
C        2.16681567      -0.06288749       0.67374269
N        2.73915493       0.19673499       1.64409212
H       -1.88091927       1.59712406      -0.12768493
H       -1.15611436       1.42332418      -1.65301982
H       -0.23373526       2.12462758      -0.30974892
H       -2.11702382      -0.62317218       0.87145791
H       -0.80409814      -1.79058346       0.96132696
H       -0.72383732      -0.27889837       1.86181101
H        0.60510227      -0.08148574      -1.98774866
H        1.95264998      -1.68478523      -0.57289118
15
Frame=14 idx=006964 GeodesicLength=0.7134774188715663 rxn_smarts="[C:1]([C:2]1([C:3]([H:11])([H:12])[H:13])[N:4]([H:14])[C@:5]1([C:6]#[N:7])[H:15])([H:8])([H:9])[H:10]>>[C:1]([C+:2]([C:3]([H:11])([H:12])[H:13])[N:4]([C:5](=[C:6]=[N-:7])[H:15])[H:14])([H:8])([H:9])[H:10]"
C       -0.94130434       1.32468629      -0.60161055
C       -0.35891796      -0.00087571      -0.20866842
C       -1.02708777      -0.71769235       0.91686880
N        0.35312989      -0.63249384      -1.18068061
C        1.42662662      -0.75601620      -0.29016203
C        2.16960373      -0.08161985       0.70282332
N        2.77720196       0.12165401       1.66495231
H       -1.89575696       1.59157923      -0.14229155
H       -1.18342120       1.40158691      -1.66405878
H       -0.25946991       2.13647446      -0.34026768
H       -2.11228630      -0.61668109       0.87750725
H       -0.80145164      -1.78197880       0.97178273
H       -0.71970002      -0.26658813       1.86442272
H        0.61252088      -0.06637455      -1.97964846
H        1.96031303      -1.65566037      -0.59096904
15
Frame=15 idx=006964 GeodesicLength=0.7626506658317371 rxn_smarts="[C:1]([C:2]1([C:3]([H:11])([H:12])[H:13])[N:4]([H:14])[C@:5]1([C:6]#[N:7])[H:15])([H:8])([H:9])[H:10]>>[C:1]([C+:2]([C:3]([H:11])([H:12])[H:13])[N:4]([C:5](=[C:6]=[N-:7])[H:15])[H:14])([H:8])([H:9])[H:10]"
C       -0.95494010       1.32034239      -0.61474229
C       -0.35181205       0.00771018      -0.20485525
C       -1.02081975      -0.70794698       0.92129594
N        0.35525644      -0.62614085      -1.18130973
C        1.42854132      -0.73482975      -0.28880134
C        2.17176847      -0.10331858       0.73303238
N        2.80925768       0.04286494       1.68599646
H       -1.91103010       1.58533647      -0.15713965
H       -1.21111959       1.37886336      -1.67506304
H       -0.28651693       2.14828333      -0.37206207
H       -2.10596726      -0.60985525       0.88468890
H       -0.79669068      -1.77233753       0.98295026
H       -0.71355399      -0.25291413       1.86709516
H        0.61964577      -0.05070322      -1.97204346
H        1.96798078      -1.62535438      -0.60904225
15
Frame=16 idx=006964 GeodesicLength=0.8114910708290455 rxn_smarts="[C:1]([C:2]1([C:3]([H:11])([H:12])[H:13])[N:4]([H:14])[C@:5]1([C:6]#[N:7])[H:15])([H:8])([H:9])[H:10]>>[C:1]([C+:2]([C:3]([H:11])([H:12])[H:13])[N:4]([C:5](=[C:6]=[N-:7])[H:15])[H:14])([H:8])([H:9])[H:10]"
C       -0.96903403       1.31577052      -0.62830567
C       -0.34411517       0.01727561      -0.20126360
C       -1.01286846      -0.69723537       0.92617280
N        0.35801813      -0.61884544      -1.18210330
C        1.43149075      -0.71188031      -0.28810175
C        2.17317739      -0.12812983       0.76419417
N        2.83542706      -0.04018634       1.70712244
H       -1.92687429       1.57825414      -0.17231204
H       -1.23922865       1.35500156      -1.68604079
H       -0.31509480       2.15999898      -0.40517449
H       -2.09803100      -0.60273017       0.89295580
H       -0.78964525      -1.76153519       0.99494017
H       -0.70548902      -0.23769267       1.86984021
H        0.62652806      -0.03439237      -1.96491424
H        1.97573928      -1.59367312      -0.62700969
