17
Frame=0 idx=007734 GeodesicLength=0.0 rxn_smarts="[C:1]([C:2]1=[C:3]([H:11])[C:4]([H:12])([H:13])[C:5]([H:14])([H:15])[C@:6]1([O:7][H:17])[H:16])([H:8])([H:9])[H:10]>>[C:1](=[C:2]1[C@@:3]2([H:11])[C:4]([H:12])([H:13])[C@@:5]2([H:15])[C@:6]1([O:7][H:17])[H:16])([H:8])[H:9].[H:10][H:14]"
C        2.02319797       0.06835080      -0.17579114
C        0.79228130       0.20521028       0.43463025
C        0.07764777      -0.87035276       0.92136970
C       -1.41018077      -0.76917187       0.71947100
C       -1.08258691      -0.14098442      -0.60106476
C       -0.25292197       1.07764403      -0.26308902
O       -0.89142110       2.07885074       0.50211328
H        2.65069417      -0.78747723       0.05044947
H        2.51840982       0.92429534      -0.61781080
H        1.09896658      -0.52041604      -1.50364882
H        0.55268750      -1.80468933       1.20500221
H       -1.98372006      -0.15750459       1.42437266
H       -1.88541558      -1.74606371       0.64312384
H        0.22736081      -0.70490233      -1.54837094
H       -1.71903306      -0.25091901      -1.47193778
H        0.15131841       1.57104944      -1.14540024
H       -0.86728496       1.82708059       1.42658105
17
Frame=1 idx=007734 GeodesicLength=0.09006704055762207 rxn_smarts="[C:1]([C:2]1=[C:3]([H:11])[C:4]([H:12])([H:13])[C:5]([H:14])([H:15])[C@:6]1([O:7][H:17])[H:16])([H:8])([H:9])[H:10]>>[C:1](=[C:2]1[C@@:3]2([H:11])[C:4]([H:12])([H:13])[C@@:5]2([H:15])[C@:6]1([O:7][H:17])[H:16])([H:8])[H:9].[H:10][H:14]"
C        2.02630913       0.07080392      -0.17828079
C        0.79361562       0.20460959       0.43481666
C        0.07354531      -0.87432016       0.91219490
C       -1.41460361      -0.77284615       0.71979971
C       -1.08286866      -0.14416473      -0.60039813
C       -0.25314455       1.07630547      -0.26192807
O       -0.87661635       2.08685286       0.50223686
H        2.67680783      -0.75305413       0.09692229
H        2.51695993       0.92579998      -0.62800811
H        1.11424229      -0.54560265      -1.50563119
H        0.54399047      -1.81510008       1.18257691
H       -1.97991273      -0.16527833       1.43411612
H       -1.89325841      -1.74773355       0.64069365
H        0.21632185      -0.71576170      -1.56754937
H       -1.74043445      -0.22999180      -1.45812328
H        0.14301319       1.56768601      -1.14950023
H       -0.86396685       1.83179545       1.42606208
17
Frame=2 idx=007734 GeodesicLength=0.17958953643660464 rxn_smarts="[C:1]([C:2]1=[C:3]([H:11])[C:4]([H:12])([H:13])[C:5]([H:14])([H:15])[C@:6]1([O:7][H:17])[H:16])([H:8])([H:9])[H:10]>>[C:1](=[C:2]1[C@@:3]2([H:11])[C:4]([H:12])([H:13])[C@@:5]2([H:15])[C@:6]1([O:7][H:17])[H:16])([H:8])[H:9].[H:10][H:14]"
C        2.02948006       0.07241813      -0.18075499
C        0.79500583       0.20381005       0.43503731
C        0.06940600      -0.87840132       0.90291738
C       -1.41899837      -0.77658356       0.71994648
C       -1.08314576      -0.14724477      -0.59989089
C       -0.25320757       1.07494869      -0.26065931
O       -0.86124916       2.09479912       0.50246287
H        2.70161168      -0.71565670       0.14356227
H        2.51536815       0.92629925      -0.63863657
H        1.12969123      -0.57166127      -1.50720532
H        0.53526273      -1.82537521       1.16004696
H       -1.97600090      -0.17340142       1.44374341
H       -1.90109718      -1.74942351       0.63794857
H        0.20481031      -0.72662472      -1.58714904
H       -1.76128567      -0.20869259      -1.44355498
H        0.13501182       1.56432662      -1.15331521
H       -0.86066319       1.83646320       1.42550107
17
Frame=3 idx=007734 GeodesicLength=0.26867481970782303 rxn_smarts="[C:1]([C:2]1=[C:3]([H:11])[C:4]([H:12])([H:13])[C:5]([H:14])([H:15])[C@:6]1([O:7][H:17])[H:16])([H:8])([H:9])[H:10]>>[C:1](=[C:2]1[C@@:3]2([H:11])[C:4]([H:12])([H:13])[C@@:5]2([H:15])[C@:6]1([O:7][H:17])[H:16])([H:8])[H:9].[H:10][H:14]"
C        2.03274898       0.07319991      -0.18308432
C        0.79644979       0.20281340       0.43533520
C        0.06521647      -0.88258334       0.89357123
C       -1.42337292      -0.78037834       0.71991291
C       -1.08339543      -0.15022531      -0.59953420
C       -0.25309728       1.07357382      -0.25926168
O       -0.84531495       2.10267519       0.50279438
H        2.72488363      -0.67532214       0.18986555
H        2.51364066       0.92578264      -0.64960331
H        1.14541699      -0.59851380      -1.50832072
H        0.52647704      -1.83548695       1.13752314
H       -1.97201456      -0.18187632       1.45323311
H       -1.90893467      -1.75112479       0.63488501
H        0.19282488      -0.73751748      -1.60712122
H       -1.78147083      -0.18709594      -1.42826264
H        0.12734938       1.56097615      -1.15681924
H       -0.85740717       1.84110331       1.42488681
17
Frame=4 idx=007734 GeodesicLength=0.35746702976231337 rxn_smarts="[C:1]([C:2]1=[C:3]([H:11])[C:4]([H:12])([H:13])[C:5]([H:14])([H:15])[C@:6]1([O:7][H:17])[H:16])([H:8])([H:9])[H:10]>>[C:1](=[C:2]1[C@@:3]2([H:11])[C:4]([H:12])([H:13])[C@@:5]2([H:15])[C@:6]1([O:7][H:17])[H:16])([H:8])[H:9].[H:10][H:14]"
C        2.03616055       0.07319142      -0.18513172
C        0.79793716       0.20162589       0.43575672
C        0.06096314      -0.88685583       0.88418625
C       -1.42773622      -0.78422437       0.71970152
C       -1.08360024      -0.15310447      -0.59932050
C       -0.25280596       1.07218151      -0.25771632
O       -0.82881765       2.11046744       0.50323511
H        2.74644922      -0.63214648       0.23532629
H        2.51178221       0.92426224      -0.66081277
H        1.16155167      -0.62609463      -1.50888997
H        0.51760581      -1.84541980       1.11509066
H       -1.96798347      -0.19070171       1.46257220
H       -1.91677524      -1.75282716       0.63149910
H        0.18034128      -0.74846383      -1.62742844
H       -1.80089404      -0.16527022      -1.41228005
H        0.12005425       1.55763527      -1.15999138
H       -0.85423247       1.84574472       1.42420329
17
Frame=5 idx=007734 GeodesicLength=0.4464135270761721 rxn_smarts="[C:1]([C:2]1=[C:3]([H:11])[C:4]([H:12])([H:13])[C:5]([H:14])([H:15])[C@:6]1([O:7][H:17])[H:16])([H:8])([H:9])[H:10]>>[C:1](=[C:2]1[C@@:3]2([H:11])[C:4]([H:12])([H:13])[C@@:5]2([H:15])[C@:6]1([O:7][H:17])[H:16])([H:8])[H:9].[H:10][H:14]"
C        2.03976257       0.07251808      -0.18679766
C        0.79946365       0.20024255       0.43629875
C        0.05666428      -0.89123960       0.87472724
C       -1.43208562      -0.78812077       0.71933539
C       -1.08378942      -0.15587252      -0.59922632
C       -0.25233035       1.07077140      -0.25604236
O       -0.81174173       2.11818487       0.50375434
H        2.76621209      -0.58638531       0.27985987
H        2.50980084       0.92186670      -0.67215762
H        1.17828432      -0.65429286      -1.50893654
H        0.50868374      -1.85521415       1.09271254
H       -1.96387377      -0.19988026       1.47178743
H       -1.92464043      -1.75452580       0.62782730
H        0.16719895      -0.75951713      -1.64807491
H       -1.81959993      -0.14324932      -1.39561070
H        0.11313093       1.55429023      -1.16286613
H       -0.85114013       1.85042390       1.42340938
17
Frame=6 idx=007734 GeodesicLength=0.5354233544262623 rxn_smarts="[C:1]([C:2]1=[C:3]([H:11])[C:4]([H:12])([H:13])[C:5]([H:14])([H:15])[C@:6]1([O:7][H:17])[H:16])([H:8])([H:9])[H:10]>>[C:1](=[C:2]1[C@@:3]2([H:11])[C:4]([H:12])([H:13])[C@@:5]2([H:15])[C@:6]1([O:7][H:17])[H:16])([H:8])[H:9].[H:10][H:14]"
C        2.04357500       0.07122750      -0.18794636
C        0.80101186       0.19867998       0.43702348
C        0.05229302      -0.89571225       0.86523896
C       -1.43643731      -0.79205926       0.71880774
C       -1.08393900      -0.15852269      -0.59925076
C       -0.25167169       1.06935396      -0.25420274
O       -0.79411538       2.12580719       0.50438081
H        2.78406977      -0.53811311       0.32285073
H        2.50770103       0.91855188      -0.68358432
H        1.19577241      -0.68311333      -1.50825864
H        0.49965195      -1.86484542       1.07048204
H       -1.95973745      -0.20941324       1.48085911
H       -1.93253119      -1.75621018       0.62384335
H        0.15339515      -0.77066589      -1.66904146
H       -1.83745892      -0.12109429      -1.37830625
H        0.10659720       1.55096005      -1.16539947
H       -0.84817647       1.85516910       1.42250379
17
Frame=7 idx=007734 GeodesicLength=0.6246334146041433 rxn_smarts="[C:1]([C:2]1=[C:3]([H:11])[C:4]([H:12])([H:13])[C:5]([H:14])([H:15])[C@:6]1([O:7][H:17])[H:16])([H:8])([H:9])[H:10]>>[C:1](=[C:2]1[C@@:3]2([H:11])[C:4]([H:12])([H:13])[C@@:5]2([H:15])[C@:6]1([O:7][H:17])[H:16])([H:8])[H:9].[H:10][H:14]"
C        2.04761943       0.06943120      -0.18846956
C        0.80257013       0.19695040       0.43795716
C        0.04784735      -0.90026883       0.85571900
C       -1.44079678      -0.79603458       0.71812749
C       -1.08405670      -0.16104393      -0.59937946
C       -0.25083487       1.06793778      -0.25218843
O       -0.77595707       2.13333175       0.50511533
H        2.79995921      -0.48755745       0.36397680
H        2.50548697       0.91438281      -0.69502819
H        1.21422857      -0.71254286      -1.50671982
H        0.49050143      -1.87432286       1.04840528
H       -1.95558035      -0.21930518       1.48979319
H       -1.94045663      -1.75787198       0.61955245
H        0.13882572      -0.78190243      -1.69034413
H       -1.85444337      -0.09885046      -1.36039506
H        0.10045176       1.54765197      -1.16758809
H       -0.84536480       1.86001467       1.42146605
17
Frame=8 idx=007734 GeodesicLength=0.7141918354405176 rxn_smarts="[C:1]([C:2]1=[C:3]([H:11])[C:4]([H:12])([H:13])[C:5]([H:14])([H:15])[C@:6]1([O:7][H:17])[H:16])([H:8])([H:9])[H:10]>>[C:1](=[C:2]1[C@@:3]2([H:11])[C:4]([H:12])([H:13])[C@@:5]2([H:15])[C@:6]1([O:7][H:17])[H:16])([H:8])[H:9].[H:10][H:14]"
C        2.05192885       0.06726179      -0.18826539
C        0.80411867       0.19506403       0.43911471
C        0.04332682      -0.90491337       0.84614473
C       -1.44516810      -0.80004218       0.71730476
C       -1.08416042      -0.16341983      -0.59959940
C       -0.24982849       1.06652905      -0.24999864
O       -0.75728593       2.14074682       0.50595686
H        2.81387996      -0.43493333       0.40300337
H        2.50316637       0.90943463      -0.70642690
H        1.23387396      -0.74262435      -1.50414132
H        0.48122694      -1.88366415       1.02644117
H       -1.95139794      -0.22956280       1.49860800
H       -1.94842851      -1.75949864       0.61496252
H        0.12333122      -0.79319032      -1.71204387
H       -1.87055566      -0.07655009      -1.34189185
H        0.09468866       1.54436637      -1.16943853
H       -0.84271640       1.86499638       1.42026978
17
Frame=9 idx=007734 GeodesicLength=0.8046581432341411 rxn_smarts="[C:1]([C:2]1=[C:3]([H:11])[C:4]([H:12])([H:13])[C:5]([H:14])([H:15])[C@:6]1([O:7][H:17])[H:16])([H:8])([H:9])[H:10]>>[C:1](=[C:2]1[C@@:3]2([H:11])[C:4]([H:12])([H:13])[C@@:5]2([H:15])[C@:6]1([O:7][H:17])[H:16])([H:8])[H:9].[H:10][H:14]"
C        2.05653927       0.06487602      -0.18726627
C        0.80565516       0.19299204       0.44044707
C        0.03876067      -0.90969875       0.83640571
C       -1.44953777      -0.80408725       0.71637480
C       -1.08431853      -0.16562849      -0.59987640
C       -0.24864976       1.06511878      -0.24768096
O       -0.73806538       2.14805611       0.50685140
H        2.82584201      -0.38038461       0.44020030
H        2.50075108       0.90384267      -0.71768853
H        1.25506318      -0.77340833      -1.50052121
H        0.47187085      -1.89294633       1.00441025
H       -1.94708991      -0.24020084       1.50736944
H       -1.95648425      -1.76107451       0.61013437
H        0.10649705      -0.80450442      -1.73424118
H       -1.88594044      -0.05416974      -1.32275683
H        0.08929792       1.54107459      -1.17102626
H       -0.84019116       1.87014304       1.41886429
17
Frame=10 idx=007734 GeodesicLength=0.8955096342144587 rxn_smarts="[C:1]([C:2]1=[C:3]([H:11])[C:4]([H:12])([H:13])[C:5]([H:14])([H:15])[C@:6]1([O:7][H:17])[H:16])([H:8])([H:9])[H:10]>>[C:1](=[C:2]1[C@@:3]2([H:11])[C:4]([H:12])([H:13])[C@@:5]2([H:15])[C@:6]1([O:7][H:17])[H:16])([H:8])[H:9].[H:10][H:14]"
C        2.06145279       0.06234467      -0.18538103
C        0.80715504       0.19077221       0.44201466
C        0.03412489      -0.91458728       0.82654040
C       -1.45391964      -0.80816242       0.71531830
C       -1.08450843      -0.16765240      -0.60021703
C       -0.24731519       1.06373101      -0.24518706
O       -0.71836466       2.15523710       0.50785663
H        2.83585095      -0.32407590       0.47502171
H        2.49823910       0.89757624      -0.72884177
H        1.27793674      -0.80501525      -1.49549693
H        0.46238775      -1.90213427       0.98236684
H       -1.94272009      -0.25123309       1.51604816
H       -1.96460859      -1.76259532       0.60501636
H        0.08832683      -0.81574117      -1.75698576
H       -1.90048098      -0.03176755      -1.30304901
H        0.08427276       1.53781882      -1.17228903
H       -0.83782929       1.87548459       1.41726456
17
Frame=11 idx=007734 GeodesicLength=0.9866716872038369 rxn_smarts="[C:1]([C:2]1=[C:3]([H:11])[C:4]([H:12])([H:13])[C:5]([H:14])([H:15])[C@:6]1([O:7][H:17])[H:16])([H:8])([H:9])[H:10]>>[C:1](=[C:2]1[C@@:3]2([H:11])[C:4]([H:12])([H:13])[C@@:5]2([H:15])[C@:6]1([O:7][H:17])[H:16])([H:8])[H:9].[H:10][H:14]"
C        2.06667885       0.05978213      -0.18256269
C        0.80860979       0.18841391       0.44380784
C        0.02943163      -0.91958125       0.81649976
C       -1.45830593      -0.81227006       0.71413928
C       -1.08475506      -0.16946783      -0.60060800
C       -0.24583503       1.06237899      -0.24251965
O       -0.69820539       2.16228045       0.50897860
H        2.84391838      -0.26616619       0.50741296
H        2.49563076       0.89066985      -0.73988280
H        1.30275092      -0.83756838      -1.48883912
H        0.45278897      -1.91124020       0.96023481
H       -1.93825703      -0.26268517       1.52466108
H       -1.97280115      -1.76405510       0.59961078
H        0.06858682      -0.82680320      -1.78037843
H       -1.91420637      -0.00935392      -1.28277683
H        0.07959357       1.53461873      -1.17323578
H       -0.83562374       1.88104724       1.41545820
17
Frame=12 idx=007734 GeodesicLength=1.0781064597724912 rxn_smarts="[C:1]([C:2]1=[C:3]([H:11])[C:4]([H:12])([H:13])[C:5]([H:14])([H:15])[C@:6]1([O:7][H:17])[H:16])([H:8])([H:9])[H:10]>>[C:1](=[C:2]1[C@@:3]2([H:11])[C:4]([H:12])([H:13])[C@@:5]2([H:15])[C@:6]1([O:7][H:17])[H:16])([H:8])[H:9].[H:10][H:14]"
C        2.07223881       0.05730132      -0.17877064
C        0.81000584       0.18591554       0.44580684
C        0.02469238      -0.92469951       0.80621176
C       -1.46268783      -0.81641650       0.71284131
C       -1.08509421      -0.17104718      -0.60103999
C       -0.24421696       1.06106854      -0.23969025
O       -0.67760396       2.16917001       0.51021975
H        2.85007459      -0.20671951       0.53738755
H        2.49294046       0.88315740      -0.75081066
H        1.32978880      -0.87126904      -1.48025351
H        0.44308949      -1.92029273       0.93789834
H       -1.93365739      -0.27458755       1.53323301
H       -1.98106837      -1.76544602       0.59391791
H        0.04697021      -0.83755304      -1.80457296
H       -1.92717744       0.01308368      -1.26192362
H        0.07524601       1.53148075      -1.17388377
H       -0.83354043       1.88685383       1.41342894
17
Frame=13 idx=007734 GeodesicLength=1.170006599218371 rxn_smarts="[C:1]([C:2]1=[C:3]([H:11])[C:4]([H:12])([H:13])[C:5]([H:14])([H:15])[C@:6]1([O:7][H:17])[H:16])([H:8])([H:9])[H:10]>>[C:1](=[C:2]1[C@@:3]2([H:11])[C:4]([H:12])([H:13])[C@@:5]2([H:15])[C@:6]1([O:7][H:17])[H:16])([H:8])[H:9].[H:10][H:14]"
C        2.07814235       0.05501433      -0.17404139
C        0.81134670       0.18324314       0.44794449
C        0.01993862      -0.92999965       0.79553758
C       -1.46703921      -0.82062166       0.71144006
C       -1.08559940      -0.17235161      -0.60149585
C       -0.24245515       1.05979799      -0.23674516
O       -0.65651074       2.17590265       0.51154798
H        2.85435100      -0.14564872       0.56533077
H        2.49020547       0.87504320      -0.76160362
H        1.35946565      -0.90632896      -1.46952495
H        0.43332920      -1.92936037       0.91515123
H       -1.92879801      -0.28698825       1.54182152
H       -1.98943291      -1.76676914       0.58796274
H        0.02291669      -0.84786765      -1.82973523
H       -1.93954583       0.03561911      -1.24042428
H        0.07122168       1.52839998      -1.17429786
H       -0.83153611       1.89291561       1.41113199
17
Frame=14 idx=007734 GeodesicLength=1.2616808636319354 rxn_smarts="[C:1]([C:2]1=[C:3]([H:11])[C:4]([H:12])([H:13])[C:5]([H:14])([H:15])[C@:6]1([O:7][H:17])[H:16])([H:8])([H:9])[H:10]>>[C:1](=[C:2]1[C@@:3]2([H:11])[C:4]([H:12])([H:13])[C@@:5]2([H:15])[C@:6]1([O:7][H:17])[H:16])([H:8])[H:9].[H:10][H:14]"
C        2.08440629       0.05298419      -0.16826315
C        0.81261364       0.18043050       0.45026102
C        0.01516283      -0.93544813       0.78448184
C       -1.47136077      -0.82488597       0.70990785
C       -1.08624872      -0.17336125      -0.60198357
C       -0.24056240       1.05858947      -0.23364410
O       -0.63500909       2.18245208       0.51302152
H        2.85669808      -0.08307573       0.59076789
H        2.48740105       0.86627436      -0.77233416
H        1.39194523      -0.94292753      -1.45617713
H        0.42349346      -1.93840711       0.89200573
H       -1.92371942      -0.29992095       1.55038731
H       -1.99786798      -1.76802128       0.58168876
H       -0.00363766      -0.85756080      -1.85598081
H       -1.95122980       0.05820537      -1.21831925
H        0.06751713       1.52542020      -1.17441981
H       -0.82960187       1.89925260       1.40860007
17
Frame=15 idx=007734 GeodesicLength=1.3529395599377283 rxn_smarts="[C:1]([C:2]1=[C:3]([H:11])[C:4]([H:12])([H:13])[C:5]([H:14])([H:15])[C@:6]1([O:7][H:17])[H:16])([H:8])([H:9])[H:10]>>[C:1](=[C:2]1[C@@:3]2([H:11])[C:4]([H:12])([H:13])[C@@:5]2([H:15])[C@:6]1([O:7][H:17])[H:16])([H:8])[H:9].[H:10][H:14]"
C        2.09104024       0.05130321      -0.16142468
C        0.81380645       0.17747658       0.45272551
C        0.01038873      -0.94105849       0.77295393
C       -1.47562828      -0.82922482       0.70823902
C       -1.08707441      -0.17404282      -0.60249677
C       -0.23854072       1.05745430      -0.23040182
O       -0.61310948       2.18880805       0.51464085
H        2.85708081      -0.01900535       0.61375354
H        2.48453789       0.85680797      -0.78302705
H        1.42757239      -0.98128234      -1.43984761
H        0.41361128      -1.94744722       0.86833819
H       -1.91835255      -0.31343847       1.55894227
H       -2.00636377      -1.76920619       0.57508750
H       -0.03310079      -0.86644806      -1.88345653
H       -1.96228609       0.08086538      -1.19558344
H        0.06412299       1.52256305      -1.17426847
H       -0.82770469       1.90587522       1.40582558
17
Frame=16 idx=007734 GeodesicLength=1.4435580758817048 rxn_smarts="[C:1]([C:2]1=[C:3]([H:11])[C:4]([H:12])([H:13])[C:5]([H:14])([H:15])[C@:6]1([O:7][H:17])[H:16])([H:8])([H:9])[H:10]>>[C:1](=[C:2]1[C@@:3]2([H:11])[C:4]([H:12])([H:13])[C@@:5]2([H:15])[C@:6]1([O:7][H:17])[H:16])([H:8])[H:9].[H:10][H:14]"
C        2.09806083       0.05005323      -0.15350079
C        0.81492125       0.17437664       0.45530790
C        0.00563828      -0.94684777       0.76085721
C       -1.47981598      -0.83365701       0.70641851
C       -1.08810558      -0.17436329      -0.60303722
C       -0.23639005       1.05640028      -0.22703205
O       -0.59082958       2.19495377       0.51641115
H        2.85544798       0.04662045       0.63428333
H        2.48163118       0.84657527      -0.79371110
H        1.46667961      -1.02163669      -1.42008268
H        0.40370860      -1.95649659       0.84402373
H       -1.91262988      -0.32759978       1.56748859
H       -2.01490695      -1.77032898       0.56813588
H       -0.06589324      -0.87431335      -1.91233171
H       -1.97276682       0.10362772      -1.17218138
H        0.06103821       1.51984638      -1.17385622
H       -0.82578785       1.91278973       1.40280684
