15
Frame=0 idx=007367 GeodesicLength=0.0 rxn_smarts="[C:1]1([H:8])([H:9])[C:2]([H:10])([H:11])[C:3]12[C:4]([H:12])([H:13])[C@@:5]1([H:14])[O:6][C@@:7]21[H:15]>>[C:1]1([H:8])=[C:3]([C:7]([O:6][C:5](=[C:4]([H:12])[H:13])[H:14])([H:9])[H:15])[C:2]1([H:10])[H:11]"
C       -1.48843365       0.22226986      -0.84009113
C       -1.66001762      -0.12099823       0.60957024
C       -0.30007140      -0.09906397      -0.01815775
C        0.85317476      -1.12832358      -0.07792816
C        1.89031204      -0.06458142      -0.03558584
O        1.62990837       0.95205447      -0.83501665
C        0.40641817       1.21477889      -0.00568789
H       -1.96863996      -0.33058300      -1.63981088
H       -0.56618973       1.62820312      -0.70314199
H       -1.94692607       0.64210546       1.32855609
H       -2.03788315      -1.10895349       0.86211180
H        0.92056829      -1.81642221       0.76383247
H        0.86467500      -1.68648794      -1.01746097
H        2.72359486       0.00906062       0.66094010
H        0.67951003       1.68694137       0.94787061
15
Frame=1 idx=007367 GeodesicLength=0.09829178071575613 rxn_smarts="[C:1]1([H:8])([H:9])[C:2]([H:10])([H:11])[C:3]12[C:4]([H:12])([H:13])[C@@:5]1([H:14])[O:6][C@@:7]21[H:15]>>[C:1]1([H:8])=[C:3]([C:7]([O:6][C:5](=[C:4]([H:12])[H:13])[H:14])([H:9])[H:15])[C:2]1([H:10])[H:11]"
C       -1.49641845       0.22127248      -0.83209518
C       -1.66548798      -0.12123868       0.61864458
C       -0.30960225      -0.09124491      -0.01429172
C        0.86402971      -1.13432631      -0.08300955
C        1.89112191      -0.06814717      -0.01746337
O        1.64746124       0.95496594      -0.81886553
C        0.41547082       1.21237635      -0.01432680
H       -1.97886803      -0.32799208      -1.63239635
H       -0.56579759       1.62417987      -0.73440257
H       -1.95560203       0.64289424       1.33518171
H       -2.03533932      -1.11110220       0.87523061
H        0.93122562      -1.83936464       0.74434971
H        0.86661407      -1.67133570      -1.03432951
H        2.72562455      -0.00443415       0.67785038
H        0.66556773       1.71349696       0.92992358
15
Frame=2 idx=007367 GeodesicLength=0.1965888968888115 rxn_smarts="[C:1]1([H:8])([H:9])[C:2]([H:10])([H:11])[C:3]12[C:4]([H:12])([H:13])[C@@:5]1([H:14])[O:6][C@@:7]21[H:15]>>[C:1]1([H:8])=[C:3]([C:7]([O:6][C:5](=[C:4]([H:12])[H:13])[H:14])([H:9])[H:15])[C:2]1([H:10])[H:11]"
C       -1.50448179       0.22060831      -0.82384206
C       -1.67109991      -0.12144930       0.62791609
C       -0.31930061      -0.08303966      -0.01007422
C        0.87515744      -1.14043572      -0.08825152
C        1.89164544      -0.07184564       0.00098360
O        1.66500414       0.95793664      -0.80191096
C        0.42463215       1.20978030      -0.02251363
H       -1.98900568      -0.32508344      -1.62480922
H       -0.56510644       1.61917146      -0.76653306
H       -1.96458396       0.64351180       1.34214511
H       -2.03269276      -1.11328731       0.88833550
H        0.94231270      -1.86233254       0.72415624
H        0.86854278      -1.65557363      -1.05104809
H        2.72753548      -0.01835998       0.69479470
H        0.65144103       1.74039869       0.91065152
15
Frame=3 idx=007367 GeodesicLength=0.29478279933734947 rxn_smarts="[C:1]1([H:8])([H:9])[C:2]([H:10])([H:11])[C:3]12[C:4]([H:12])([H:13])[C@@:5]1([H:14])[O:6][C@@:7]21[H:15]>>[C:1]1([H:8])=[C:3]([C:7]([O:6][C:5](=[C:4]([H:12])[H:13])[H:14])([H:9])[H:15])[C:2]1([H:10])[H:11]"
C       -1.51258181       0.22031237      -0.81531765
C       -1.67688053      -0.12164885       0.63734244
C       -0.32916669      -0.07442484      -0.00546497
C        0.88654712      -1.14661528      -0.09362226
C        1.89185721      -0.07566395       0.01967295
O        1.68247524       0.96096571      -0.78414697
C        0.43393080       1.20696075      -0.03017427
H       -1.99895819      -0.32180811      -1.61705643
H       -0.56409794       1.61312470      -0.79942900
H       -1.97390461       0.64388655       1.34941346
H       -2.02999802      -1.11551312       0.90131401
H        0.95382522      -1.88518037       0.70334209
H        0.87041261      -1.63924866      -1.06747164
H        2.72936513      -0.03268676       0.71155628
H        0.63717445       1.76753984       0.89004196
15
Frame=4 idx=007367 GeodesicLength=0.39296190548657556 rxn_smarts="[C:1]1([H:8])([H:9])[C:2]([H:10])([H:11])[C:3]12[C:4]([H:12])([H:13])[C@@:5]1([H:14])[O:6][C@@:7]21[H:15]>>[C:1]1([H:8])=[C:3]([C:7]([O:6][C:5](=[C:4]([H:12])[H:13])[H:14])([H:9])[H:15])[C:2]1([H:10])[H:11]"
C       -1.52073254       0.22043084      -0.80655097
C       -1.68285561      -0.12182976       0.64692056
C       -0.33921871      -0.06535749      -0.00045191
C        0.89823361      -1.15287559      -0.09911174
C        1.89176961      -0.07962623       0.03859046
O        1.69981929       0.96407480      -0.76556511
C        0.44333998       1.20395761      -0.03723722
H       -2.00871697      -0.31813788      -1.60919394
H       -0.56277663       1.60597689      -0.83307266
H       -1.98361732       0.64402698       1.35701168
H       -2.02725225      -1.11779931       0.91414486
H        0.96583349      -1.90789304       0.68194471
H        0.87219889      -1.62239810      -1.08356687
H        2.73118193      -0.04745122       0.72807883
H        0.62279322       1.79490150       0.86805933
15
Frame=5 idx=007367 GeodesicLength=0.49112217352466814 rxn_smarts="[C:1]1([H:8])([H:9])[C:2]([H:10])([H:11])[C:3]12[C:4]([H:12])([H:13])[C@@:5]1([H:14])[O:6][C@@:7]21[H:15]>>[C:1]1([H:8])=[C:3]([C:7]([O:6][C:5](=[C:4]([H:12])[H:13])[H:14])([H:9])[H:15])[C:2]1([H:10])[H:11]"
C       -1.52892272       0.22099650      -0.79754320
C       -1.68904002      -0.12199467       0.65664183
C       -0.34946233      -0.05579879       0.00499065
C        0.91022623      -1.15920391      -0.10472326
C        1.89137393      -0.08373921       0.05772146
O        1.71699845       0.96727582      -0.74613721
C        0.45286285       1.20078554      -0.04363806
H       -2.01825437      -0.31405016      -1.60123048
H       -0.56112156       1.59764450      -0.86743866
H       -1.99375317       0.64391248       1.36494294
H       -2.02446176      -1.12015713       0.92679505
H        0.97835580      -1.93043032       0.65997490
H        0.87387124      -1.60503103      -1.09928604
H        2.73300699      -0.06266104       0.74428869
H        0.60832043       1.82245142       0.84464139
15
Frame=6 idx=007367 GeodesicLength=0.5893336115413518 rxn_smarts="[C:1]1([H:8])([H:9])[C:2]([H:10])([H:11])[C:3]12[C:4]([H:12])([H:13])[C@@:5]1([H:14])[O:6][C@@:7]21[H:15]>>[C:1]1([H:8])=[C:3]([C:7]([O:6][C:5](=[C:4]([H:12])[H:13])[H:14])([H:9])[H:15])[C:2]1([H:10])[H:11]"
C       -1.53715274       0.22205092      -0.78830950
C       -1.69544949      -0.12213915       0.66650557
C       -0.35990357      -0.04570571       0.01089164
C        0.92254719      -1.16560816      -0.11046530
C        1.89067095      -0.08801907       0.07705974
O        1.73396834       0.97058620      -0.72584018
C        0.46249301       1.19747492      -0.04930476
H       -2.02755784      -0.30952258      -1.59320274
H       -0.55913264       1.58805935      -0.90251320
H       -2.00435095       0.64354327       1.37322808
H       -2.02162207      -1.12260392       0.93924333
H        0.99143357      -1.95278990       0.63744750
H        0.87540526      -1.58718179      -1.11460550
H        2.73487593      -0.07833194       0.76013435
H        0.59377503       1.85018756       0.81973095
15
Frame=7 idx=007367 GeodesicLength=0.6871796337035796 rxn_smarts="[C:1]1([H:8])([H:9])[C:2]([H:10])([H:11])[C:3]12[C:4]([H:12])([H:13])[C@@:5]1([H:14])[O:6][C@@:7]21[H:15]>>[C:1]1([H:8])=[C:3]([C:7]([O:6][C:5](=[C:4]([H:12])[H:13])[H:14])([H:9])[H:15])[C:2]1([H:10])[H:11]"
C       -1.54537720       0.22358237      -0.77880759
C       -1.70211355      -0.12227565       0.67642965
C       -0.37056712      -0.03501418       0.01723087
C        0.93517531      -1.17194784      -0.11629573
C        1.88964613      -0.09244506       0.09654399
O        1.75070048       0.97394683      -0.70465450
C        0.47223964       1.19399411      -0.05419759
H       -2.03654319      -0.30454855      -1.58497275
H       -0.55670697       1.57701196      -0.93808023
H       -2.01546183       0.64281597       1.38172245
H       -2.01877781      -1.12507852       0.95138609
H        1.00501215      -1.97469446       0.61436701
H        0.87672344      -1.56870043      -1.12932855
H        2.73679758      -0.09442251       0.77540267
H        0.57925294       1.87777596       0.79325422
15
Frame=8 idx=007367 GeodesicLength=0.7853585282639766 rxn_smarts="[C:1]1([H:8])([H:9])[C:2]([H:10])([H:11])[C:3]12[C:4]([H:12])([H:13])[C@@:5]1([H:14])[O:6][C@@:7]21[H:15]>>[C:1]1([H:8])=[C:3]([C:7]([O:6][C:5](=[C:4]([H:12])[H:13])[H:14])([H:9])[H:15])[C:2]1([H:10])[H:11]"
C       -1.55366704       0.22568476      -0.76910244
C       -1.70902131      -0.12237096       0.68652924
C       -0.38144395      -0.02368859       0.02409330
C        0.94819728      -1.17838933      -0.12232159
C        1.88833382      -0.09710539       0.11627905
O        1.76716761       0.97742968      -0.68250867
C        0.48206096       1.19046640      -0.05820137
H       -2.04532207      -0.29911144      -1.57673181
H       -0.55396067       1.56454746      -0.97444431
H       -2.02712834       0.64186437       1.39063181
H       -2.01582245      -1.12767249       0.96335109
H        1.01925586      -1.99649182       0.59064994
H        0.87787405      -1.54976262      -1.14368216
H        2.73880569      -0.11105085       0.79032722
H        0.56467057       1.90565081       0.76513070
15
Frame=9 idx=007367 GeodesicLength=0.8831827849463054 rxn_smarts="[C:1]1([H:8])([H:9])[C:2]([H:10])([H:11])[C:3]12[C:4]([H:12])([H:13])[C@@:5]1([H:14])[O:6][C@@:7]21[H:15]>>[C:1]1([H:8])=[C:3]([C:7]([O:6][C:5](=[C:4]([H:12])[H:13])[H:14])([H:9])[H:15])[C:2]1([H:10])[H:11]"
C       -1.56192936       0.22834708      -0.75905932
C       -1.71616749      -0.12246486       0.69672543
C       -0.39252967      -0.01168878       0.03148338
C        0.96153499      -1.18472865      -0.12857050
C        1.88663677      -0.10190993       0.13622350
O        1.78338508       0.98101097      -0.65929610
C        0.49203807       1.18675823      -0.06128740
H       -2.05381892      -0.29314482      -1.56819645
H       -0.55064392       1.55026059      -1.01132656
H       -2.03930998       0.64048942       1.39982149
H       -2.01280998      -1.13030623       0.97500750
H        1.03398921      -2.01787945       0.56618492
H        0.87878911      -1.53013308      -1.15750501
H        2.74067976      -0.12805692       0.80481943
H        0.55015634       1.93344644       0.73497570
15
Frame=10 idx=007367 GeodesicLength=0.981111538003876 rxn_smarts="[C:1]1([H:8])([H:9])[C:2]([H:10])([H:11])[C:3]12[C:4]([H:12])([H:13])[C@@:5]1([H:14])[O:6][C@@:7]21[H:15]>>[C:1]1([H:8])=[C:3]([C:7]([O:6][C:5](=[C:4]([H:12])[H:13])[H:14])([H:9])[H:15])[C:2]1([H:10])[H:11]"
C       -1.57022930       0.23164823      -0.74877701
C       -1.72358281      -0.12251631       0.70704636
C       -0.40385175       0.00106509       0.03943052
C        0.97528710      -1.19106203      -0.13504939
C        1.88463305      -0.10695748       0.15638425
O        1.79927533       0.98468560      -0.63505159
C        0.50209314       1.18301309      -0.06334033
H       -2.06207366      -0.28664644      -1.55955489
H       -0.54691053       1.53420358      -1.04877731
H       -2.05211777       0.63879256       1.40937248
H       -2.00968392      -1.13302250       0.98638256
H        1.04940005      -2.03897439       0.54101988
H        0.87946268      -1.50996255      -1.17083348
H        2.74257627      -0.14553244       0.81888715
H        0.53572211       1.96126598       0.70286080
15
Frame=11 idx=007367 GeodesicLength=1.079049188728419 rxn_smarts="[C:1]1([H:8])([H:9])[C:2]([H:10])([H:11])[C:3]12[C:4]([H:12])([H:13])[C@@:5]1([H:14])[O:6][C@@:7]21[H:15]>>[C:1]1([H:8])=[C:3]([C:7]([O:6][C:5](=[C:4]([H:12])[H:13])[H:14])([H:9])[H:15])[C:2]1([H:10])[H:11]"
C       -1.57853585       0.23561852      -0.73823893
C       -1.73127687      -0.12253504       0.71746877
C       -0.41541801       0.01463684       0.04796810
C        0.98944870      -1.19733721      -0.14177552
C        1.88230004      -0.11225121       0.17673411
O        1.81479492       0.98844986      -0.60974503
C        0.51223706       1.17924708      -0.06426090
H       -2.07003376      -0.27959638      -1.55077247
H       -0.54270951       1.51622236      -1.08666553
H       -2.06559315       0.63671619       1.41925277
H       -2.00644521      -1.13582006       0.99742640
H        1.06547628      -2.05969423       0.51512762
H        0.87983563      -1.48921482      -1.18359921
H        2.74445494      -0.16343413       0.83246416
H        0.52146478       1.98899224       0.66861565
15
Frame=12 idx=007367 GeodesicLength=1.1769803665705603 rxn_smarts="[C:1]1([H:8])([H:9])[C:2]([H:10])([H:11])[C:3]12[C:4]([H:12])([H:13])[C@@:5]1([H:14])[O:6][C@@:7]21[H:15]>>[C:1]1([H:8])=[C:3]([C:7]([O:6][C:5](=[C:4]([H:12])[H:13])[H:14])([H:9])[H:15])[C:2]1([H:10])[H:11]"
C       -1.58683667       0.24029951      -0.72744474
C       -1.73926045      -0.12251845       0.72797122
C       -0.42723966       0.02909945       0.05712774
C        1.00403701      -1.20351963      -0.14877372
C        1.87963888      -0.11780927       0.19724244
O        1.82989751       0.99229018      -0.58336560
C        0.52246549       1.17549094      -0.06393745
H       -2.07766916      -0.27197189      -1.54184301
H       -0.53804106       1.49618725      -1.12484597
H       -2.07979406       0.63422486       1.42943853
H       -2.00307630      -1.13869322       1.00809235
H        1.08223976      -2.07997830       0.48848770
H        0.87985722      -1.46788875      -1.19575259
H        2.74629081      -0.18171759       0.84552263
H        0.50749067       2.01650490       0.63208048
15
Frame=13 idx=007367 GeodesicLength=1.2749045237895202 rxn_smarts="[C:1]1([H:8])([H:9])[C:2]([H:10])([H:11])[C:3]12[C:4]([H:12])([H:13])[C@@:5]1([H:14])[O:6][C@@:7]21[H:15]>>[C:1]1([H:8])=[C:3]([C:7]([O:6][C:5](=[C:4]([H:12])[H:13])[H:14])([H:9])[H:15])[C:2]1([H:10])[H:11]"
C       -1.59512228       0.24573277      -0.71639738
C       -1.74753879      -0.12246269       0.73853444
C       -0.43932835       0.04453327       0.06693908
C        1.01907192      -1.20957597      -0.15607811
C        1.87665143      -0.12365403       0.21787577
O        1.84453765       0.99619044      -0.55591040
C        0.53277201       1.17178566      -0.06225271
H       -2.08495579      -0.26375500      -1.53276271
H       -0.53291663       1.47397874      -1.16315926
H       -2.09477867       0.63128443       1.43990750
H       -1.99954640      -1.14163667       1.01834048
H        1.09971450      -2.09977212       0.46107005
H        0.87947684      -1.44598449      -1.20725278
H        2.74804002      -0.20032992       0.85806656
H        0.49392256       2.04366558       0.59307944
15
Frame=14 idx=007367 GeodesicLength=1.37282621159304 rxn_smarts="[C:1]1([H:8])([H:9])[C:2]([H:10])([H:11])[C:3]12[C:4]([H:12])([H:13])[C@@:5]1([H:14])[O:6][C@@:7]21[H:15]>>[C:1]1([H:8])=[C:3]([C:7]([O:6][C:5](=[C:4]([H:12])[H:13])[H:14])([H:9])[H:15])[C:2]1([H:10])[H:11]"
C       -1.60338459       0.25195838      -0.70510106
C       -1.75611102      -0.12236318       0.74913888
C       -0.45169714       0.06102726       0.07743056
C        1.03457423      -1.21546985      -0.16373128
C        1.87333935      -0.12980803       0.23859856
O        1.85867295       1.00013150      -0.52738489
C        0.54314766       1.16818033      -0.05908240
H       -2.09187220      -0.25493258      -1.52352766
H       -0.52736349       1.44948629      -1.20142586
H       -2.11060581       0.62785870       1.45063329
H       -1.99581140      -1.14464345       1.02813403
H        1.11792402      -2.11902166       0.43283438
H        0.87863836      -1.42350112      -1.21806375
H        2.74964286      -0.21920759       0.87012904
H        0.48090622       2.07030500       0.55141816
15
Frame=15 idx=007367 GeodesicLength=1.470753232314291 rxn_smarts="[C:1]1([H:8])([H:9])[C:2]([H:10])([H:11])[C:3]12[C:4]([H:12])([H:13])[C@@:5]1([H:14])[O:6][C@@:7]21[H:15]>>[C:1]1([H:8])=[C:3]([C:7]([O:6][C:5](=[C:4]([H:12])[H:13])[H:14])([H:9])[H:15])[C:2]1([H:10])[H:11]"
C       -1.61161847       0.25901396      -0.69356015
C       -1.76496805      -0.12221357       0.75976533
C       -0.46436064       0.07868055       0.08862698
C        1.05056645      -1.22115845      -0.17178724
C        1.86970001      -0.13629366       0.25937473
O        1.87226491       1.00408998      -0.49779920
C        0.55358060       1.16473289      -0.05429774
H       -2.09840318      -0.24549796      -1.51412944
H       -0.52142359       1.42260713      -1.23945019
H       -2.12733263       0.62390912       1.46158549
H       -1.99180909      -1.14770221       1.03744240
H        1.13689100      -2.13766957       0.40372380
H        0.87728508      -1.40043009      -1.22815478
H        2.75101717      -0.23827989       0.88177899
H        0.46861044       2.09621178       0.50688101
15
Frame=16 idx=007367 GeodesicLength=1.5686956205696099 rxn_smarts="[C:1]1([H:8])([H:9])[C:2]([H:10])([H:11])[C:3]12[C:4]([H:12])([H:13])[C@@:5]1([H:14])[O:6][C@@:7]21[H:15]>>[C:1]1([H:8])=[C:3]([C:7]([O:6][C:5](=[C:4]([H:12])[H:13])[H:14])([H:9])[H:15])[C:2]1([H:10])[H:11]"
C       -1.61982314       0.26693295      -0.68177858
C       -1.77409097      -0.12200444       0.77039548
C       -0.47733581       0.09760401       0.10054792
C        1.06707348      -1.22658839      -0.18031450
C        1.86572242      -0.14313130       0.28017140
O        1.88528157       1.00803877      -0.46716336
C        0.56405590       1.16151071      -0.04776770
H       -2.10454267      -0.23545365      -1.50455210
H       -0.51515534       1.39324429      -1.27702306
H       -2.14501308       0.61939569       1.47272808
H       -1.98745512      -1.15079350       1.04624532
H        1.15663562      -2.15565126       0.37365894
H        0.87536351      -1.37674811      -1.23750224
H        2.75205619      -0.25747375       0.89312550
H        0.45722744       2.12111798       0.45922891
