8
Frame=0 idx=004643 GeodesicLength=0.0 rxn_smarts="[C:1]([C:2](=[O:3])[C:4]#[N:5])([H:6])([H:7])[H:8]>>[C:1](=[C:2]([O:3][H:7])[C:4]#[N:5])([H:6])[H:8]"
C       -1.01834420      -0.14621398      -0.02728437
C        0.34425596       0.17621390      -0.11754214
O        0.53173112       1.17951826      -0.87754839
C        1.46903991      -0.50031583       0.48518348
N        2.33641312      -1.07024711       0.97411335
H       -1.59339809       0.64750648       0.44917740
H       -0.70218119       0.86294586      -1.06893258
H       -1.36751665      -1.14940761       0.18283324
8
Frame=1 idx=004643 GeodesicLength=0.04062565706283281 rxn_smarts="[C:1]([C:2](=[O:3])[C:4]#[N:5])([H:6])([H:7])[H:8]>>[C:1](=[C:2]([O:3][H:7])[C:4]#[N:5])([H:6])[H:8]"
C       -1.01607516      -0.14271787      -0.02442564
C        0.34291420       0.20488323      -0.08145433
O        0.53600176       1.18622969      -0.86892475
C        1.46843360      -0.50286531       0.48426823
N        2.33516553      -1.09176731       0.95131748
H       -1.61968493       0.64580263       0.42401852
H       -0.70003922       0.84872737      -1.08886012
H       -1.34671578      -1.14829242       0.20406061
8
Frame=2 idx=004643 GeodesicLength=0.08105065953066365 rxn_smarts="[C:1]([C:2](=[O:3])[C:4]#[N:5])([H:6])([H:7])[H:8]>>[C:1](=[C:2]([O:3][H:7])[C:4]#[N:5])([H:6])[H:8]"
C       -1.01342975      -0.13945478      -0.02169544
C        0.34155601       0.23035332      -0.04964669
O        0.54005772       1.19300846      -0.85939218
C        1.46679702      -0.50477709       0.48296404
N        2.33238031      -1.11060996       0.93003068
H       -1.64222587       0.64307520       0.40126873
H       -0.69745959       0.83469509      -1.10766059
H       -1.32767585      -1.14629024       0.22413147
8
Frame=3 idx=004643 GeodesicLength=0.12149981369457843 rxn_smarts="[C:1]([C:2](=[O:3])[C:4]#[N:5])([H:6])([H:7])[H:8]>>[C:1](=[C:2]([O:3][H:7])[C:4]#[N:5])([H:6])[H:8]"
C       -1.01070932      -0.13641070      -0.01938266
C        0.34029093       0.25256889      -0.02199911
O        0.54397351       1.19966640      -0.84964313
C        1.46448031      -0.50620790       0.48185598
N        2.32868359      -1.12706169       0.91043186
H       -1.66149078       0.63954965       0.38118761
H       -0.69491807       0.82157452      -1.12534448
H       -1.31031018      -1.14367916       0.24289393
8
Frame=4 idx=004643 GeodesicLength=0.16193732401980668 rxn_smarts="[C:1]([C:2](=[O:3])[C:4]#[N:5])([H:6])([H:7])[H:8]>>[C:1](=[C:2]([O:3][H:7])[C:4]#[N:5])([H:6])[H:8]"
C       -1.00797201      -0.13352452      -0.01744124
C        0.33910447       0.27232056       0.00260466
O        0.54773166       1.20623524      -0.83976730
C        1.46173448      -0.50748970       0.48061372
N        2.32444319      -1.14162126       0.89237131
H       -1.67831251       0.63544823       0.36317826
H       -0.69245497       0.80919419      -1.14216839
H       -1.29427430      -1.14056274       0.26060899
8
Frame=5 idx=004643 GeodesicLength=0.2023244537968337 rxn_smarts="[C:1]([C:2](=[O:3])[C:4]#[N:5])([H:6])([H:7])[H:8]>>[C:1](=[C:2]([O:3][H:7])[C:4]#[N:5])([H:6])[H:8]"
C       -1.00524112      -0.13073137      -0.01574105
C        0.33801190       0.29010249       0.02484745
O        0.55138061       1.21255357      -0.83001853
C        1.45871671      -0.50871235       0.47924834
N        2.31985805      -1.15457270       0.87571185
H       -1.69314709       0.63096038       0.34704289
H       -0.69019533       0.79748733      -1.15823196
H       -1.27938372      -1.13708734       0.27714102
8
Frame=6 idx=004643 GeodesicLength=0.24269930708609236 rxn_smarts="[C:1]([C:2](=[O:3])[C:4]#[N:5])([H:6])([H:7])[H:8]>>[C:1](=[C:2]([O:3][H:7])[C:4]#[N:5])([H:6])[H:8]"
C       -1.00251535      -0.12801258      -0.01426667
C        0.33695625       0.30648489       0.04548024
O        0.55496037       1.21867591      -0.82032621
C        1.45545681      -0.50955723       0.47837453
N        2.31504022      -1.16658270       0.85952395
H       -1.70658777       0.62614012       0.33213757
H       -0.68797712       0.78612598      -1.17383304
H       -1.26533341      -1.13327440       0.29290962
8
Frame=7 idx=004643 GeodesicLength=0.2830720934355424 rxn_smarts="[C:1]([C:2](=[O:3])[C:4]#[N:5])([H:6])([H:7])[H:8]>>[C:1](=[C:2]([O:3][H:7])[C:4]#[N:5])([H:6])[H:8]"
C       -0.99977579      -0.12534219      -0.01293178
C        0.33591274       0.32183987       0.06498368
O        0.55846569       1.22465704      -0.81062688
C        1.45203302      -0.50995979       0.47809129
N        2.31000585      -1.17795644       0.84342431
H       -1.71896481       0.62105632       0.31809497
H       -0.68570554       0.77485705      -1.18912703
H       -1.25197117      -1.12915185       0.30809144
8
Frame=8 idx=004643 GeodesicLength=0.3234237194938938 rxn_smarts="[C:1]([C:2](=[O:3])[C:4]#[N:5])([H:6])([H:7])[H:8]>>[C:1](=[C:2]([O:3][H:7])[C:4]#[N:5])([H:6])[H:8]"
C       -0.99704278      -0.12268651      -0.01173143
C        0.33491821       0.33620573       0.08339617
O        0.56193395       1.23040636      -0.80107166
C        1.44848812      -0.51028878       0.47793573
N        2.30483999      -1.18848199       0.82791834
H       -1.73030473       0.61577443       0.30511394
H       -0.68356248       0.76387134      -1.20405642
H       -1.23927028      -1.12480060       0.32249533
8
Frame=9 idx=004643 GeodesicLength=0.3637419617822494 rxn_smarts="[C:1]([C:2](=[O:3])[C:4]#[N:5])([H:6])([H:7])[H:8]>>[C:1](=[C:2]([O:3][H:7])[C:4]#[N:5])([H:6])[H:8]"
C       -0.99432130      -0.12001665      -0.01063797
C        0.33399505       0.34967997       0.10082639
O        0.56538824       1.23588244      -0.79173621
C        1.44485484      -0.51068381       0.47772063
N        2.29960172      -1.19814820       0.81319239
H       -1.74069399       0.61035819       0.29323517
H       -0.68165188       0.75321683      -1.21863435
H       -1.22717268      -1.12028877       0.33603395
8
Frame=10 idx=004643 GeodesicLength=0.40403951324395004 rxn_smarts="[C:1]([C:2](=[O:3])[C:4]#[N:5])([H:6])([H:7])[H:8]>>[C:1](=[C:2]([O:3][H:7])[C:4]#[N:5])([H:6])[H:8]"
C       -0.99159615      -0.11732217      -0.00962242
C        0.33312053       0.36246853       0.11752930
O        0.56883288       1.24113305      -0.78255077
C        1.44114788      -0.51098389       0.47769248
N        2.29427821      -1.20721261       0.79885686
H       -1.75032499       0.60482808       0.28220167
H       -0.67989047       0.74271122      -1.23298004
H       -1.21556789      -1.11562221       0.34887294
8
Frame=11 idx=004643 GeodesicLength=0.44432650565235815 rxn_smarts="[C:1]([C:2](=[O:3])[C:4]#[N:5])([H:6])([H:7])[H:8]>>[C:1](=[C:2]([O:3][H:7])[C:4]#[N:5])([H:6])[H:8]"
C       -0.98885831      -0.11459604      -0.00867058
C        0.33228449       0.37469554       0.13366766
O        0.57226016       1.24621748      -0.77344069
C        1.43738760      -0.51116908       0.47786807
N        2.28886274      -1.21579396       0.78475617
H       -1.75932352       0.59919920       0.27184317
H       -0.67822456       0.73224496      -1.24716661
H       -1.20438859      -1.11079810       0.36114280
8
Frame=12 idx=004643 GeodesicLength=0.4846136411030173 rxn_smarts="[C:1]([C:2](=[O:3])[C:4]#[N:5])([H:6])([H:7])[H:8]>>[C:1](=[C:2]([O:3][H:7])[C:4]#[N:5])([H:6])[H:8]"
C       -0.98609885      -0.11183284      -0.00776957
C        0.33146735       0.38647817       0.14939552
O        0.57567532       1.25116944      -0.76434619
C        1.43357741      -0.51116108       0.47840003
N        2.28334287      -1.22401969       0.77062815
H       -1.76779968       0.59347698       0.26199048
H       -0.67658282       0.72169627      -1.26126230
H       -1.19358161      -1.10580725       0.37296388
8
Frame=13 idx=004643 GeodesicLength=0.5249095668084456 rxn_smarts="[C:1]([C:2](=[O:3])[C:4]#[N:5])([H:6])([H:7])[H:8]>>[C:1](=[C:2]([O:3][H:7])[C:4]#[N:5])([H:6])[H:8]"
C       -0.98330707      -0.10902745      -0.00690626
C        0.33065889       0.39790271       0.16481982
O        0.57907109       1.25603025      -0.75521742
C        1.42973667      -0.51092028       0.47933780
N        2.27768094      -1.23197571       0.75632756
H       -1.77582600       0.58766455       0.25252891
H       -0.67491439       0.71097072      -1.27531320
H       -1.18310014      -1.10064479       0.38442278
8
Frame=14 idx=004643 GeodesicLength=0.5652004785777938 rxn_smarts="[C:1]([C:2](=[O:3])[C:4]#[N:5])([H:6])([H:7])[H:8]>>[C:1](=[C:2]([O:3][H:7])[C:4]#[N:5])([H:6])[H:8]"
C       -0.98049784      -0.10615582      -0.00608270
C        0.32989864       0.40891607       0.17987106
O        0.58246434       1.26075851      -0.74613084
C        1.42587250      -0.51068887       0.48031227
N        2.27195394      -1.23949043       0.74229985
H       -1.78336813       0.58181049       0.24364132
H       -0.67336985       0.70021907      -1.28926998
H       -1.17295360      -1.09536903       0.39535903
8
Frame=15 idx=004643 GeodesicLength=0.6054719214674127 rxn_smarts="[C:1]([C:2](=[O:3])[C:4]#[N:5])([H:6])([H:7])[H:8]>>[C:1](=[C:2]([O:3][H:7])[C:4]#[N:5])([H:6])[H:8]"
C       -0.97767664      -0.10318877      -0.00529103
C        0.32923130       0.41949699       0.19447542
O        0.58587251       1.26530414      -0.73720538
C        1.42200765      -0.51060270       0.48104915
N        2.26619213      -1.24648601       0.72896179
H       -1.79039118       0.57596241       0.23554169
H       -0.67213098       0.68958355      -1.30309602
H       -1.16310481      -1.09006960       0.40556438
8
Frame=16 idx=004643 GeodesicLength=0.6457329685197015 rxn_smarts="[C:1]([C:2](=[O:3])[C:4]#[N:5])([H:6])([H:7])[H:8]>>[C:1](=[C:2]([O:3][H:7])[C:4]#[N:5])([H:6])[H:8]"
C       -0.97483824      -0.10012138      -0.00452567
C        0.32864194       0.42971939       0.20873698
O        0.58929597       1.26970684      -0.72837519
C        1.41813756      -0.51058695       0.48167832
N        2.26039231      -1.25306737       0.71609639
H       -1.79697468       0.57012320       0.22809065
H       -0.67113640       0.67895749      -1.31684771
H       -1.15351846      -1.08473122       0.41514623
