11
Frame=0 idx=002405 GeodesicLength=0.0 rxn_smarts="[C:1]1([H:6])([H:7])[C@@:2]2([H:8])[C:3]([H:9])([H:10])[O:4][C@@:5]12[H:11]>>[C:1]([C@@:5]1([H:11])[C:2][C:3]([H:9])([H:10])[O:4]1)([H:6])([H:7])[H:8]"
C       -1.16717528      -0.40399570       0.05789784
C        0.29582526       0.32481641       0.97736565
C        1.37003248      -0.10634629      -0.02645693
O        0.70880425       0.50114358      -1.15864988
C       -0.35762802       0.82452125      -0.27865140
H       -2.15019876      -0.19045276       0.46168331
H       -1.09866451      -1.19484379      -0.68248150
H       -0.61366731      -0.78273892       1.05398751
H        1.58717054      -1.16816316      -0.16327620
H        2.29325520       0.43024512       0.20965445
H       -0.86775390       1.76581421      -0.45107283
11
Frame=1 idx=002405 GeodesicLength=0.05444919104396578 rxn_smarts="[C:1]1([H:6])([H:7])[C@@:2]2([H:8])[C:3]([H:9])([H:10])[O:4][C@@:5]12[H:11]>>[C:1]([C@@:5]1([H:11])[C:2][C:3]([H:9])([H:10])[O:4]1)([H:6])([H:7])[H:8]"
C       -1.17343246      -0.40575984       0.05669461
C        0.29685406       0.31711072       0.97201077
C        1.37698957      -0.10149235      -0.02719354
O        0.70910042       0.49334407      -1.16165118
C       -0.35814279       0.81709385      -0.28202489
H       -2.15568994      -0.18290345       0.45771091
H       -1.11667293      -1.19357547      -0.68805972
H       -0.62027099      -0.79046177       1.06796670
H        1.60326780      -1.16223705      -0.15927715
H        2.29629110       0.44284699       0.20681211
H       -0.85829384       1.76603430      -0.44298860
11
Frame=2 idx=002405 GeodesicLength=0.10889336632679474 rxn_smarts="[C:1]1([H:6])([H:7])[C@@:2]2([H:8])[C:3]([H:9])([H:10])[O:4][C@@:5]12[H:11]>>[C:1]([C@@:5]1([H:11])[C:2][C:3]([H:9])([H:10])[O:4]1)([H:6])([H:7])[H:8]"
C       -1.17979069      -0.40753195       0.05540530
C        0.29790360       0.30898694       0.96658264
C        1.38401768      -0.09654949      -0.02796765
O        0.70942588       0.48529932      -1.16465615
C       -0.35859916       0.80953797      -0.28538774
H       -2.16111544      -0.17524396       0.45377517
H       -1.13508128      -1.19204715      -0.69379931
H       -0.62705648      -0.79811078       1.08227013
H        1.61970880      -1.15606082      -0.15531061
H        2.29915973       0.45576788       0.20397561
H       -0.84857263       1.76595204      -0.43488740
11
Frame=3 idx=002405 GeodesicLength=0.16333495832210687 rxn_smarts="[C:1]1([H:6])([H:7])[C@@:2]2([H:8])[C:3]([H:9])([H:10])[O:4][C@@:5]12[H:11]>>[C:1]([C@@:5]1([H:11])[C:2][C:3]([H:9])([H:10])[O:4]1)([H:6])([H:7])[H:8]"
C       -1.18625116      -0.40931361       0.05402691
C        0.29897845       0.30042198       0.96107568
C        1.39111690      -0.09151690      -0.02877974
O        0.70978421       0.47700109      -1.16766113
C       -0.35899391       0.80184764      -0.28873716
H       -2.16646828      -0.16747142       0.44987794
H       -1.15389901      -1.19023728      -0.69970885
H       -0.63402948      -0.80567373       1.09691642
H        1.63650571      -1.14962219      -0.15138386
H        2.30184607       0.46901496       0.20114926
H       -0.83858950       1.76554948      -0.42677546
11
Frame=4 idx=002405 GeodesicLength=0.21777759617659323 rxn_smarts="[C:1]1([H:6])([H:7])[C@@:2]2([H:8])[C:3]([H:9])([H:10])[O:4][C@@:5]12[H:11]>>[C:1]([C@@:5]1([H:11])[C:2][C:3]([H:9])([H:10])[O:4]1)([H:6])([H:7])[H:8]"
C       -1.19281557      -0.41110652       0.05255388
C        0.30008203       0.29139231       0.95548174
C        1.39828677      -0.08639488      -0.02962972
O        0.71018095       0.46843947      -1.17066474
C       -0.35932340       0.79401486      -0.29207397
H       -2.17174190      -0.15958398       0.44602311
H       -1.17313108      -1.18812775      -0.70579661
H       -0.64119579      -0.81313340       1.11192537
H        1.65367090      -1.14290964      -0.14750498
H        2.30433494       0.48259348       0.19833906
H       -0.82834784       1.76481605      -0.41865314
11
Frame=5 idx=002405 GeodesicLength=0.2722205125398137 rxn_smarts="[C:1]1([H:6])([H:7])[C@@:2]2([H:8])[C:3]([H:9])([H:10])[O:4][C@@:5]12[H:11]>>[C:1]([C@@:5]1([H:11])[C:2][C:3]([H:9])([H:10])[O:4]1)([H:6])([H:7])[H:8]"
C       -1.19948482      -0.41291319       0.05098259
C        0.30121936       0.28187131       0.94979345
C        1.40552696      -0.08118265      -0.03051889
O        0.71061924       0.45960559      -1.17366340
C       -0.35958440       0.78603258      -0.29539487
H       -2.17692892      -0.15157917       0.44221366
H       -1.19278712      -1.18569437      -0.71207236
H       -0.64856298      -0.82047399       1.12731701
H        1.67121764      -1.13590859      -0.14368126
H        2.30660666       0.49651309       0.19554950
H       -0.81784162       1.76372938      -0.41052543
11
Frame=6 idx=002405 GeodesicLength=0.3266670574653086 rxn_smarts="[C:1]1([H:6])([H:7])[C@@:2]2([H:8])[C:3]([H:9])([H:10])[O:4][C@@:5]12[H:11]>>[C:1]([C@@:5]1([H:11])[C:2][C:3]([H:9])([H:10])[O:4]1)([H:6])([H:7])[H:8]"
C       -1.20626015      -0.41473706       0.04930581
C        0.30239354       0.27183357       0.94399846
C        1.41283580      -0.07588056      -0.03144764
O        0.71110692       0.45048804      -1.17665692
C       -0.35977333       0.77789027      -0.29870392
H       -2.18202192      -0.14345674       0.43845311
H       -1.21287062      -1.18291900      -0.71854205
H       -0.65613687      -0.82767361       1.14311262
H        1.68915898      -1.12860795      -0.13992106
H        2.30864536       0.51077773       0.19278888
H       -0.80707772       1.76228529      -0.40238730
11
Frame=7 idx=002405 GeodesicLength=0.3811163349792128 rxn_smarts="[C:1]1([H:6])([H:7])[C@@:2]2([H:8])[C:3]([H:9])([H:10])[O:4][C@@:5]12[H:11]>>[C:1]([C@@:5]1([H:11])[C:2][C:3]([H:9])([H:10])[O:4]1)([H:6])([H:7])[H:8]"
C       -1.21314240      -0.41658186       0.04751838
C        0.30361042       0.26124640       0.93808723
C        1.42021271      -0.07048813      -0.03241736
O        0.71164833       0.44107785      -1.17964215
C       -0.35988716       0.76957933      -0.30199937
H       -2.18701243      -0.13521507       0.43474389
H       -1.23338998      -1.17977562      -0.72521659
H       -0.66392458      -0.83470812       1.15933611
H        1.70750784      -1.12098983      -0.13623229
H        2.31042562       0.52539652       0.19006215
H       -0.79604838       1.76045853      -0.39424001
11
Frame=8 idx=002405 GeodesicLength=0.4355702725067139 rxn_smarts="[C:1]1([H:6])([H:7])[C@@:2]2([H:8])[C:3]([H:9])([H:10])[O:4][C@@:5]12[H:11]>>[C:1]([C@@:5]1([H:11])[C:2][C:3]([H:9])([H:10])[O:4]1)([H:6])([H:7])[H:8]"
C       -1.22013256      -0.41845205       0.04561458
C        0.30487457       0.25007836       0.93204602
C        1.42765502      -0.06500562      -0.03342946
O        0.71224988       0.43136436      -1.18261808
C       -0.35992300       0.76108872      -0.30528338
H       -2.19189192      -0.12685461       0.43108591
H       -1.25434951      -1.17624151      -0.73210430
H       -0.67193174      -0.84154814       1.17601388
H        1.72627855      -1.11303873      -0.13262521
H        2.31192656       0.54037304       0.18737829
H       -0.78475586       1.75823618      -0.38607825
11
Frame=9 idx=002405 GeodesicLength=0.490025796724717 rxn_smarts="[C:1]1([H:6])([H:7])[C@@:2]2([H:8])[C:3]([H:9])([H:10])[O:4][C@@:5]12[H:11]>>[C:1]([C@@:5]1([H:11])[C:2][C:3]([H:9])([H:10])[O:4]1)([H:6])([H:7])[H:8]"
C       -1.22723040      -0.42035258       0.04358568
C        0.30618947       0.23829796       0.92585826
C        1.43515967      -0.05943467      -0.03448537
O        0.71292000       0.42133573      -1.18558584
C       -0.35987660       0.75240620      -0.30856127
H       -2.19665154      -0.11837678       0.42748275
H       -1.27575052      -1.17229841      -0.73920940
H       -0.68016683      -0.84816253       1.19316903
H        1.74548410      -1.10473838      -0.12911027
H        2.31312375       0.55571161       0.18474771
H       -0.77320111       1.75561185      -0.37789127
11
Frame=10 idx=002405 GeodesicLength=0.5444871239499753 rxn_smarts="[C:1]1([H:6])([H:7])[C@@:2]2([H:8])[C:3]([H:9])([H:10])[O:4][C@@:5]12[H:11]>>[C:1]([C@@:5]1([H:11])[C:2][C:3]([H:9])([H:10])[O:4]1)([H:6])([H:7])[H:8]"
C       -1.23443770      -0.42228910       0.04142215
C        0.30756045       0.22586686       0.91950500
C        1.44272151      -0.05377699      -0.03558719
O        0.71366722       0.41098235      -1.18854482
C       -0.35974563       0.74351878      -0.31183636
H       -2.20128205      -0.10978366       0.42393382
H       -1.29759237      -1.16792181      -0.74653860
H       -0.68863300      -0.85451021       1.21083100
H        1.76513522      -1.09607131      -0.12569881
H        2.31399168       0.57141564       0.18218155
H       -0.76138532       1.75256943      -0.36966772
11
Frame=11 idx=002405 GeodesicLength=0.5989536457535073 rxn_smarts="[C:1]1([H:6])([H:7])[C@@:2]2([H:8])[C:3]([H:9])([H:10])[O:4][C@@:5]12[H:11]>>[C:1]([C@@:5]1([H:11])[C:2][C:3]([H:9])([H:10])[O:4]1)([H:6])([H:7])[H:8]"
C       -1.24175418      -0.42427019       0.03911502
C        0.30899313       0.21274240       0.91296786
C        1.45033647      -0.04803433      -0.03673771
O        0.71450001       0.40029697      -1.19149341
C       -0.35952802       0.73441229      -0.31511192
H       -2.20577346      -0.10107873       0.42043964
H       -1.31987798      -1.16308412      -0.75410235
H       -0.69733570      -0.86054281       1.22903294
H        1.78524519      -1.08701376      -0.12240419
H        2.31449720       0.58748674       0.17969110
H       -0.74930265       1.74908554      -0.36139700
11
Frame=12 idx=002405 GeodesicLength=0.6534247629108734 rxn_smarts="[C:1]1([H:6])([H:7])[C@@:2]2([H:8])[C:3]([H:9])([H:10])[O:4][C@@:5]12[H:11]>>[C:1]([C@@:5]1([H:11])[C:2][C:3]([H:9])([H:10])[O:4]1)([H:6])([H:7])[H:8]"
C       -1.24917915      -0.42630395       0.03665453
C        0.31049357       0.19888223       0.90622371
C        1.45799770      -0.04220944      -0.03794061
O        0.71542813       0.38927377      -1.19443190
C       -0.35922152       0.72507226      -0.31839299
H       -2.21011499      -0.09226818       0.41699628
H       -1.34260294      -1.15776364      -0.76190699
H       -0.70627790      -0.86620437       1.24780849
H        1.80582255      -1.07754711      -0.11924108
H        2.31460983       0.60392280       0.17729108
H       -0.73695528       1.74514562      -0.35306052
11
Frame=13 idx=002405 GeodesicLength=0.7079002227321004 rxn_smarts="[C:1]1([H:6])([H:7])[C@@:2]2([H:8])[C:3]([H:9])([H:10])[O:4][C@@:5]12[H:11]>>[C:1]([C@@:5]1([H:11])[C:2][C:3]([H:9])([H:10])[O:4]1)([H:6])([H:7])[H:8]"
C       -1.25671203      -0.42839883       0.03402768
C        0.31206628       0.18424001       0.89924544
C        1.46569605      -0.03630696      -0.03919799
O        0.71646221       0.37790944      -1.19736201
C       -0.35882444       0.71548493      -0.32168482
H       -2.21429536      -0.08336251       0.41360275
H       -1.36575816      -1.15193755      -0.76995891
H       -0.71545846      -0.87142827       1.26719273
H        1.82687087      -1.06765226      -0.11622694
H        2.31429715       0.62071999       0.17500016
H       -0.72434411       1.74073199      -0.34463807
11
Frame=14 idx=002405 GeodesicLength=0.7623774088889717 rxn_smarts="[C:1]1([H:6])([H:7])[C@@:2]2([H:8])[C:3]([H:9])([H:10])[O:4][C@@:5]12[H:11]>>[C:1]([C@@:5]1([H:11])[C:2][C:3]([H:9])([H:10])[O:4]1)([H:6])([H:7])[H:8]"
C       -1.26435010      -0.43056752       0.03122213
C        0.31371673       0.16876668       0.89200531
C        1.47342288      -0.03033121      -0.04051357
O        0.71761494       0.36620340      -1.20028415
C       -0.35833544       0.70563356      -0.32499336
H       -2.21830185      -0.07437389       0.41025665
H       -1.38933510      -1.14557882      -0.77826765
H       -0.72487545      -0.87613676       1.28722478
H        1.84839377      -1.05730617      -0.11338188
H        2.31351943       0.63786895       0.17283864
H       -0.71146981       1.73582178      -0.33610689
11
Frame=15 idx=002405 GeodesicLength=0.8168539818834231 rxn_smarts="[C:1]1([H:6])([H:7])[C@@:2]2([H:8])[C:3]([H:9])([H:10])[O:4][C@@:5]12[H:11]>>[C:1]([C@@:5]1([H:11])[C:2][C:3]([H:9])([H:10])[O:4]1)([H:6])([H:7])[H:8]"
C       -1.27209055      -0.43282226       0.02822354
C        0.31545035       0.15241057       0.88446987
C        1.48116501      -0.02428939      -0.04189109
O        0.71889895       0.35416172      -1.20320056
C       -0.35775447       0.69550313      -0.32832511
H       -2.22212191      -0.06531928       0.40695157
H       -1.41331617      -1.13866728      -0.78683892
H       -0.73452217      -0.88023773       1.30794506
H        1.87038891      -1.04648884      -0.11072879
H        2.31223998       0.65535378       0.17083159
H       -0.69833794       1.73039558      -0.32743714
11
Frame=16 idx=002405 GeodesicLength=0.8713299439990388 rxn_smarts="[C:1]1([H:6])([H:7])[C@@:2]2([H:8])[C:3]([H:9])([H:10])[O:4][C@@:5]12[H:11]>>[C:1]([C@@:5]1([H:11])[C:2][C:3]([H:9])([H:10])[O:4]1)([H:6])([H:7])[H:8]"
C       -1.27992909      -0.43517934       0.02501608
C        0.31727259       0.13511515       0.87660245
C        1.48890816      -0.01819000      -0.04333398
O        0.72032837       0.34179368      -1.20611407
C       -0.35708222       0.68507696      -0.33168800
H       -2.22574206      -0.05621872       0.40368171
H       -1.43768490      -1.13117775      -0.79568191
H       -0.74438337      -0.88362599       1.32939649
H        1.89284965      -1.03517941      -0.10829123
H        2.31041659       0.67315663       0.16900873
H       -0.68495371       1.72442879      -0.31859627
