17
Frame=0 idx=002648 GeodesicLength=0.0 rxn_smarts="[C:1]([C:2]([C@@:3]1([H:12])[C:4]([H:13])([H:14])[N:5]1[C:6]([H:15])([H:16])[H:17])([H:10])[H:11])([H:7])([H:8])[H:9]>>[C:1]([C:2]([H:10])([H:11])[H:13])([H:7])([H:8])[H:9].[C:3]1([H:12])=[C:4]([H:14])[N:5]1[C:6]([H:15])([H:16])[H:17]"
C        2.41825094      -0.62538463       0.17758405
C        1.36734602       0.09890446      -0.62655317
C       -0.27296638       0.19855925       0.32911281
C       -0.89388739       1.53228496       0.59921757
N       -1.31848352       0.58386651      -0.50188926
C       -2.51369380      -0.22253995      -0.31458727
H        2.77849305      -0.01585468       1.00744341
H        2.03483768      -1.56312832       0.58204005
H        3.27377701      -0.86439066      -0.45598504
H        1.72226576       1.03722614      -1.07415706
H        0.89495908      -0.47272133      -1.41612435
H       -0.18070546      -0.71137814       0.90654510
H        0.70761302       0.90622919       0.11199961
H       -1.50480067       1.39066698       1.50546486
H       -2.45094974      -1.14040072      -0.90539933
H       -3.37140141       0.35120724      -0.66549819
H       -2.69065427      -0.48314634       0.74078628
17
Frame=1 idx=002648 GeodesicLength=0.11995306130227767 rxn_smarts="[C:1]([C:2]([C@@:3]1([H:12])[C:4]([H:13])([H:14])[N:5]1[C:6]([H:15])([H:16])[H:17])([H:10])[H:11])([H:7])([H:8])[H:9]>>[C:1]([C:2]([H:10])([H:11])[H:13])([H:7])([H:8])[H:9].[C:3]1([H:12])=[C:4]([H:14])[N:5]1[C:6]([H:15])([H:16])[H:17]"
C        2.43366768      -0.61345562       0.17997248
C        1.37153668       0.09101742      -0.62902900
C       -0.28040917       0.17753448       0.33608129
C       -0.89049144       1.50571271       0.61527817
N       -1.32362240       0.58022933      -0.49724630
C       -2.53017159      -0.21125731      -0.32017910
H        2.79435851       0.01205883       0.99778680
H        2.06012962      -1.54700491       0.60316522
H        3.28797480      -0.85748830      -0.45342148
H        1.72205323       1.01856009      -1.10108873
H        0.91171089      -0.50091476      -1.41226892
H       -0.19487926      -0.73845348       0.90460891
H        0.71113632       0.92423800       0.11075782
H       -1.50308606       1.38706959       1.52179422
H       -2.47907123      -1.12138759      -0.92381208
H       -3.38041400       0.37820462      -0.66365493
H       -2.71042258      -0.48466311       0.73125564
17
Frame=2 idx=002648 GeodesicLength=0.2397967501839567 rxn_smarts="[C:1]([C:2]([C@@:3]1([H:12])[C:4]([H:13])([H:14])[N:5]1[C:6]([H:15])([H:16])[H:17])([H:10])[H:11])([H:7])([H:8])[H:9]>>[C:1]([C:2]([H:10])([H:11])[H:13])([H:7])([H:8])[H:9].[C:3]1([H:12])=[C:4]([H:14])[N:5]1[C:6]([H:15])([H:16])[H:17]"
C        2.44904056      -0.60102498       0.18251853
C        1.37589902       0.08301825      -0.63161847
C       -0.28810317       0.15518991       0.34267178
C       -0.88682859       1.47801471       0.63110589
N       -1.32882552       0.57603971      -0.49261758
C       -2.54693830      -0.19961136      -0.32548224
H        2.80946833       0.04058098       0.98806450
H        2.08548146      -1.52996652       0.62437535
H        3.30253202      -0.85000007      -0.45016225
H        1.72194157       0.99928003      -1.12770098
H        0.92966675      -0.52922309      -1.40840185
H       -0.20952478      -0.76697677       0.90182010
H        0.71433211       0.94283592       0.10861728
H       -1.50027480       1.38336786       1.53804520
H       -2.50798138      -1.10164064      -0.94199082
H       -3.38929541       0.40590035      -0.66106643
H       -2.73058987      -0.48578429       0.72182199
17
Frame=3 idx=002648 GeodesicLength=0.35958705819706216 rxn_smarts="[C:1]([C:2]([C@@:3]1([H:12])[C:4]([H:13])([H:14])[N:5]1[C:6]([H:15])([H:16])[H:17])([H:10])[H:11])([H:7])([H:8])[H:9]>>[C:1]([C:2]([H:10])([H:11])[H:13])([H:7])([H:8])[H:9].[C:3]1([H:12])=[C:4]([H:14])[N:5]1[C:6]([H:15])([H:16])[H:17]"
C        2.46429583      -0.58806639       0.18525407
C        1.38043444       0.07492637      -0.63433024
C       -0.29607654       0.13143192       0.34880363
C       -0.88284464       1.44910408       0.64664701
N       -1.33409471       0.57124089      -0.48802117
C       -2.56398773      -0.18760168      -0.33045008
H        2.82369465       0.06969619       0.97834077
H        2.11077178      -1.51197949       0.64565813
H        3.31741537      -0.84187899      -0.44613708
H        1.72202263       0.97938969      -1.15397320
H        0.94891201      -0.55758114      -1.40455094
H       -0.22466526      -0.79701509       0.89810283
H        0.71716799       0.96213099       0.10547278
H       -1.49620139       1.37953246       1.55416608
H       -2.53771142      -1.08114382      -0.95986044
H       -3.39799160       0.43429307      -0.65766329
H       -2.75114140      -0.48647906       0.71254114
17
Frame=4 idx=002648 GeodesicLength=0.4793220673573911 rxn_smarts="[C:1]([C:2]([C@@:3]1([H:12])[C:4]([H:13])([H:14])[N:5]1[C:6]([H:15])([H:16])[H:17])([H:10])[H:11])([H:7])([H:8])[H:9]>>[C:1]([C:2]([H:10])([H:11])[H:13])([H:7])([H:8])[H:9].[C:3]1([H:12])=[C:4]([H:14])[N:5]1[C:6]([H:15])([H:16])[H:17]"
C        2.47932584      -0.57454499       0.18821212
C        1.38514888       0.06676850      -0.63717117
C       -0.30436459       0.10615509       0.35437217
C       -0.87847119       1.41887418       0.66181382
N       -1.33943314       0.56576076      -0.48348786
C       -2.58129096      -0.17522847      -0.33501087
H        2.83686872       0.09939154       0.96867745
H        2.13581476      -1.49298488       0.66700513
H        3.33257073      -0.83307120      -0.44124975
H        1.72241020       0.95889624      -1.17986265
H        0.96955509      -0.58590732      -1.40075157
H       -0.24032373      -0.82865164       0.89334624
H        0.71958988       0.98222531       0.10120077
H       -1.49066727       1.37550619       1.57006729
H       -2.56828294      -1.05985967      -0.97732062
H       -3.40640568       0.46338492      -0.65333350
H       -2.77204459      -0.48671458       0.70349300
17
Frame=5 idx=002648 GeodesicLength=0.5990933098944454 rxn_smarts="[C:1]([C:2]([C@@:3]1([H:12])[C:4]([H:13])([H:14])[N:5]1[C:6]([H:15])([H:16])[H:17])([H:10])[H:11])([H:7])([H:8])[H:9]>>[C:1]([C:2]([H:10])([H:11])[H:13])([H:7])([H:8])[H:9].[C:3]1([H:12])=[C:4]([H:14])[N:5]1[C:6]([H:15])([H:16])[H:17]"
C        2.49404230      -0.56035490       0.19149858
C        1.39007231       0.05858388      -0.64014881
C       -0.31304299       0.07908009       0.35915827
C       -0.87352685       1.38708678       0.67643897
N       -1.34485738       0.55946232      -0.47908947
C       -2.59890766      -0.16243381      -0.33904661
H        2.84876837       0.12976983       0.95919187
H        2.16043263      -1.47285412       0.68847087
H        3.34800922      -0.82340196      -0.43527204
H        1.72326739       0.93780783      -1.20530946
H        0.99182107      -0.61414885      -1.39704444
H       -0.25656462      -0.86217015       0.88725590
H        0.72147263       1.00319031       0.09554018
H       -1.48326320       1.37115627       1.58560746
H       -2.59993608      -1.03768311      -0.99423589
H       -3.41448036       0.49330958      -0.64783256
H       -2.79330679      -0.48639999       0.69481719
17
Frame=6 idx=002648 GeodesicLength=0.7189676808876667 rxn_smarts="[C:1]([C:2]([C@@:3]1([H:12])[C:4]([H:13])([H:14])[N:5]1[C:6]([H:15])([H:16])[H:17])([H:10])[H:11])([H:7])([H:8])[H:9]>>[C:1]([C:2]([H:10])([H:11])[H:13])([H:7])([H:8])[H:9].[C:3]1([H:12])=[C:4]([H:14])[N:5]1[C:6]([H:15])([H:16])[H:17]"
C        2.50842210      -0.54548492       0.19514593
C        1.39516084       0.05035254      -0.64328098
C       -0.32212908       0.05012128       0.36314427
C       -0.86797019       1.35367270       0.69055454
N       -1.35037044       0.55233083      -0.47481790
C       -2.61682861      -0.14920011      -0.34256033
H        2.85936023       0.16086115       0.94993459
H        2.18462309      -1.45160430       0.71012276
H        3.36370707      -0.81285529      -0.42818729
H        1.72458912       0.91614491      -1.23040632
H        1.01567469      -0.64231242      -1.39338986
H       -0.27340775      -0.89763618       0.87983456
H        0.72280061       1.02516147       0.08841227
H       -1.47384607       1.36646148       1.60078052
H       -2.63267892      -1.01458204      -1.01060559
H       -3.42217495       0.52407408      -0.64119719
H       -2.81493175      -0.48550516       0.68651601
17
Frame=7 idx=002648 GeodesicLength=0.8389492197083984 rxn_smarts="[C:1]([C:2]([C@@:3]1([H:12])[C:4]([H:13])([H:14])[N:5]1[C:6]([H:15])([H:16])[H:17])([H:10])[H:11])([H:7])([H:8])[H:9]>>[C:1]([C:2]([H:10])([H:11])[H:13])([H:7])([H:8])[H:9].[C:3]1([H:12])=[C:4]([H:14])[N:5]1[C:6]([H:15])([H:16])[H:17]"
C        2.52233046      -0.52984906       0.19924717
C        1.40041295       0.04209446      -0.64658412
C       -0.33169067       0.01906459       0.36613011
C       -0.86165723       1.31841622       0.70401670
N       -1.35597906       0.54426252      -0.47073260
C       -2.63502942      -0.13548213      -0.34543579
H        2.86844323       0.19273864       0.94097862
H        2.20814520      -1.42909833       0.73206728
H        3.37958798      -0.80131944      -0.41979892
H        1.72651579       0.89391086      -1.25512022
H        1.04125179      -0.67033235      -1.38979338
H       -0.29090113      -0.93525981       0.87081667
H        0.72346366       1.04824557       0.07958686
H       -1.46203648       1.36126149       1.61541229
H       -2.66662961      -0.99042354      -1.02629538
H       -3.42936025       0.55575524      -0.63320884
H       -2.83686721      -0.48398494       0.67871355
17
Frame=8 idx=002648 GeodesicLength=0.9590287400704273 rxn_smarts="[C:1]([C:2]([C@@:3]1([H:12])[C:4]([H:13])([H:14])[N:5]1[C:6]([H:15])([H:16])[H:17])([H:10])[H:11])([H:7])([H:8])[H:9]>>[C:1]([C:2]([H:10])([H:11])[H:13])([H:7])([H:8])[H:9].[C:3]1([H:12])=[C:4]([H:14])[N:5]1[C:6]([H:15])([H:16])[H:17]"
C        2.53569911      -0.51339108       0.20387743
C        1.40582311       0.03382634      -0.65006395
C       -0.34177550      -0.01430395       0.36796882
C       -0.85444812       1.28115005       0.71669065
N       -1.36168163       0.53515081      -0.46689100
C       -2.65353090      -0.12124392      -0.34759966
H        2.87586282       0.22546250       0.93241273
H        2.23087785      -1.40529992       0.75435345
H        3.39562791      -0.78869426      -0.40997671
H        1.72911913       0.87115746      -1.27942720
H        1.06864944      -0.69814573      -1.38622361
H       -0.30908734      -0.97522828       0.86005697
H        0.72336114       1.07253229       0.06890938
H       -1.44750241       1.35549128       1.62935465
H       -2.70192402      -0.96513647      -1.04119308
H       -3.43597969       0.58840954      -0.62376465
H       -2.85909091      -0.48173668       0.67151578
17
Frame=9 idx=002648 GeodesicLength=1.0788350054314526 rxn_smarts="[C:1]([C:2]([C@@:3]1([H:12])[C:4]([H:13])([H:14])[N:5]1[C:6]([H:15])([H:16])[H:17])([H:10])[H:11])([H:7])([H:8])[H:9]>>[C:1]([C:2]([H:10])([H:11])[H:13])([H:7])([H:8])[H:9].[C:3]1([H:12])=[C:4]([H:14])[N:5]1[C:6]([H:15])([H:16])[H:17]"
C        2.54812130      -0.49595192       0.20935601
C        1.41138849       0.02565138      -0.65371257
C       -0.35255776      -0.05034513       0.36797706
C       -0.84589320       1.24145536       0.72797631
N       -1.36755242       0.52485218      -0.46350236
C       -2.67216696      -0.10637820      -0.34866373
H        2.88091486       0.25917255       0.92457107
H        2.25218945      -1.38012608       0.77705208
H        3.41159515      -0.77459531      -0.39800128
H        1.73262495       0.84804987      -1.30310952
H        1.09811995      -0.72561431      -1.38251679
H       -0.32810738      -1.01794316       0.84660523
H        0.72213118       1.09809343       0.05555046
H       -1.42924769       1.34859114       1.64195902
H       -2.73877057      -0.93838082      -1.05482640
H       -3.44166412       0.62216009      -0.61208641
H       -2.88112524      -0.47869106       0.66537182
17
Frame=10 idx=002648 GeodesicLength=1.1987445324659158 rxn_smarts="[C:1]([C:2]([C@@:3]1([H:12])[C:4]([H:13])([H:14])[N:5]1[C:6]([H:15])([H:16])[H:17])([H:10])[H:11])([H:7])([H:8])[H:9]>>[C:1]([C:2]([H:10])([H:11])[H:13])([H:7])([H:8])[H:9].[C:3]1([H:12])=[C:4]([H:14])[N:5]1[C:6]([H:15])([H:16])[H:17]"
C        2.55969928      -0.47751929       0.21561492
C        1.41711370       0.01757108      -0.65754639
C       -0.36404369      -0.08928517       0.36629531
C       -0.83598479       1.19924511       0.73786809
N       -1.37353698       0.51316069      -0.46060580
C       -2.69106773      -0.09089500      -0.34868874
H        2.88374208       0.29384331       0.91743901
H        2.27217910      -1.35351496       0.80022575
H        3.42756875      -0.75906213      -0.38408408
H        1.73706796       0.82464922      -1.32616702
H        1.12972881      -0.75261566      -1.37880589
H       -0.34795319      -1.06356207       0.83076127
H        0.71975918       1.12500187       0.03988150
H       -1.40716749       1.34086399       1.65316179
H       -2.77737492      -0.91028968      -1.06715227
H       -3.44645753       0.65707164      -0.59846189
H       -2.90327255      -0.47466295       0.66026444
17
Frame=11 idx=002648 GeodesicLength=1.3187390948468787 rxn_smarts="[C:1]([C:2]([C@@:3]1([H:12])[C:4]([H:13])([H:14])[N:5]1[C:6]([H:15])([H:16])[H:17])([H:10])[H:11])([H:7])([H:8])[H:9]>>[C:1]([C:2]([H:10])([H:11])[H:13])([H:7])([H:8])[H:9].[C:3]1([H:12])=[C:4]([H:14])[N:5]1[C:6]([H:15])([H:16])[H:17]"
C        2.57022697      -0.45803444       0.22278187
C        1.42298652       0.00966375      -0.66157237
C       -0.37635094      -0.13138108       0.36263096
C       -0.82453019       1.15428742       0.74597820
N       -1.37965329       0.49988015      -0.45835531
C       -2.71016795      -0.07477269      -0.34747765
H        2.88405130       0.32947102       0.91119266
H        2.29045253      -1.32540688       0.82393347
H        3.44341758      -0.74197237      -0.36796756
H        1.74260273       0.80114258      -1.34845071
H        1.16361047      -0.77894871      -1.37512319
H       -0.36871464      -1.11230643       0.81221236
H        0.71601097       1.15331990       0.02174963
H       -1.38065484       1.33218996       1.66245426
H       -2.81787122      -0.88078314      -1.07781673
H       -3.45006596       0.69317248      -0.58263672
H       -2.92535003      -0.46952151       0.65646685
17
Frame=12 idx=002648 GeodesicLength=1.4387891358050768 rxn_smarts="[C:1]([C:2]([C@@:3]1([H:12])[C:4]([H:13])([H:14])[N:5]1[C:6]([H:15])([H:16])[H:17])([H:10])[H:11])([H:7])([H:8])[H:9]>>[C:1]([C:2]([H:10])([H:11])[H:13])([H:7])([H:8])[H:9].[C:3]1([H:12])=[C:4]([H:14])[N:5]1[C:6]([H:15])([H:16])[H:17]"
C        2.57953997      -0.43749103       0.23093945
C        1.42898218       0.00200333      -0.66579221
C       -0.38955139      -0.17681523       0.35678329
C       -0.81135873       1.10644566       0.75194767
N       -1.38588916       0.48482407      -0.45689882
C       -2.72938696      -0.05802549      -0.34489251
H        2.88159991       0.36599521       0.90598806
H        2.30671070      -1.29585362       0.84816237
H        3.45900549      -0.72323419      -0.34948870
H        1.74932028       0.77776090      -1.36979473
H        1.19979584      -0.80439768      -1.37143790
H       -0.39043550      -1.16430663       0.79079123
H        0.71070773       1.18310009       0.00114341
H       -1.34916001       1.32256828       1.66936381
H       -2.86035069      -0.84989667      -1.08651528
H       -3.45229784       0.73042892      -0.56451515
H       -2.94723181      -0.46310593       0.65421603
17
Frame=13 idx=002648 GeodesicLength=1.5588261063865503 rxn_smarts="[C:1]([C:2]([C@@:3]1([H:12])[C:4]([H:13])([H:14])[N:5]1[C:6]([H:15])([H:16])[H:17])([H:10])[H:11])([H:7])([H:8])[H:9]>>[C:1]([C:2]([H:10])([H:11])[H:13])([H:7])([H:8])[H:9].[C:3]1([H:12])=[C:4]([H:14])[N:5]1[C:6]([H:15])([H:16])[H:17]"
C        2.58740036      -0.41593310       0.24016025
C        1.43507061      -0.00530841      -0.67020599
C       -0.40373248      -0.22563977       0.34854360
C       -0.79636045       1.05567313       0.75532274
N       -1.39223152       0.46783552      -0.45640648
C       -2.74854673      -0.04070798      -0.34074508
H        2.87618029       0.40327002       0.90195740
H        2.32047820      -1.26490430       0.87292152
H        3.47409830      -0.70288524      -0.32849116
H        1.75732685       0.75480468      -1.39000883
H        1.23825254      -0.82866380      -1.36776809
H       -0.41316848      -1.21956071       0.76632111
H        0.70364407       1.21437955      -0.02182380
H       -1.31220810       1.31194787       1.67321157
H       -2.90473401      -0.81765220      -1.09283996
H       -3.45281698       0.76869308      -0.54394928
H       -2.96865247      -0.45534833       0.65380048
17
Frame=14 idx=002648 GeodesicLength=1.6788995891943692 rxn_smarts="[C:1]([C:2]([C@@:3]1([H:12])[C:4]([H:13])([H:14])[N:5]1[C:6]([H:15])([H:16])[H:17])([H:10])[H:11])([H:7])([H:8])[H:9]>>[C:1]([C:2]([H:10])([H:11])[H:13])([H:7])([H:8])[H:9].[C:3]1([H:12])=[C:4]([H:14])[N:5]1[C:6]([H:15])([H:16])[H:17]"
C        2.59362940      -0.39346268       0.25046190
C        1.44117813      -0.01214099      -0.67478547
C       -0.41895811      -0.27789928       0.33783404
C       -0.77944117       1.00199074       0.75564792
N       -1.39864547       0.44871110      -0.45706384
C       -2.76747062      -0.02290981      -0.33493298
H        2.86761561       0.44105189       0.89926022
H        2.33141683      -1.23279511       0.89804380
H        3.48848379      -0.68091250      -0.30493668
H        1.76662534       0.73268127      -1.40881998
H        1.27885378      -0.85139764      -1.36409620
H       -0.43694967      -1.27801919       0.73887616
H        0.69460324       1.24716941      -0.04682544
H       -1.26928425       1.30047398       1.67330165
H       -2.95095851      -0.78429314      -1.09640387
H       -3.45133069       0.80778902      -0.52105160
H       -2.98936764      -0.44603708       0.65549038
17
Frame=15 idx=002648 GeodesicLength=1.7990227854851848 rxn_smarts="[C:1]([C:2]([C@@:3]1([H:12])[C:4]([H:13])([H:14])[N:5]1[C:6]([H:15])([H:16])[H:17])([H:10])[H:11])([H:7])([H:8])[H:9]>>[C:1]([C:2]([H:10])([H:11])[H:13])([H:7])([H:8])[H:9].[C:3]1([H:12])=[C:4]([H:14])[N:5]1[C:6]([H:15])([H:16])[H:17]"
C        2.59803432      -0.37025425       0.26180099
C        1.44721566      -0.01837945      -0.67950666
C       -0.43526965      -0.33337541       0.32472201
C       -0.76065943       0.94563063       0.75252938
N       -1.40508779       0.42735580      -0.45901114
C       -2.78586564      -0.00478655      -0.32738804
H        2.85587975       0.47902176       0.89793820
H        2.33914140      -1.19978440       0.92336658
H        3.50187376      -0.65749701      -0.27891030
H        1.77716493       0.71179222      -1.42599782
H        1.32130768      -0.87225627      -1.36041053
H       -0.46179454      -1.33938461       0.70866507
H        0.68342977       1.28145762      -0.07332025
H       -1.22017981       1.28822851       1.66888705
H       -2.99866299      -0.75005542      -1.09687029
H       -3.44748200       0.84739689      -0.49599606
H       -3.00904543      -0.43511005       0.65950180
17
Frame=16 idx=002648 GeodesicLength=1.9193094214863635 rxn_smarts="[C:1]([C:2]([C@@:3]1([H:12])[C:4]([H:13])([H:14])[N:5]1[C:6]([H:15])([H:16])[H:17])([H:10])[H:11])([H:7])([H:8])[H:9]>>[C:1]([C:2]([H:10])([H:11])[H:13])([H:7])([H:8])[H:9].[C:3]1([H:12])=[C:4]([H:14])[N:5]1[C:6]([H:15])([H:16])[H:17]"
C        2.60048955      -0.34656944       0.27403373
C        1.45307372      -0.02391455      -0.68433704
C       -0.45267198      -0.39167956       0.30949432
C       -0.74018982       0.88699172       0.74570308
N       -1.41149215       0.40373591      -0.46233195
C       -2.80340029       0.01346801      -0.31814688
H        2.84105596       0.51675131       0.89799281
H        2.34340462      -1.16628457       0.94858009
H        3.51399165      -0.63287049      -0.25067836
H        1.78879597       0.69256124      -1.44131826
H        1.36516899      -0.89090177      -1.35670267
H       -0.48769974      -1.40317105       0.67621216
H        0.67003447       1.31723571      -0.10053833
H       -1.16495271       1.27535925       1.65929367
H       -3.04731039      -0.71532922      -1.09398327
H       -3.44095903       0.88711150      -0.46923110
H       -3.02733884      -0.42249399       0.66595802
