14
Frame=0 idx=003976 GeodesicLength=0.0 rxn_smarts="[C:1]([O:2][C:3]([C:4]([C:5](=[O:6])[H:14])([H:12])[H:13])([H:10])[H:11])([H:7])([H:8])[H:9]>>[C:1]([O:2][C:3]([C:4]([O+:6]=[C-:5][H:14])([H:12])[H:13])([H:10])[H:11])([H:7])([H:8])[H:9]"
C        2.05303921       0.31763396      -0.54804880
O        0.70240740      -0.01306700      -0.74828758
C        0.05978952      -0.37891251       0.42892155
C       -1.39574433      -0.73854072       0.20801617
C       -1.90364743       0.85030602      -0.56881860
O       -2.68736978       0.37764341       0.34563669
H        2.45773028       0.61814334      -1.51259495
H        2.62616361      -0.53889710      -0.16964726
H        2.16012014       1.15069080       0.15853109
H        0.13554156       0.41050619       1.19223986
H        0.51518269      -1.28710743       0.85753314
H       -1.74212953      -1.14722140       1.16128661
H       -1.59757512      -1.39526280      -0.62647366
H       -1.38350819       1.77408519      -0.17829426
14
Frame=1 idx=003976 GeodesicLength=0.06569748810135208 rxn_smarts="[C:1]([O:2][C:3]([C:4]([C:5](=[O:6])[H:14])([H:12])[H:13])([H:10])[H:11])([H:7])([H:8])[H:9]>>[C:1]([O:2][C:3]([C:4]([O+:6]=[C-:5][H:14])([H:12])[H:13])([H:10])[H:11])([H:7])([H:8])[H:9]"
C        2.05872692       0.31152748      -0.55114007
O        0.70766139      -0.01828796      -0.74949963
C        0.06474762      -0.37995777       0.42965289
C       -1.39239426      -0.73211049       0.20791694
C       -1.90376779       0.86693643      -0.54088986
O       -2.72220991       0.35286896       0.30997144
H        2.46437678       0.60566978      -1.51727582
H        2.63037219      -0.54374094      -0.16766555
H        2.16714755       1.14836901       0.15074570
H        0.14449789       0.41034491       1.19157228
H        0.51955234      -1.28739649       0.86014662
H       -1.74133229      -1.14157742       1.15979548
H       -1.58206818      -1.40146069      -0.62046353
H       -1.41531026       1.80881519      -0.16286689
14
Frame=2 idx=003976 GeodesicLength=0.1312150324779198 rxn_smarts="[C:1]([O:2][C:3]([C:4]([C:5](=[O:6])[H:14])([H:12])[H:13])([H:10])[H:11])([H:7])([H:8])[H:9]>>[C:1]([O:2][C:3]([C:4]([O+:6]=[C-:5][H:14])([H:12])[H:13])([H:10])[H:11])([H:7])([H:8])[H:9]"
C        2.06434732       0.30540726      -0.55438265
O        0.71282179      -0.02354809      -0.75061980
C        0.06992619      -0.38132736       0.43055711
C       -1.38894950      -0.72557707       0.20805885
C       -1.90431126       0.88405021      -0.50992347
O       -2.75559327       0.32712894       0.26972377
H        2.47064692       0.59360910      -1.52206521
H        2.63465787      -0.54867343      -0.16629115
H        2.17427153       1.14577726       0.14303887
H        0.15412944       0.40953682       1.19134040
H        0.52403255      -1.28827601       0.86246650
H       -1.74126220      -1.13415599       1.15894645
H       -1.56629109      -1.40803570      -0.61347038
H       -1.44842629       1.84408405      -0.14737931
14
Frame=3 idx=003976 GeodesicLength=0.1965822513945215 rxn_smarts="[C:1]([O:2][C:3]([C:4]([C:5](=[O:6])[H:14])([H:12])[H:13])([H:10])[H:11])([H:7])([H:8])[H:9]>>[C:1]([O:2][C:3]([C:4]([O+:6]=[C-:5][H:14])([H:12])[H:13])([H:10])[H:11])([H:7])([H:8])[H:9]"
C        2.06996851       0.29913914      -0.55776827
O        0.71778076      -0.02831450      -0.75157883
C        0.07529149      -0.38272154       0.43167509
C       -1.38531474      -0.71901296       0.20833214
C       -1.90595162       0.90153621      -0.47516905
O       -2.78695837       0.30038464       0.22495717
H        2.47669180       0.58170910      -1.52696180
H        2.63878688      -0.55411894      -0.16568703
H        2.18194748       1.14260703       0.13557430
H        0.16430058       0.40841267       1.19155578
H        0.52868754      -1.28935886       0.86462564
H       -1.74182949      -1.12527982       1.15850810
H       -1.55004837      -1.41491079      -0.60569827
H       -1.48335245       1.87992863      -0.13236496
14
Frame=4 idx=003976 GeodesicLength=0.2615843481771023 rxn_smarts="[C:1]([O:2][C:3]([C:4]([C:5](=[O:6])[H:14])([H:12])[H:13])([H:10])[H:11])([H:7])([H:8])[H:9]>>[C:1]([O:2][C:3]([C:4]([O+:6]=[C-:5][H:14])([H:12])[H:13])([H:10])[H:11])([H:7])([H:8])[H:9]"
C        2.07525285       0.29313696      -0.56124050
O        0.72247177      -0.03322549      -0.75236082
C        0.08083544      -0.38482063       0.43305066
C       -1.38164793      -0.71257055       0.20893754
C       -1.90839725       0.91926780      -0.43605077
O       -2.81526465       0.27376142       0.17563109
H        2.48197136       0.57068516      -1.53191479
H        2.64298780      -0.55922689      -0.16565582
H        2.18919870       1.13948190       0.12826785
H        0.17521741       0.40601533       1.19252294
H        0.53344637      -1.29155737       0.86624029
H       -1.74343643      -1.11482725       1.15867814
H       -1.53387239      -1.42226046      -0.59680612
H       -1.51876304       1.91614008      -0.11929969
14
Frame=5 idx=003976 GeodesicLength=0.32616566467705016 rxn_smarts="[C:1]([O:2][C:3]([C:4]([C:5](=[O:6])[H:14])([H:12])[H:13])([H:10])[H:11])([H:7])([H:8])[H:9]>>[C:1]([O:2][C:3]([C:4]([O+:6]=[C-:5][H:14])([H:12])[H:13])([H:10])[H:11])([H:7])([H:8])[H:9]"
C        2.08026033       0.28730378      -0.56469780
O        0.72672719      -0.03749400      -0.75281992
C        0.08648927      -0.38727254       0.43475678
C       -1.37786324      -0.70636372       0.20982818
C       -1.91263494       0.93694611      -0.39143277
O       -2.83979256       0.24764144       0.12287447
H        2.48659890       0.56065022      -1.53675025
H        2.64693247      -0.56461858      -0.16663890
H        2.19666561       1.13583542       0.12171022
H        0.18665860       0.40267848       1.19433966
H        0.53840183      -1.29445152       0.86737154
H       -1.74581157      -1.10376221       1.15909047
H       -1.51767870      -1.42977597      -0.58718025
H       -1.55495318       1.95268311      -0.11045144
14
Frame=6 idx=003976 GeodesicLength=0.390196546277686 rxn_smarts="[C:1]([O:2][C:3]([C:4]([C:5](=[O:6])[H:14])([H:12])[H:13])([H:10])[H:11])([H:7])([H:8])[H:9]>>[C:1]([O:2][C:3]([C:4]([O+:6]=[C-:5][H:14])([H:12])[H:13])([H:10])[H:11])([H:7])([H:8])[H:9]"
C        2.08485768       0.28181110      -0.56801845
O        0.73036942      -0.04078101      -0.75276986
C        0.09221113      -0.39016661       0.43693157
C       -1.37398740      -0.70050009       0.21115857
C       -1.91916054       0.95439314      -0.33971920
O       -2.85982595       0.22291561       0.06770682
H        2.49031606       0.55215225      -1.54130485
H        2.65048342      -0.57034306      -0.16895852
H        2.20437880       1.13154355       0.11637253
H        0.19861784       0.39808612       1.19736186
H        0.54360113      -1.29824620       0.86782055
H       -1.74888058      -1.09301673       1.15956992
H       -1.50167005      -1.43708264      -0.57707878
H       -1.59131096       1.98923455      -0.10907217
14
Frame=7 idx=003976 GeodesicLength=0.45290577749601435 rxn_smarts="[C:1]([O:2][C:3]([C:4]([C:5](=[O:6])[H:14])([H:12])[H:13])([H:10])[H:11])([H:7])([H:8])[H:9]>>[C:1]([O:2][C:3]([C:4]([O+:6]=[C-:5][H:14])([H:12])[H:13])([H:10])[H:11])([H:7])([H:8])[H:9]"
C        2.08854350       0.27739208      -0.57094211
O        0.73320335      -0.04355135      -0.75204307
C        0.09794665      -0.39440968       0.43968549
C       -1.37025839      -0.69511649       0.21326384
C       -1.92787617       0.97164645      -0.27854360
O       -2.87443909       0.20179370       0.01239410
H        2.49247539       0.54616899      -1.54532081
H        2.65383115      -0.57509341      -0.17210708
H        2.21099759       1.12762659       0.11231640
H        0.21137881       0.39069634       1.20228952
H        0.54893846      -1.30426576       0.86683402
H       -1.75269992      -1.08393879       1.16000994
H       -1.48687094      -1.44339091      -0.56696905
H       -1.62517040       2.02444225      -0.12086760
14
Frame=8 idx=003976 GeodesicLength=0.5135729737397907 rxn_smarts="[C:1]([O:2][C:3]([C:4]([C:5](=[O:6])[H:14])([H:12])[H:13])([H:10])[H:11])([H:7])([H:8])[H:9]>>[C:1]([O:2][C:3]([C:4]([O+:6]=[C-:5][H:14])([H:12])[H:13])([H:10])[H:11])([H:7])([H:8])[H:9]"
C        2.09154776       0.27392393      -0.57324101
O        0.73491366      -0.04380812      -0.75008771
C        0.10371308      -0.39922068       0.44337388
C       -1.36652848      -0.68976355       0.21645432
C       -1.94015784       0.98898337      -0.20362188
O       -2.88338877       0.18540377      -0.04108088
H        2.49310421       0.54354414      -1.54839215
H        2.65631612      -0.58043014      -0.17767421
H        2.21832320       1.12258528       0.11119356
H        0.22501812       0.38085473       1.20985291
H        0.55455872      -1.31193701       0.86413817
H       -1.75665182      -1.07840662       1.15996409
H       -1.47308574      -1.44687224      -0.55803902
H       -1.65768223       2.05514315      -0.15284007
14
Frame=9 idx=003976 GeodesicLength=0.5699167232242999 rxn_smarts="[C:1]([O:2][C:3]([C:4]([C:5](=[O:6])[H:14])([H:12])[H:13])([H:10])[H:11])([H:7])([H:8])[H:9]>>[C:1]([O:2][C:3]([C:4]([O+:6]=[C-:5][H:14])([H:12])[H:13])([H:10])[H:11])([H:7])([H:8])[H:9]"
C        2.09408211       0.27155802      -0.57483418
O        0.73574591      -0.04143920      -0.74701125
C        0.10948781      -0.40426001       0.44776832
C       -1.36296108      -0.68328090       0.22055779
C       -1.95626788       1.00675703      -0.11447207
O       -2.88588307       0.17742424      -0.09090954
H        2.49277743       0.54369153      -1.55048800
H        2.65806272      -0.58584216      -0.18473328
H        2.22626129       1.11709343       0.11246055
H        0.23971646       0.36877827       1.21983654
H        0.56006591      -1.32107528       0.85945695
H       -1.76066711      -1.07638634       1.15888340
H       -1.46112153      -1.44558517      -0.55134580
H       -1.68929897       2.07256653      -0.20516942
14
Frame=10 idx=003976 GeodesicLength=0.6245595629691217 rxn_smarts="[C:1]([O:2][C:3]([C:4]([C:5](=[O:6])[H:14])([H:12])[H:13])([H:10])[H:11])([H:7])([H:8])[H:9]>>[C:1]([O:2][C:3]([C:4]([O+:6]=[C-:5][H:14])([H:12])[H:13])([H:10])[H:11])([H:7])([H:8])[H:9]"
C        2.09591335       0.27068519      -0.57619966
O        0.73659013      -0.04020935      -0.74420012
C        0.11497800      -0.40992154       0.45183400
C       -1.36008177      -0.67473531       0.22474133
C       -1.97449832       1.02405306      -0.02144343
O       -2.88114820       0.18124375      -0.13918375
H        2.49197870       0.54457121      -1.55245894
H        2.66028653      -0.58806246      -0.18964414
H        2.23143275       1.11456436       0.11249933
H        0.25489167       0.35531144       1.22992035
H        0.56446120      -1.33151139       0.85354812
H       -1.76588768      -1.07353464       1.15703867
H       -1.45224341      -1.44086308      -0.54553591
H       -1.71667296       2.06840877      -0.26091583
14
Frame=11 idx=003976 GeodesicLength=0.6843143191782421 rxn_smarts="[C:1]([O:2][C:3]([C:4]([C:5](=[O:6])[H:14])([H:12])[H:13])([H:10])[H:11])([H:7])([H:8])[H:9]>>[C:1]([O:2][C:3]([C:4]([O+:6]=[C-:5][H:14])([H:12])[H:13])([H:10])[H:11])([H:7])([H:8])[H:9]"
C        2.09949210       0.26724448      -0.57859573
O        0.73835943      -0.03781523      -0.74254662
C        0.12001468      -0.41089229       0.45506532
C       -1.35666297      -0.66450187       0.22708019
C       -1.99832490       1.03608086       0.05834976
O       -2.87041449       0.18888388      -0.19402727
H        2.49386956       0.54146557      -1.55545743
H        2.66156360      -0.59459291      -0.19556639
H        2.24100755       1.10889019       0.11164112
H        0.26711742       0.35046200       1.23554120
H        0.56853711      -1.33495108       0.85168613
H       -1.77142841      -1.06593146       1.15416033
H       -1.44136256      -1.43773351      -0.53836686
H       -1.75176813       2.05339137      -0.28896375
14
Frame=12 idx=003976 GeodesicLength=0.7462711381140098 rxn_smarts="[C:1]([O:2][C:3]([C:4]([C:5](=[O:6])[H:14])([H:12])[H:13])([H:10])[H:11])([H:7])([H:8])[H:9]>>[C:1]([O:2][C:3]([C:4]([O+:6]=[C-:5][H:14])([H:12])[H:13])([H:10])[H:11])([H:7])([H:8])[H:9]"
C        2.10285272       0.26347237      -0.58183353
O        0.74106928      -0.04014907      -0.74285125
C        0.12441636      -0.41162969       0.45706948
C       -1.35363823      -0.65486628       0.22788738
C       -2.02433486       1.04272325       0.12346966
O       -2.85440183       0.20084272      -0.25220572
H        2.49679647       0.53387623      -1.55995504
H        2.66404599      -0.59786860      -0.19642331
H        2.24674839       1.10708662       0.10550095
H        0.27691451       0.34915150       1.23701360
H        0.57200604      -1.33633979       0.85276936
H       -1.77811398      -1.05533972       1.15086985
H       -1.43139539      -1.43789511      -0.52973776
H       -1.78296547       2.03693557      -0.29157368
14
Frame=13 idx=003976 GeodesicLength=0.8094645450876522 rxn_smarts="[C:1]([O:2][C:3]([C:4]([C:5](=[O:6])[H:14])([H:12])[H:13])([H:10])[H:11])([H:7])([H:8])[H:9]>>[C:1]([O:2][C:3]([C:4]([O+:6]=[C-:5][H:14])([H:12])[H:13])([H:10])[H:11])([H:7])([H:8])[H:9]"
C        2.10662743       0.25850819      -0.58573830
O        0.74434445      -0.04417968      -0.74424088
C        0.12834608      -0.41074942       0.45847177
C       -1.35054932      -0.64590525       0.22755838
C       -2.05445708       1.04397667       0.17819433
O       -2.83397438       0.21453122      -0.31243183
H        2.50090753       0.52283771      -1.56540581
H        2.66663688      -0.60146504      -0.19554664
H        2.25240283       1.10561323       0.09690701
H        0.28423457       0.35262448       1.23517224
H        0.57546795      -1.33428808       0.85701193
H       -1.78485394      -1.04417084       1.14682591
H       -1.42093449      -1.44005088      -0.52063675
H       -1.81419851       2.02271769      -0.27614136
14
Frame=14 idx=003976 GeodesicLength=0.8729387382292734 rxn_smarts="[C:1]([O:2][C:3]([C:4]([C:5](=[O:6])[H:14])([H:12])[H:13])([H:10])[H:11])([H:7])([H:8])[H:9]>>[C:1]([O:2][C:3]([C:4]([O+:6]=[C-:5][H:14])([H:12])[H:13])([H:10])[H:11])([H:7])([H:8])[H:9]"
C        2.11031226       0.25321109      -0.58995931
O        0.74813846      -0.05088178      -0.74656994
C        0.13189129      -0.40971962       0.45929172
C       -1.34762816      -0.63775378       0.22649474
C       -2.08711984       1.04088478       0.22568184
O       -2.80953701       0.23131292      -0.37161883
H        2.50571022       0.50886781      -1.57149875
H        2.66987139      -0.60330262      -0.19158911
H        2.25598304       1.10617388       0.08538093
H        0.28990390       0.35832414       1.23092032
H        0.57875519      -1.33087032       0.86316544
H       -1.79159098      -1.03364762       1.14208895
H       -1.41122272      -1.44290882      -0.51194865
H       -1.84346703       2.01030993      -0.24983935
14
Frame=15 idx=003976 GeodesicLength=0.9369576881991334 rxn_smarts="[C:1]([O:2][C:3]([C:4]([C:5](=[O:6])[H:14])([H:12])[H:13])([H:10])[H:11])([H:7])([H:8])[H:9]>>[C:1]([O:2][C:3]([C:4]([O+:6]=[C-:5][H:14])([H:12])[H:13])([H:10])[H:11])([H:7])([H:8])[H:9]"
C        2.11443361       0.24694237      -0.59447802
O        0.75234348      -0.05832740      -0.74938319
C        0.13515661      -0.40735115       0.45982788
C       -1.34463017      -0.62995962       0.22487084
C       -2.12386214       1.03342098       0.26765670
O       -2.78146341       0.25024304      -0.42960137
H        2.51145419       0.49253688      -1.57795344
H        2.67306066      -0.60575652      -0.18670566
H        2.26006241       1.10642301       0.07256241
H        0.29386998       0.36747753       1.22448438
H        0.58209315      -1.32486469       0.87140430
H       -1.79782365      -1.02441161       1.13650045
H       -1.40130936      -1.44557846      -0.50408726
H       -1.87338536       1.99920565      -0.21509802
14
Frame=16 idx=003976 GeodesicLength=1.0010988119922661 rxn_smarts="[C:1]([O:2][C:3]([C:4]([C:5](=[O:6])[H:14])([H:12])[H:13])([H:10])[H:11])([H:7])([H:8])[H:9]>>[C:1]([O:2][C:3]([C:4]([O+:6]=[C-:5][H:14])([H:12])[H:13])([H:10])[H:11])([H:7])([H:8])[H:9]"
C        2.11873346       0.24023862      -0.59906872
O        0.75706661      -0.06746026      -0.75271120
C        0.13819657      -0.40460805       0.45994930
C       -1.34172418      -0.62253160       0.22277717
C       -2.16314684       1.02224359       0.30506696
O       -2.75046270       0.27244523      -0.48417265
H        2.51802346       0.47389945      -1.58455120
H        2.67668700      -0.60724565      -0.17966267
H        2.26317717       1.10767265       0.05785350
H        0.29665597       0.37850196       1.21616694
H        0.58529121      -1.31752289       0.88101896
H       -1.80354534      -1.01668130       1.13015507
H       -1.39207279      -1.44737008      -0.49769327
H       -1.90287960       1.98841833      -0.17512818
