11
Frame=0 idx=005470 GeodesicLength=0.0 rxn_smarts="[C:1]([N:2]([C:3](=[O:4])[C:5]#[C:6][H:11])[H:10])([H:7])([H:8])[H:9]>>[C:1](=[N:2][H:10])([H:7])[H:9].[C:3](=[O:4])=[C:5]=[C:6]([H:8])[H:11]"
C       -0.99504910       0.35130055      -0.75956360
N       -0.90040912      -0.68660284       0.04606796
C        0.11705493      -0.92364413       1.13237828
O       -0.01764979      -1.92587471       1.77038745
C        1.14133578       0.07356143       1.09947585
C        1.38736740       0.83203268       0.08317563
H       -1.33929621       0.18451595      -1.77316209
H        0.76826736       0.63037894      -0.88967243
H       -1.07073081       1.34453071      -0.34134415
H       -1.10985501      -1.58762764      -0.36681823
H        2.01896456       1.70742910      -0.00092469
11
Frame=1 idx=005470 GeodesicLength=0.13505909727306584 rxn_smarts="[C:1]([N:2]([C:3](=[O:4])[C:5]#[C:6][H:11])[H:10])([H:7])([H:8])[H:9]>>[C:1](=[N:2][H:10])([H:7])[H:9].[C:3](=[O:4])=[C:5]=[C:6]([H:8])[H:11]"
C       -1.01328007       0.34695673      -0.76188263
N       -0.88553986      -0.71524341       0.00986307
C        0.12963647      -0.92254959       1.13067100
O       -0.08170890      -1.85677834       1.84512196
C        1.16944870       0.05294743       1.08341395
C        1.40890680       0.83570095       0.08614981
H       -1.39282816       0.20575319      -1.76729528
H        0.75288291       0.66096054      -0.90508281
H       -1.11815223       1.31772036      -0.29786877
H       -1.04320675      -1.61215203      -0.43303395
H        2.07384108       1.68668419       0.00994365
11
Frame=2 idx=005470 GeodesicLength=0.2694064182366893 rxn_smarts="[C:1]([N:2]([C:3](=[O:4])[C:5]#[C:6][H:11])[H:10])([H:7])([H:8])[H:9]>>[C:1](=[N:2][H:10])([H:7])[H:9].[C:3](=[O:4])=[C:5]=[C:6]([H:8])[H:11]"
C       -1.03160044       0.34109063      -0.76426350
N       -0.87040201      -0.74230119      -0.02571468
C        0.14206746      -0.92236625       1.12890380
O       -0.14328954      -1.78077053       1.90862621
C        1.19634155       0.03203808       1.06827820
C        1.43034170       0.84031579       0.09243166
H       -1.44636494       0.22156903      -1.75902238
H        0.73630023       0.69378371      -0.91697015
H       -1.16674567       1.28668049      -0.25651459
H       -0.97830713      -1.63178203      -0.49667468
H        2.13165880       1.66174227       0.02092011
11
Frame=3 idx=005470 GeodesicLength=0.403801914082555 rxn_smarts="[C:1]([N:2]([C:3](=[O:4])[C:5]#[C:6][H:11])[H:10])([H:7])([H:8])[H:9]>>[C:1](=[N:2][H:10])([H:7])[H:9].[C:3](=[O:4])=[C:5]=[C:6]([H:8])[H:11]"
C       -1.05003079       0.33421250      -0.76647792
N       -0.85526657      -0.76755277      -0.06017358
C        0.15399183      -0.92231345       1.12831880
O       -0.20223911      -1.69991250       1.96113045
C        1.22241531       0.01093599       1.05415704
C        1.45300857       0.84446749       0.10104736
H       -1.49925594       0.23246510      -1.74873215
H        0.71889755       0.72736268      -0.92588800
H       -1.21544139       1.25222268      -0.21717847
H       -0.91555637      -1.64638719      -0.55806014
H        2.18947690       1.63449947       0.03185661
11
Frame=4 idx=005470 GeodesicLength=0.5383553389701119 rxn_smarts="[C:1]([N:2]([C:3](=[O:4])[C:5]#[C:6][H:11])[H:10])([H:7])([H:8])[H:9]>>[C:1](=[N:2][H:10])([H:7])[H:9].[C:3](=[O:4])=[C:5]=[C:6]([H:8])[H:11]"
C       -1.06897166       0.32655769      -0.76870849
N       -0.84053181      -0.79095593      -0.09364854
C        0.16436705      -0.92126794       1.12947036
O       -0.25685502      -1.61619456       2.00355417
C        1.24682237      -0.00951003       1.04169275
C        1.47628131       0.84885077       0.11263346
H       -1.55151402       0.23871493      -1.73703253
H        0.70005849       0.76255791      -0.93127600
H       -1.26534964       1.21460235      -0.18019474
H       -0.85371285      -1.65599003      -0.61785757
H        2.24940578       1.60263484       0.04136713
11
Frame=5 idx=005470 GeodesicLength=0.672992578737873 rxn_smarts="[C:1]([N:2]([C:3](=[O:4])[C:5]#[C:6][H:11])[H:10])([H:7])([H:8])[H:9]>>[C:1](=[N:2][H:10])([H:7])[H:9].[C:3](=[O:4])=[C:5]=[C:6]([H:8])[H:11]"
C       -1.08833918       0.31837463      -0.77082987
N       -0.82613798      -0.81245291      -0.12606470
C        0.17340502      -0.91903214       1.13234488
O       -0.30754892      -1.53075377       2.03697119
C        1.26964093      -0.02907602       1.03096025
C        1.50121103       0.85224186       0.12618057
H       -1.60297291       0.24074514      -1.72406969
H        0.67992722       0.79873034      -0.93353592
H       -1.31580880       1.17423491      -0.14547504
H       -0.79291732      -1.66041086      -0.67617454
H        2.30954091       1.56739882       0.04969285
11
Frame=6 idx=005470 GeodesicLength=0.8077136065731099 rxn_smarts="[C:1]([N:2]([C:3](=[O:4])[C:5]#[C:6][H:11])[H:10])([H:7])([H:8])[H:9]>>[C:1](=[N:2][H:10])([H:7])[H:9].[C:3](=[O:4])=[C:5]=[C:6]([H:8])[H:11]"
C       -1.10828905       0.30982631      -0.77291701
N       -0.81219381      -0.83199467      -0.15746298
C        0.18103667      -0.91533172       1.13686033
O       -0.35386991      -1.44501496       2.06250928
C        1.29057548      -0.04720432       1.02239270
C        1.52788901       0.85463546       0.14157263
H       -1.65325504       0.23881305      -1.71043100
H        0.65822776       0.83620840      -0.93248742
H       -1.36713170       1.13135302      -0.11320070
H       -0.73310186      -1.65956092      -0.73302511
H        2.37011246       1.52827034       0.05618926
11
Frame=7 idx=005470 GeodesicLength=0.9425112072731487 rxn_smarts="[C:1]([N:2]([C:3](=[O:4])[C:5]#[C:6][H:11])[H:10])([H:7])([H:8])[H:9]>>[C:1](=[N:2][H:10])([H:7])[H:9].[C:3](=[O:4])=[C:5]=[C:6]([H:8])[H:11]"
C       -1.12884607       0.30107366      -0.77489794
N       -0.79878869      -0.84957391      -0.18780658
C        0.18737407      -0.91001605       1.14293813
O       -0.39616165      -1.35974590       2.08128737
C        1.30975630      -0.06379000       1.01602342
C        1.55740266       0.85451939       0.15729163
H       -1.70230359       0.23330210      -1.69632710
H        0.63497356       0.87449893      -0.92864653
H       -1.41893058       1.08629639      -0.08332229
H       -0.67437170      -1.65335783      -0.78833679
H        2.42989566       1.48679322       0.06179668
11
Frame=8 idx=005470 GeodesicLength=1.0773774275302492 rxn_smarts="[C:1]([N:2]([C:3](=[O:4])[C:5]#[C:6][H:11])[H:10])([H:7])([H:8])[H:9]>>[C:1](=[N:2][H:10])([H:7])[H:9].[C:3](=[O:4])=[C:5]=[C:6]([H:8])[H:11]"
C       -1.15018923       0.29213684      -0.77678901
N       -0.78579526      -0.86523587      -0.21724101
C        0.19252389      -0.90284006       1.15046634
O       -0.43462638      -1.27566425       2.09427270
C        1.32718247      -0.07841926       1.01205631
C        1.58977623       0.85189352       0.17290178
H       -1.74990360       0.22437982      -1.68223703
H        0.60977509       0.91406621      -0.92181879
H       -1.47164478       1.03894261      -0.05577562
H       -0.61665038      -1.64179927      -0.84211377
H        2.48955193       1.44253971       0.06627812
11
Frame=9 idx=005470 GeodesicLength=1.2122413706249295 rxn_smarts="[C:1]([N:2]([C:3](=[O:4])[C:5]#[C:6][H:11])[H:10])([H:7])([H:8])[H:9]>>[C:1](=[N:2][H:10])([H:7])[H:9].[C:3](=[O:4])=[C:5]=[C:6]([H:8])[H:11]"
C       -1.17236862       0.28301514      -0.77867648
N       -0.77314956      -0.87899617      -0.24589049
C        0.19666806      -0.89369706       1.15920327
O       -0.46932143      -1.19302945       2.10247856
C        1.34325233      -0.09128437       1.01018600
C        1.62491290       0.84688989       0.18820119
H       -1.79579835       0.21224865      -1.66867646
H        0.58243196       0.95510011      -0.91182901
H       -1.52535374       0.98921364      -0.03064901
H       -0.56048888      -1.62511371      -0.89418479
H        2.54921532       1.39565332       0.06983722
11
Frame=10 idx=005470 GeodesicLength=1.3471368415167921 rxn_smarts="[C:1]([N:2]([C:3](=[O:4])[C:5]#[C:6][H:11])[H:10])([H:7])([H:8])[H:9]>>[C:1](=[N:2][H:10])([H:7])[H:9].[C:3](=[O:4])=[C:5]=[C:6]([H:8])[H:11]"
C       -1.19549537       0.27367101      -0.78050704
N       -0.76070798      -0.89090919      -0.27390086
C        0.20005055      -0.88253530       1.16898614
O       -0.50064950      -1.11158169       2.10668432
C        1.35827045      -0.10243963       1.01018280
C        1.66276494       0.83950394       0.20289819
H       -1.83981227       0.19713446      -1.65602878
H        0.55255506       0.99789811      -0.89833848
H       -1.58036236       0.93675452      -0.00782539
H       -0.50578957      -1.60333932      -0.94462336
H        2.60917604       1.34584309       0.07247246
11
Frame=11 idx=005470 GeodesicLength=1.4820552192191774 rxn_smarts="[C:1]([N:2]([C:3](=[O:4])[C:5]#[C:6][H:11])[H:10])([H:7])([H:8])[H:9]>>[C:1](=[N:2][H:10])([H:7])[H:9].[C:3](=[O:4])=[C:5]=[C:6]([H:8])[H:11]"
C       -1.21959395       0.26407500      -0.78228066
N       -0.74850598      -0.90101587      -0.30135780
C        0.20291440      -0.86935800       1.17957449
O       -0.52864849      -1.03083014       2.10760436
C        1.37273401      -0.11236456       1.01142832
C        1.70323326       0.82972759       0.21681434
H       -1.88182906       0.17934970      -1.64463039
H        0.52003832       1.04216411      -0.88134548
H       -1.63655358       0.88135521       0.01267727
H       -0.45308373      -1.57672839      -0.99336636
H        2.66929480       1.29362535       0.07488190
11
Frame=12 idx=005470 GeodesicLength=1.6169924184250595 rxn_smarts="[C:1]([N:2]([C:3](=[O:4])[C:5]#[C:6][H:11])[H:10])([H:7])([H:8])[H:9]>>[C:1](=[N:2][H:10])([H:7])[H:9].[C:3](=[O:4])=[C:5]=[C:6]([H:8])[H:11]"
C       -1.24471056       0.25418448      -0.78395832
N       -0.73642150      -0.90931715      -0.32840947
C        0.20545094      -0.85407734       1.19083337
O       -0.55343386      -0.95041707       2.10573165
C        1.38687819      -0.12114045       1.01366956
C        1.74602840       0.81799408       0.23027342
H       -1.92175931       0.15917909      -1.63476463
H        0.48464628       1.08779688      -0.86067903
H       -1.69393663       0.82261879       0.03088572
H       -0.40247205      -1.54539467      -1.04049635
H        2.72973011       1.23857336       0.07691406
11
Frame=13 idx=005470 GeodesicLength=1.751896761569273 rxn_smarts="[C:1]([N:2]([C:3](=[O:4])[C:5]#[C:6][H:11])[H:10])([H:7])([H:8])[H:9]>>[C:1](=[N:2][H:10])([H:7])[H:9].[C:3](=[O:4])=[C:5]=[C:6]([H:8])[H:11]"
C       -1.27086345       0.24395456      -0.78548749
N       -0.72454689      -0.91585714      -0.35515726
C        0.20787789      -0.83670611       1.20248722
O       -0.57482495      -0.86973635       2.10147220
C        1.40111815      -0.12933447       1.01614693
C        1.79093101       0.80476394       0.24372262
H       -1.95972812       0.13701420      -1.62648581
H        0.44655112       1.13384191      -0.83710554
H       -1.75189701       0.76040835       0.04687970
H       -0.35489156      -1.50982277      -1.08609568
H        2.79027382       1.18147390       0.07962310
11
Frame=14 idx=005470 GeodesicLength=1.8868276381737703 rxn_smarts="[C:1]([N:2]([C:3](=[O:4])[C:5]#[C:6][H:11])[H:10])([H:7])([H:8])[H:9]>>[C:1](=[N:2][H:10])([H:7])[H:9].[C:3](=[O:4])=[C:5]=[C:6]([H:8])[H:11]"
C       -1.29820847       0.23327367      -0.78673292
N       -0.71278401      -0.92064378      -0.38179186
C        0.21030569      -0.81714143       1.21446451
O       -0.59304535      -0.78806798       2.09496473
C        1.41551840      -0.13697837       1.01872108
C        1.83807953       0.78993123       0.25723406
H       -1.99603890       0.11306373      -1.61970521
H        0.40535920       1.18017485      -0.81083631
H       -1.81033891       0.69421711       0.06079604
H       -0.31002167      -1.46989420      -1.13041613
H        2.85117448       1.12206518       0.08330200
11
Frame=15 idx=005470 GeodesicLength=2.0218033225435876 rxn_smarts="[C:1]([N:2]([C:3](=[O:4])[C:5]#[C:6][H:11])[H:10])([H:7])([H:8])[H:9]>>[C:1](=[N:2][H:10])([H:7])[H:9].[C:3](=[O:4])=[C:5]=[C:6]([H:8])[H:11]"
C       -1.32693408       0.22197041      -0.78758531
N       -0.70111884      -0.92368355      -0.40852860
C        0.21283575      -0.79527346       1.22657482
O       -0.60806773      -0.70450496       2.08619389
C        1.43023029      -0.14437039       1.02093106
C        1.88768019       0.77342501       0.27101566
H       -2.03118295       0.08744042      -1.61417541
H        0.36077521       1.22639345      -0.78253137
H       -1.86873708       0.62364562       0.07282161
H       -0.26818904      -1.42569612      -1.17376248
H        2.91270828       1.06065357       0.08904613
11
Frame=16 idx=005470 GeodesicLength=2.1568561316663537 rxn_smarts="[C:1]([N:2]([C:3](=[O:4])[C:5]#[C:6][H:11])[H:10])([H:7])([H:8])[H:9]>>[C:1](=[N:2][H:10])([H:7])[H:9].[C:3](=[O:4])=[C:5]=[C:6]([H:8])[H:11]"
C       -1.35729162       0.20976995      -0.78791657
N       -0.68928156      -0.92484991      -0.43566029
C        0.21546909      -0.77074740       1.23876751
O       -0.62010631      -0.61815879       2.07490752
C        1.44514996      -0.15125702       1.02280993
C        1.94007593       0.75499373       0.28520517
H       -2.06555922       0.05998724      -1.60969750
H        0.31191114       1.27287414      -0.75206026
H       -1.92682095       0.54785932       0.08312797
H       -0.22899967      -1.37675063      -1.21649947
H        2.97545321       0.99627938       0.09701600
