14
Frame=0 idx=010700 GeodesicLength=0.0 rxn_smarts="[C:1]([C@@:2]([C:3]([C:4](=[O:5])[H:14])([H:12])[H:13])([C:6]#[N:7])[H:11])([H:8])([H:9])[H:10]>>[C:1]([C@@:2]1([H:11])[C:6]([O:5][C:4](=[C:3]([H:12])[H:13])[H:14])=[N:7]1)([H:8])([H:9])[H:10]"
C       -1.43076472      -1.05830254       0.04997316
C       -0.50906990      -0.01603555       0.59345677
C        1.42153316      -0.37524235      -0.52808715
C        1.66567643       0.94732297      -0.32108242
O        0.74301340       1.84814031      -0.55441598
C       -0.54843296       1.35265808       0.14495932
N       -1.53508914       1.93741020       0.47387694
H       -2.37231013      -1.04107528       0.60170825
H       -0.99228137      -2.04828075       0.18597858
H       -1.64568997      -0.89624131      -1.00554187
H       -0.21175649      -0.14565403       1.63107632
H        2.14489500      -1.11082248      -0.19890174
H        0.72238874      -0.68682789      -1.29172050
H        2.54788789       1.29295057       0.21872026
14
Frame=1 idx=010700 GeodesicLength=0.09211363831083451 rxn_smarts="[C:1]([C@@:2]([C:3]([C:4](=[O:5])[H:14])([H:12])[H:13])([C:6]#[N:7])[H:11])([H:8])([H:9])[H:10]>>[C:1]([C@@:2]1([H:11])[C:6]([O:5][C:4](=[C:3]([H:12])[H:13])[H:14])=[N:7]1)([H:8])([H:9])[H:10]"
C       -1.42860664      -1.06945791       0.06266970
C       -0.51804387      -0.00492560       0.58293051
C        1.40646170      -0.36634949      -0.53590076
C        1.68736310       0.94628777      -0.29944449
O        0.78740428       1.87397008      -0.50397827
C       -0.56544762       1.35690934       0.11950873
N       -1.56817449       1.92013412       0.43583194
H       -2.36665304      -1.05963639       0.62051445
H       -0.97169066      -2.04915102       0.21241026
H       -1.65657401      -0.92605103      -0.99286782
H       -0.23092506      -0.11295659       1.62645208
H        2.11952872      -1.12456524      -0.23654867
H        0.71783715      -0.64257775      -1.32259759
H        2.58752042       1.25836970       0.23101994
14
Frame=2 idx=010700 GeodesicLength=0.1839328903170518 rxn_smarts="[C:1]([C@@:2]([C:3]([C:4](=[O:5])[H:14])([H:12])[H:13])([C:6]#[N:7])[H:11])([H:8])([H:9])[H:10]>>[C:1]([C@@:2]1([H:11])[C:6]([O:5][C:4](=[C:3]([H:12])[H:13])[H:14])=[N:7]1)([H:8])([H:9])[H:10]"
C       -1.42640191      -1.08025494       0.07498423
C       -0.52789217       0.00590121       0.57281747
C        1.39131337      -0.35686529      -0.54279889
C        1.70826802       0.94436204      -0.27735668
O        0.83006791       1.89684821      -0.44818586
C       -0.58189976       1.36094466       0.09482377
N       -1.60050037       1.90230608       0.39692934
H       -2.36156794      -1.07730289       0.63769450
H       -0.95147827      -2.04913365       0.23889890
H       -1.66526556      -0.95572083      -0.98059509
H       -0.25161336      -0.08110971       1.62177803
H        2.09355805      -1.13622821      -0.27316211
H        0.71433190      -0.59785295      -1.35115815
H        2.62908008       1.22410628       0.23533055
14
Frame=3 idx=010700 GeodesicLength=0.2755556208755977 rxn_smarts="[C:1]([C@@:2]([C:3]([C:4](=[O:5])[H:14])([H:12])[H:13])([C:6]#[N:7])[H:11])([H:8])([H:9])[H:10]>>[C:1]([C@@:2]1([H:11])[C:6]([O:5][C:4](=[C:3]([H:12])[H:13])[H:14])=[N:7]1)([H:8])([H:9])[H:10]"
C       -1.42429873      -1.09062944       0.08676563
C       -0.53861000       0.01635838       0.56314242
C        1.37628673      -0.34694065      -0.54843789
C        1.72841475       0.94157407      -0.25470591
O        0.87084276       1.91633058      -0.38747972
C       -0.59773722       1.36483923       0.07119359
N       -1.63185754       1.88409177       0.35766806
H       -2.35725493      -1.09408233       0.65311727
H       -0.93189466      -2.04826213       0.26517653
H       -1.67191295      -0.98493114      -0.96893046
H       -0.27392437      -0.05039518       1.61714162
H        2.06731962      -1.14589943      -0.30810610
H        0.71220055      -0.55301105      -1.37719043
H        2.67242598       1.19095733       0.23064539
14
Frame=4 idx=010700 GeodesicLength=0.3671648720359493 rxn_smarts="[C:1]([C@@:2]([C:3]([C:4](=[O:5])[H:14])([H:12])[H:13])([C:6]#[N:7])[H:11])([H:8])([H:9])[H:10]>>[C:1]([C@@:2]1([H:11])[C:6]([O:5][C:4](=[C:3]([H:12])[H:13])[H:14])=[N:7]1)([H:8])([H:9])[H:10]"
C       -1.42239158      -1.10054231       0.09802871
C       -0.55003256       0.02645796       0.55383717
C        1.36153351      -0.33668015      -0.55282914
C        1.74803394       0.93793321      -0.23159265
O        0.90986812       1.93205844      -0.32249230
C       -0.61277452       1.36870739       0.04880991
N       -1.66209244       1.86552239       0.31802989
H       -2.35375393      -1.11003919       0.66694517
H       -0.91306745      -2.04652155       0.29116021
H       -1.67684757      -1.01349223      -0.95778822
H       -0.29758823      -0.02089538       1.61241995
H        2.04102635      -1.15376087      -0.34136681
H        0.71150919      -0.50822517      -1.40069741
H        2.71657719       1.15947744       0.21753551
14
Frame=5 idx=010700 GeodesicLength=0.4581959209826384 rxn_smarts="[C:1]([C@@:2]([C:3]([C:4](=[O:5])[H:14])([H:12])[H:13])([C:6]#[N:7])[H:11])([H:8])([H:9])[H:10]>>[C:1]([C@@:2]1([H:11])[C:6]([O:5][C:4](=[C:3]([H:12])[H:13])[H:14])=[N:7]1)([H:8])([H:9])[H:10]"
C       -1.42066824      -1.10982568       0.10854134
C       -0.56207423       0.03611009       0.54489911
C        1.34709529      -0.32628633      -0.55549471
C        1.76693074       0.93327365      -0.20751260
O        0.94699282       1.94346020      -0.25383575
C       -0.62698314       1.37241246       0.02778458
N       -1.69070145       1.84668772       0.27878903
H       -2.35095301      -1.12500910       0.67893806
H       -0.89516607      -2.04378488       0.31646994
H       -1.68010253      -1.04105892      -0.94748639
H       -0.32265445       0.00718969       1.60772974
H        2.01482366      -1.15986359      -0.37213107
H        0.71253055      -0.46388043      -1.42141556
H        2.76093006       1.13057512       0.19472428
14
Frame=6 idx=010700 GeodesicLength=0.549365406087027 rxn_smarts="[C:1]([C@@:2]([C:3]([C:4](=[O:5])[H:14])([H:12])[H:13])([C:6]#[N:7])[H:11])([H:8])([H:9])[H:10]>>[C:1]([C@@:2]1([H:11])[C:6]([O:5][C:4](=[C:3]([H:12])[H:13])[H:14])=[N:7]1)([H:8])([H:9])[H:10]"
C       -1.41931529      -1.11866500       0.11847573
C       -0.57466706       0.04537878       0.53630110
C        1.33332766      -0.31593109      -0.55678425
C        1.78564867       0.92765040      -0.18256390
O        0.98271675       1.95074919      -0.18222985
C       -0.64029923       1.37636241       0.00813237
N       -1.71783109       1.82806989       0.23988716
H       -2.34915422      -1.13924351       0.68954694
H       -0.87832526      -2.04047476       0.34122226
H       -1.68203543      -1.06771945      -0.93786450
H       -0.34906702       0.03389355       1.60309205
H        1.98913240      -1.16476344      -0.40090302
H        0.71553609      -0.42001672      -1.43971033
H        2.80433302       1.10470975       0.16339822
14
Frame=7 idx=010700 GeodesicLength=0.6401533374338456 rxn_smarts="[C:1]([C@@:2]([C:3]([C:4](=[O:5])[H:14])([H:12])[H:13])([C:6]#[N:7])[H:11])([H:8])([H:9])[H:10]>>[C:1]([C@@:2]1([H:11])[C:6]([O:5][C:4](=[C:3]([H:12])[H:13])[H:14])=[N:7]1)([H:8])([H:9])[H:10]"
C       -1.41782470      -1.12682526       0.12821149
C       -0.58715707       0.05451412       0.52771521
C        1.31987517      -0.30544892      -0.55775787
C        1.80421232       0.92093433      -0.15790090
O        1.01725455       1.95357733      -0.10910430
C       -0.65250783       1.38045690      -0.01047713
N       -1.74323326       1.80917847       0.20062546
H       -2.34733203      -1.15265461       0.69955732
H       -0.86181483      -2.03602357       0.36572736
H       -1.68299517      -1.09347669      -0.92827346
H       -0.37550044       0.05977245       1.59796566
H        1.96347398      -1.16831716      -0.42897463
H        0.71958592      -0.37642054      -1.45627826
H        2.84396340       1.08073316       0.12896403
14
Frame=8 idx=010700 GeodesicLength=0.7307769491991404 rxn_smarts="[C:1]([C@@:2]([C:3]([C:4](=[O:5])[H:14])([H:12])[H:13])([C:6]#[N:7])[H:11])([H:8])([H:9])[H:10]>>[C:1]([C@@:2]1([H:11])[C:6]([O:5][C:4](=[C:3]([H:12])[H:13])[H:14])=[N:7]1)([H:8])([H:9])[H:10]"
C       -1.41676030      -1.13437155       0.13718343
C       -0.60001067       0.06316374       0.51939569
C        1.30713729      -0.29531431      -0.55666372
C        1.82279335       0.91248758      -0.13080910
O        1.05088079       1.95148554      -0.03322922
C       -0.66375751       1.38448949      -0.02776587
N       -1.76676373       1.79037515       0.16179213
H       -2.34646021      -1.16506384       0.70781708
H       -0.84656653      -2.03081132       0.38949973
H       -1.68293235      -1.11806883      -0.91947773
H       -0.40317739       0.08415771       1.59280654
H        1.93840109      -1.17102921      -0.45451106
H        0.72577418      -0.33324559      -1.46991626
H        2.88144199       1.06174545       0.08387837
14
Frame=9 idx=010700 GeodesicLength=0.8208458725638227 rxn_smarts="[C:1]([C@@:2]([C:3]([C:4](=[O:5])[H:14])([H:12])[H:13])([C:6]#[N:7])[H:11])([H:8])([H:9])[H:10]>>[C:1]([C@@:2]1([H:11])[C:6]([O:5][C:4](=[C:3]([H:12])[H:13])[H:14])=[N:7]1)([H:8])([H:9])[H:10]"
C       -1.41510105      -1.14132053       0.14657402
C       -0.61223404       0.07198391       0.51081254
C        1.29456923      -0.28502141      -0.55699042
C        1.84124501       0.90309173      -0.10587016
O        1.08366868       1.94535048       0.04164668
C       -0.67403574       1.38901533      -0.04466252
N       -1.78855611       1.77156598       0.12255686
H       -2.34471828      -1.17671883       0.71699187
H       -0.83099719      -2.02459913       0.41345671
H       -1.68214724      -1.14207415      -0.91009650
H       -0.42985796       0.10837136       1.58698676
H        1.91320290      -1.17263742      -0.48140409
H        0.73252138      -0.29019151      -1.48342552
H        2.91244041       1.04318420       0.04342378
14
Frame=10 idx=010700 GeodesicLength=0.9110379259817196 rxn_smarts="[C:1]([C@@:2]([C:3]([C:4](=[O:5])[H:14])([H:12])[H:13])([C:6]#[N:7])[H:11])([H:8])([H:9])[H:10]>>[C:1]([C@@:2]1([H:11])[C:6]([O:5][C:4](=[C:3]([H:12])[H:13])[H:14])=[N:7]1)([H:8])([H:9])[H:10]"
C       -1.41360856      -1.14770022       0.15569496
C       -0.62434295       0.08060422       0.50215022
C        1.28258359      -0.27499581      -0.55655242
C        1.85999407       0.89187991      -0.07972168
O        1.11609937       1.93452966       0.11730035
C       -0.68350421       1.39357648      -0.06091393
N       -1.80857211       1.75283394       0.08357443
H       -2.34331980      -1.18751519       0.72550855
H       -0.81613388      -2.01754590       0.43700119
H       -1.68091009      -1.16535804      -0.90080258
H       -0.45673241       0.13187947       1.58067203
H        1.88837825      -1.17352154      -0.50748456
H        0.74076542      -0.24742722      -1.49499540
H        2.93930333       1.02876025      -0.00143116
14
Frame=11 idx=010700 GeodesicLength=1.0007598157491613 rxn_smarts="[C:1]([C@@:2]([C:3]([C:4](=[O:5])[H:14])([H:12])[H:13])([C:6]#[N:7])[H:11])([H:8])([H:9])[H:10]>>[C:1]([C@@:2]1([H:11])[C:6]([O:5][C:4](=[C:3]([H:12])[H:13])[H:14])=[N:7]1)([H:8])([H:9])[H:10]"
C       -1.41144333      -1.15348347       0.16535145
C       -0.63580650       0.08942893       0.49309000
C        1.27055977      -0.26471341      -0.55772776
C        1.87843486       0.87952089      -0.05566377
O        1.14792715       1.91972982       0.19136796
C       -0.69252556       1.39848978      -0.07715083
N       -1.82726916       1.73386601       0.04418674
H       -2.34082866      -1.19759438       0.73514683
H       -0.80068387      -2.00938869       0.46079546
H       -1.67920463      -1.18819901      -0.89070031
H       -0.48240560       0.15543147       1.57354234
H        1.86318447      -1.17326614      -0.53527028
H        0.74920987      -0.20446822      -1.50664122
H        2.96085119       1.01464641      -0.04032659
14
Frame=12 idx=010700 GeodesicLength=1.0905848814605443 rxn_smarts="[C:1]([C@@:2]([C:3]([C:4](=[O:5])[H:14])([H:12])[H:13])([C:6]#[N:7])[H:11])([H:8])([H:9])[H:10]>>[C:1]([C@@:2]1([H:11])[C:6]([O:5][C:4](=[C:3]([H:12])[H:13])[H:14])=[N:7]1)([H:8])([H:9])[H:10]"
C       -1.40898284      -1.15881503       0.17540435
C       -0.64697661       0.09839142       0.48371916
C        1.25872180      -0.25425081      -0.55982329
C        1.89687373       0.86570826      -0.03239188
O        1.17954032       1.90085156       0.26471807
C       -0.70128065       1.40371122      -0.09335208
N       -1.84489304       1.71471221       0.00440438
H       -2.33791491      -1.20711610       0.74548576
H       -0.78504269      -2.00029636       0.48474867
H       -1.67712903      -1.21080159      -0.87990557
H       -0.50764800       0.17903514       1.56568514
H        1.83781076      -1.17203914      -0.56429101
H        0.75833979      -0.16117338      -1.51776928
H        2.97858136       1.00208259      -0.07663242
14
Frame=13 idx=010700 GeodesicLength=1.1803809492690147 rxn_smarts="[C:1]([C@@:2]([C:3]([C:4](=[O:5])[H:14])([H:12])[H:13])([C:6]#[N:7])[H:11])([H:8])([H:9])[H:10]>>[C:1]([C@@:2]1([H:11])[C:6]([O:5][C:4](=[C:3]([H:12])[H:13])[H:14])=[N:7]1)([H:8])([H:9])[H:10]"
C       -1.40609049      -1.16374608       0.18599524
C       -0.65789683       0.10757734       0.47406864
C        1.24692195      -0.24348371      -0.56308897
C        1.91516558       0.85046512      -0.01019755
O        1.21097555       1.87790422       0.33755016
C       -0.70996495       1.40941173      -0.10958464
N       -1.86168687       1.69527648      -0.03627132
H       -2.33440870      -1.21618061       0.75676584
H       -0.76897863      -1.99030241       0.50905938
H       -1.67455910      -1.23324409      -0.86833483
H       -0.53252176       0.20284418       1.55722103
H        1.81200751      -1.16983918      -0.59486033
H        0.76800963      -0.11725904      -1.52866546
H        2.99302711       0.99057606      -0.10965719
14
Frame=14 idx=010700 GeodesicLength=1.2701246010539553 rxn_smarts="[C:1]([C@@:2]([C:3]([C:4](=[O:5])[H:14])([H:12])[H:13])([C:6]#[N:7])[H:11])([H:8])([H:9])[H:10]>>[C:1]([C@@:2]1([H:11])[C:6]([O:5][C:4](=[C:3]([H:12])[H:13])[H:14])=[N:7]1)([H:8])([H:9])[H:10]"
C       -1.40266461      -1.16801156       0.19701417
C       -0.66842572       0.11695120       0.46389883
C        1.23495422      -0.23231245      -0.56728168
C        1.93307575       0.83359115       0.01116449
O        1.24218752       1.85044623       0.40947774
C       -0.71881843       1.41496324      -0.12628979
N       -1.87757611       1.67502094      -0.07734731
H       -2.32989567      -1.22450998       0.76885223
H       -0.75231915      -1.97881672       0.53340100
H       -1.67180948      -1.25544397      -0.85583318
H       -0.55654177       0.22702964       1.54768466
H        1.78557420      -1.16617251      -0.62671811
H        0.77786048      -0.07286752      -1.53892718
H        3.00439876       0.98013232      -0.13909587
14
Frame=15 idx=010700 GeodesicLength=1.3599344889248544 rxn_smarts="[C:1]([C@@:2]([C:3]([C:4](=[O:5])[H:14])([H:12])[H:13])([C:6]#[N:7])[H:11])([H:8])([H:9])[H:10]>>[C:1]([C@@:2]1([H:11])[C:6]([O:5][C:4](=[C:3]([H:12])[H:13])[H:14])=[N:7]1)([H:8])([H:9])[H:10]"
C       -1.39882684      -1.17194212       0.20869724
C       -0.67889391       0.12664188       0.45337087
C        1.22303013      -0.22068156      -0.57270865
C        1.95079544       0.81513679       0.03161444
O        1.27330349       1.81871782       0.48100741
C       -0.72807642       1.42099818      -0.14347735
N       -1.89304776       1.65444317      -0.11932856
H       -2.32479844      -1.23250161       0.78216555
H       -0.73507862      -1.96641076       0.55813217
H       -1.66866120      -1.27774258      -0.84237854
H       -0.58044854       0.25175527       1.53748405
H        1.75866124      -1.16140979      -0.66040238
H        0.78839152      -0.02753992      -1.54901396
H        3.01364990       0.97053524      -0.16516226
14
Frame=16 idx=010700 GeodesicLength=1.449787272732862 rxn_smarts="[C:1]([C@@:2]([C:3]([C:4](=[O:5])[H:14])([H:12])[H:13])([C:6]#[N:7])[H:11])([H:8])([H:9])[H:10]>>[C:1]([C@@:2]1([H:11])[C:6]([O:5][C:4](=[C:3]([H:12])[H:13])[H:14])=[N:7]1)([H:8])([H:9])[H:10]"
C       -1.39416792      -1.17520938       0.22108430
C       -0.68915430       0.13669422       0.44238682
C        1.21066017      -0.20828648      -0.57935416
C        1.96789876       0.79487360       0.05110403
O        1.30428534       1.78186033       0.55239970
C       -0.73785039       1.42711248      -0.16119971
N       -1.90801334       1.63259759      -0.16290544
H       -2.31840577      -1.23988618       0.79660310
H       -0.71676821      -1.95229829       0.58336160
H       -1.66486513      -1.29995335      -0.82774847
H       -0.60387211       0.27719160       1.52633467
H        1.73052243      -1.15493705      -0.69595971
H        0.79898171       0.01911138      -1.55869381
H        3.02074877       0.96112953      -0.18741293
