17
Frame=0 idx=006455 GeodesicLength=0.0 rxn_smarts="[C:1]([O:2][C:3]([C@@:4]([C:5]([H:14])([H:15])[H:16])([C:6](=[O:7])[H:17])[H:13])([H:11])[H:12])([H:8])([H:9])[H:10]>>[C:1]([O:2][C@:3]1([H:11])[C@:6]([C:4]([C:5]([H:14])([H:15])[H:16])([H:12])[H:13])([H:17])[O:7]1)([H:8])([H:9])[H:10]"
C        2.68504362       0.01570544       0.37434472
O        1.79079296      -1.04955685       0.04082513
C        0.63854335      -1.14477438       0.65245102
C       -0.93205234       0.11481820      -0.60349315
C       -2.31492216      -0.46332650      -0.80556835
C       -0.83757978       1.26451872       0.30495283
O       -1.66145126       1.55578759       1.14233800
H        2.43877072       0.88982665      -0.23203531
H        3.69278523      -0.32197049       0.14291360
H        2.60084096       0.26228381       1.43423952
H        0.54787907      -0.44856181       1.50479955
H       -0.37412840      -0.98878510      -0.08057635
H       -0.33936870       0.24653946      -1.50900011
H       -2.95154560       0.23919795      -1.34908873
H       -2.27687380      -1.39552510      -1.37081624
H       -2.79038665      -0.65447107       0.15646078
H        0.08365280       1.87829356       0.19725304
17
Frame=1 idx=006455 GeodesicLength=0.1836760702047977 rxn_smarts="[C:1]([O:2][C:3]([C@@:4]([C:5]([H:14])([H:15])[H:16])([C:6](=[O:7])[H:17])[H:13])([H:11])[H:12])([H:8])([H:9])[H:10]>>[C:1]([O:2][C@:3]1([H:11])[C@:6]([C:4]([C:5]([H:14])([H:15])[H:16])([H:12])[H:13])([H:17])[O:7]1)([H:8])([H:9])[H:10]"
C        2.73236598       0.02245548       0.46531770
O        1.80303417      -0.95766506       0.00178947
C        0.63346478      -1.06113766       0.58459664
C       -0.96529450       0.08865499      -0.66573398
C       -2.36425709      -0.47691112      -0.76875755
C       -0.80524236       1.25377580       0.21612474
O       -1.56285130       1.54217938       1.12188985
H        2.50721145       0.98673445       0.00412912
H        3.72463731      -0.29769165       0.15424551
H        2.68524929       0.11310205       1.55206565
H        0.52069636      -0.44151023       1.48804508
H       -0.38002538      -1.02734179      -0.18741877
H       -0.43414036       0.21414343      -1.60948878
H       -3.03563256       0.23915316      -1.24886731
H       -2.37665711      -1.39940788      -1.35086791
H       -2.76935027      -0.68503461       0.22159534
H        0.08679159       1.88650125       0.02133518
17
Frame=2 idx=006455 GeodesicLength=0.3523211004393498 rxn_smarts="[C:1]([O:2][C:3]([C@@:4]([C:5]([H:14])([H:15])[H:16])([C:6](=[O:7])[H:17])[H:13])([H:11])[H:12])([H:8])([H:9])[H:10]>>[C:1]([O:2][C@:3]1([H:11])[C@:6]([C:4]([C:5]([H:14])([H:15])[H:16])([H:12])[H:13])([H:17])[O:7]1)([H:8])([H:9])[H:10]"
C        2.76004230       0.02842159       0.54631990
O        1.81364138      -0.86919855      -0.02985685
C        0.62581429      -0.98229776       0.52065870
C       -0.99067192       0.06479661      -0.72258929
C       -2.39859446      -0.48760586      -0.72934706
C       -0.76866932       1.24550729       0.12773476
O       -1.46072772       1.53774463       1.09013321
H        2.53998884       1.05464163       0.24207943
H        3.74134193      -0.24291948       0.16162973
H        2.74614493      -0.03985751       1.63573460
H        0.49006950      -0.44765833       1.47109308
H       -0.37916745      -1.06131468      -0.28580570
H       -0.52064377       0.18309934      -1.69918818
H       -3.09661638       0.24111801      -1.14817712
H       -2.46103158      -1.40179175      -1.32135812
H       -2.73661359      -0.70965083       0.28301086
H        0.09569302       1.88696564      -0.14207194
17
Frame=3 idx=006455 GeodesicLength=0.5137487664348885 rxn_smarts="[C:1]([O:2][C:3]([C@@:4]([C:5]([H:14])([H:15])[H:16])([C:6](=[O:7])[H:17])[H:13])([H:11])[H:12])([H:8])([H:9])[H:10]>>[C:1]([O:2][C@:3]1([H:11])[C@:6]([C:4]([C:5]([H:14])([H:15])[H:16])([H:12])[H:13])([H:17])[O:7]1)([H:8])([H:9])[H:10]"
C        2.77281005       0.03371491       0.61738058
O        1.82143116      -0.78555602      -0.05458222
C        0.61599532      -0.90768077       0.46311793
C       -1.01002812       0.04316535      -0.77350643
C       -2.42051788      -0.49562870      -0.68924758
C       -0.73130806       1.23917756       0.04144359
O       -1.35980563       1.53934431       1.05055012
H        2.54515395       1.09332197       0.47477203
H        3.74517674      -0.16477287       0.16989249
H        2.79288412      -0.18999567       1.68578913
H        0.45720891      -0.46165125       1.45259716
H       -0.37411067      -1.09080909      -0.37347184
H       -0.59938842       0.15349304      -1.77737900
H       -3.13774576       0.24494410      -1.05047655
H       -2.53080680      -1.40276112      -1.28503510
H       -2.69627211      -0.72893213       0.33933560
H        0.10932319       1.88062638      -0.29117990
17
Frame=4 idx=006455 GeodesicLength=0.6711977580438008 rxn_smarts="[C:1]([O:2][C:3]([C@@:4]([C:5]([H:14])([H:15])[H:16])([C:6](=[O:7])[H:17])[H:13])([H:11])[H:12])([H:8])([H:9])[H:10]>>[C:1]([O:2][C@:3]1([H:11])[C@:6]([C:4]([C:5]([H:14])([H:15])[H:16])([H:12])[H:13])([H:17])[O:7]1)([H:8])([H:9])[H:10]"
C        2.77417554       0.03906548       0.67843967
O        1.82645611      -0.71017100      -0.07209814
C        0.60416962      -0.83867479       0.41327131
C       -1.02406424       0.02327570      -0.81797477
C       -2.43251997      -0.50068998      -0.65019516
C       -0.69430296       1.23347626      -0.03988034
O       -1.26209657       1.54317516       1.00811258
H        2.52883354       1.10463252       0.69004586
H        3.73822652      -0.07168377       0.18436792
H        2.82979735      -0.32539547       1.70621470
H        0.42306364      -0.48132000       1.43270477
H       -0.36662066      -1.11743212      -0.44995569
H       -0.66965443       0.12587635      -1.84383712
H       -3.16182177       0.25209523      -0.95750977
H       -2.58813274      -1.40098604      -1.24623923
H       -2.65213608      -0.74445801       0.38946995
H        0.12662709       1.86921449      -0.42493652
17
Frame=5 idx=006455 GeodesicLength=0.8270048824969507 rxn_smarts="[C:1]([O:2][C:3]([C@@:4]([C:5]([H:14])([H:15])[H:16])([C:6](=[O:7])[H:17])[H:13])([H:11])[H:12])([H:8])([H:9])[H:10]>>[C:1]([O:2][C@:3]1([H:11])[C@:6]([C:4]([C:5]([H:14])([H:15])[H:16])([H:12])[H:13])([H:17])[O:7]1)([H:8])([H:9])[H:10]"
C        2.76858965       0.04368025       0.73179004
O        1.82881858      -0.64080846      -0.08449748
C        0.59094383      -0.77335836       0.37036000
C       -1.03462427       0.00480592      -0.85682864
C       -2.43743881      -0.50370616      -0.61271018
C       -0.65964596       1.22838732      -0.11664872
O       -1.16969961       1.54832598       0.96386646
H        2.50005891       1.09237167       0.88888246
H        3.72254269       0.02945407       0.20628604
H        2.86284086      -0.44641998       1.70311009
H        0.38882335      -0.50235361       1.41087266
H       -0.35771163      -1.14142940      -0.51605389
H       -0.73340296       0.09998973      -1.90023962
H       -3.17311648       0.26134865      -0.86985066
H       -2.63550865      -1.39724627      -1.20633007
H       -2.60659233      -0.75756373       0.43400686
H        0.14512283       1.85452237      -0.54601534
17
Frame=6 idx=006455 GeodesicLength=0.9819656931551094 rxn_smarts="[C:1]([O:2][C:3]([C@@:4]([C:5]([H:14])([H:15])[H:16])([C:6](=[O:7])[H:17])[H:13])([H:11])[H:12])([H:8])([H:9])[H:10]>>[C:1]([O:2][C@:3]1([H:11])[C@:6]([C:4]([C:5]([H:14])([H:15])[H:16])([H:12])[H:13])([H:17])[O:7]1)([H:8])([H:9])[H:10]"
C        2.75906765       0.04689542       0.77924104
O        1.82884851      -0.57497094      -0.09329091
C        0.57678556      -0.71007597       0.33352359
C       -1.04288837      -0.01260134      -0.89083673
C       -2.43730421      -0.50545566      -0.57695290
C       -0.62845100       1.22400395      -0.18951579
O       -1.08391562       1.55478042       0.91812783
H        2.46521324       1.05906116       1.07323111
H        3.69972667       0.13396768       0.23648674
H        2.89540652      -0.55443748       1.68070556
H        0.35529000      -0.52155341       1.38716466
H       -0.34776811      -1.16308649      -0.57269759
H       -0.79199186       0.07528564      -1.94810648
H       -3.17482852       0.27171343      -0.78754051
H       -2.67499886      -1.39225664      -1.16612982
H       -2.56109761      -0.76920412       0.47371989
H        0.16290601       1.83793436      -0.65712970
17
Frame=7 idx=006455 GeodesicLength=1.1362936203026892 rxn_smarts="[C:1]([O:2][C:3]([C@@:4]([C:5]([H:14])([H:15])[H:16])([C:6](=[O:7])[H:17])[H:13])([H:11])[H:12])([H:8])([H:9])[H:10]>>[C:1]([O:2][C@:3]1([H:11])[C@:6]([C:4]([C:5]([H:14])([H:15])[H:16])([H:12])[H:13])([H:17])[O:7]1)([H:8])([H:9])[H:10]"
C        2.74764143       0.04789444       0.82213786
O        1.82683383      -0.51019905      -0.09947701
C        0.56195782      -0.64717937       0.30200348
C       -1.04958456      -0.02916218      -0.92067349
C       -2.43342779      -0.50662554      -0.54284652
C       -0.60141603       1.22060507      -0.25926350
O       -1.00581766       1.56317551       0.87071033
H        2.42893637       1.00576614       1.24501706
H        3.67112680       0.23860904       0.27586027
H        2.92898163      -0.65119402       1.64157402
H        0.32286648      -0.53629699       1.36199904
H       -0.33667912      -1.18246524      -0.62081977
H       -0.84641871       0.05123122      -1.98874399
H       -3.16943251       0.28209122      -0.71052171
H       -2.70777851      -1.38694883      -1.12579413
H       -2.51630023      -0.77987445       0.50948898
H        0.17851074       1.82057304      -0.76065093
17
Frame=8 idx=006455 GeodesicLength=1.2900269215193743 rxn_smarts="[C:1]([O:2][C:3]([C@@:4]([C:5]([H:14])([H:15])[H:16])([C:6](=[O:7])[H:17])[H:13])([H:11])[H:12])([H:8])([H:9])[H:10]>>[C:1]([O:2][C@:3]1([H:11])[C@:6]([C:4]([C:5]([H:14])([H:15])[H:16])([H:12])[H:13])([H:17])[O:7]1)([H:8])([H:9])[H:10]"
C        2.73515517       0.04656518       0.86115268
O        1.82307112      -0.44544553      -0.10333077
C        0.54656710      -0.58418431       0.27532698
C       -1.05486572      -0.04524111      -0.94673029
C       -2.42666742      -0.50739767      -0.51034544
C       -0.57827799       1.21799929      -0.32625892
O       -0.93549884       1.57383852       0.82169816
H        2.39296070       0.93331281       1.40437591
H        3.63725142       0.34165494       0.32507248
H        2.96429805      -0.73651861       1.58750790
H        0.29168158      -0.54562269       1.33613130
H       -0.32434197      -1.20003342      -0.66107390
H       -0.89688925       0.02715264      -2.02301127
H       -3.15834733       0.29241388      -0.63855853
H       -2.73506372      -1.38141089      -1.08573814
H       -2.47266205      -0.78975789       0.54191604
H        0.19162917       1.80267483      -0.85813420
17
Frame=9 idx=006455 GeodesicLength=1.4432523919643439 rxn_smarts="[C:1]([O:2][C:3]([C@@:4]([C:5]([H:14])([H:15])[H:16])([C:6](=[O:7])[H:17])[H:13])([H:11])[H:12])([H:8])([H:9])[H:10]>>[C:1]([O:2][C@:3]1([H:11])[C@:6]([C:4]([C:5]([H:14])([H:15])[H:16])([H:12])[H:13])([H:17])[O:7]1)([H:8])([H:9])[H:10]"
C        2.72231354       0.04241769       0.89671234
O        1.81763642      -0.37924080      -0.10501455
C        0.53056130      -0.52011041       0.25319982
C       -1.05882158      -0.06102357      -0.96935591
C       -2.41756318      -0.50806160      -0.47931598
C       -0.55902003       1.21628504      -0.39106930
O       -0.87344716       1.58750356       0.77080883
H        2.35916568       0.84142300       1.55150418
H        3.59855231       0.44155383       0.38512128
H        3.00138924      -0.81087394       1.51921679
H        0.26171070      -0.54808682       1.31044497
H       -0.31042462      -1.21586240      -0.69384997
H       -0.94358721       0.00243962      -2.05166428
H       -3.14290182       0.30211469      -0.57186304
H       -2.75720260      -1.37633822      -1.04574836
H       -2.43035040      -0.79866462       0.57171069
H        0.20198942       1.78452495      -0.95083751
17
Frame=10 idx=006455 GeodesicLength=1.5960361457629189 rxn_smarts="[C:1]([O:2][C:3]([C@@:4]([C:5]([H:14])([H:15])[H:16])([C:6](=[O:7])[H:17])[H:13])([H:11])[H:12])([H:8])([H:9])[H:10]>>[C:1]([O:2][C@:3]1([H:11])[C@:6]([C:4]([C:5]([H:14])([H:15])[H:16])([H:12])[H:13])([H:17])[O:7]1)([H:8])([H:9])[H:10]"
C        2.70890378       0.03602760       0.92879044
O        1.81063125      -0.31223562      -0.10423930
C        0.51379041      -0.45561645       0.23546460
C       -1.06116983      -0.07684528      -0.98865347
C       -2.40657781      -0.50833433      -0.44979300
C       -0.54259228       1.21484506      -0.45353946
O       -0.81890562       1.60389756       0.71855160
H        2.32711524       0.73112679       1.68415580
H        3.55432741       0.53738081       0.45618409
H        3.04073545      -0.87174183       1.43823775
H        0.23276382      -0.54423555       1.28588358
H       -0.29500531      -1.23067318      -0.71952351
H       -0.98609337      -0.02333371      -2.07510697
H       -3.12361506       0.31193462      -0.51014752
H       -2.77526793      -1.37107251      -1.00645686
H       -2.38972894      -0.80655779       0.59912981
H        0.21068878       1.76543381      -1.03893758
17
Frame=11 idx=006455 GeodesicLength=1.7485933304759813 rxn_smarts="[C:1]([O:2][C:3]([C@@:4]([C:5]([H:14])([H:15])[H:16])([C:6](=[O:7])[H:17])[H:13])([H:11])[H:12])([H:8])([H:9])[H:10]>>[C:1]([O:2][C@:3]1([H:11])[C@:6]([C:4]([C:5]([H:14])([H:15])[H:16])([H:12])[H:13])([H:17])[O:7]1)([H:8])([H:9])[H:10]"
C        2.69552859       0.02657295       0.95750308
O        1.80200646      -0.24199608      -0.10098348
C        0.49615938      -0.38887919       0.22203740
C       -1.06189389      -0.09276824      -1.00480017
C       -2.39389241      -0.50875541      -0.42158515
C       -0.52947803       1.21409700      -0.51440064
O       -0.77297872       1.62408429       0.66428036
H        2.29892127       0.60146930       1.80134269
H        3.50571860       0.62599991       0.54001010
H        3.08090352      -0.91972291       1.34454845
H        0.20471186      -0.53193288       1.26340356
H       -0.27735926      -1.24400538      -0.73780016
H       -1.02435324      -0.05087565      -2.09382366
H       -3.10167229       0.32079955      -0.45393782
H       -2.78876760      -1.36690264      -0.96729980
H       -2.35067653      -0.81315412       0.62490623
H        0.21712232       1.74596952      -1.12340098
17
Frame=12 idx=006455 GeodesicLength=1.9007892608445611 rxn_smarts="[C:1]([O:2][C:3]([C@@:4]([C:5]([H:14])([H:15])[H:16])([C:6](=[O:7])[H:17])[H:13])([H:11])[H:12])([H:8])([H:9])[H:10]>>[C:1]([O:2][C@:3]1([H:11])[C@:6]([C:4]([C:5]([H:14])([H:15])[H:16])([H:12])[H:13])([H:17])[O:7]1)([H:8])([H:9])[H:10]"
C        2.68099425       0.01593614       0.98233947
O        1.79194966      -0.17271057      -0.09507456
C        0.47749203      -0.32313643       0.21236425
C       -1.06055757      -0.10905387      -1.01773431
C       -2.37998071      -0.50820721      -0.39471817
C       -0.51714380       1.21249444      -0.57243741
O       -0.73268888       1.64597888       0.60981753
H        2.27164429       0.45651193       1.89803662
H        3.44994347       0.70780302       0.63492312
H        3.12319200      -0.94882126       1.24250682
H        0.17729247      -0.51493320       1.24329216
H       -0.25850233      -1.25741769      -0.74989605
H       -1.05792175      -0.07962306      -2.10796320
H       -3.07675535       0.33091391      -0.40231349
H       -2.79956467      -1.36161860      -0.92932997
H       -2.31378188      -0.81832960       0.64899825
H        0.22438878       1.72421320      -1.20281105
17
Frame=13 idx=006455 GeodesicLength=2.0528834117413353 rxn_smarts="[C:1]([O:2][C:3]([C@@:4]([C:5]([H:14])([H:15])[H:16])([C:6](=[O:7])[H:17])[H:13])([H:11])[H:12])([H:8])([H:9])[H:10]>>[C:1]([O:2][C@:3]1([H:11])[C@:6]([C:4]([C:5]([H:14])([H:15])[H:16])([H:12])[H:13])([H:17])[O:7]1)([H:8])([H:9])[H:10]"
C        2.66614995       0.00250398       1.00342727
O        1.78040805      -0.09949118      -0.08635451
C        0.45780394      -0.25479035       0.20646511
C       -1.05712843      -0.12567007      -1.02753635
C       -2.36464435      -0.50783335      -0.36884683
C       -0.50710758       1.21111177      -0.62896899
O       -0.70035257       1.67151302       0.55359614
H        2.24799173       0.29498666       1.97295546
H        3.39008515       0.77676199       0.74344022
H        3.16406088      -0.96165222       1.13179645
H        0.15044504      -0.48934393       1.22641503
H       -0.23694477      -1.26958563      -0.75469821
H       -1.08665349      -0.11070830      -2.11785365
H       -3.05022457       0.34009362      -0.35607675
H       -2.80608916      -1.35769380      -0.89139467
H       -2.27840425      -0.82182937       0.67236615
H        0.23060444       1.70162717      -1.27873188
17
Frame=14 idx=006455 GeodesicLength=2.2045336211804534 rxn_smarts="[C:1]([O:2][C:3]([C@@:4]([C:5]([H:14])([H:15])[H:16])([C:6](=[O:7])[H:17])[H:13])([H:11])[H:12])([H:8])([H:9])[H:10]>>[C:1]([O:2][C@:3]1([H:11])[C@:6]([C:4]([C:5]([H:14])([H:15])[H:16])([H:12])[H:13])([H:17])[O:7]1)([H:8])([H:9])[H:10]"
C        2.64946328      -0.01048862       1.02027025
O        1.76784549      -0.03063311      -0.07571336
C        0.43714487      -0.18989751       0.20295098
C       -1.05158733      -0.14271767      -1.03428425
C       -2.34871979      -0.50571214      -0.34392917
C       -0.49556041       1.20759055      -0.68184299
O       -0.67043961       1.69659847       0.49882672
H        2.22400296       0.12502162       2.02085693
H        3.32046385       0.83572390       0.86080402
H        3.20720918      -0.95020031       1.02101948
H        0.12425461      -0.46238848       1.21184938
H       -0.21526912      -1.28311659      -0.75503725
H       -1.11105967      -0.14212266      -2.12371291
H       -3.02106556       0.35197737      -0.31309687
H       -2.81167989      -1.35109438      -0.85501429
H       -2.24542190      -0.82386304       0.69460038
H        0.24041905       1.67532260      -1.34854705
17
Frame=15 idx=006455 GeodesicLength=2.356082172339363 rxn_smarts="[C:1]([O:2][C:3]([C@@:4]([C:5]([H:14])([H:15])[H:16])([C:6](=[O:7])[H:17])[H:13])([H:11])[H:12])([H:8])([H:9])[H:10]>>[C:1]([O:2][C@:3]1([H:11])[C@:6]([C:4]([C:5]([H:14])([H:15])[H:16])([H:12])[H:13])([H:17])[O:7]1)([H:8])([H:9])[H:10]"
C        2.63200073      -0.02589995       1.03307026
O        1.75407145       0.04289706      -0.06219854
C        0.41551796      -0.12210642       0.20231705
C       -1.04364037      -0.16012672      -1.03788153
C       -2.33140434      -0.50393309      -0.31955658
C       -0.48551999       1.20397788      -0.73322563
O       -0.64756079       1.72482168       0.44249447
H        2.20251268      -0.05493884       2.04072891
H        3.24776034       0.87471772       0.99000290
H        3.24597875      -0.92126061       0.90866337
H        0.09862091      -0.42714494       1.20080072
H       -0.19052061      -1.29540576      -0.74842218
H       -1.13040559      -0.17598621      -2.12563393
H       -2.99098610       0.36268796      -0.27491984
H       -2.81301285      -1.34623141      -0.81836765
H       -2.21347531      -0.82414392       0.71692826
H        0.25006312       1.64807556      -1.41480006
17
Frame=16 idx=006455 GeodesicLength=2.5074393052720154 rxn_smarts="[C:1]([O:2][C:3]([C@@:4]([C:5]([H:14])([H:15])[H:16])([C:6](=[O:7])[H:17])[H:13])([H:11])[H:12])([H:8])([H:9])[H:10]>>[C:1]([O:2][C@:3]1([H:11])[C@:6]([C:4]([C:5]([H:14])([H:15])[H:16])([H:12])[H:13])([H:17])[O:7]1)([H:8])([H:9])[H:10]"
C        2.61262514      -0.04009356       1.04167790
O        1.73969701       0.11104223      -0.04780672
C        0.39320599      -0.05843053       0.20278903
C       -1.03385787      -0.17781541      -1.03864659
C       -2.31381602      -0.50039615      -0.29567145
C       -0.47315410       1.19789449      -0.78067979
O       -0.62530794       1.75139014       0.38838754
H        2.18113582      -0.23452810       2.03000155
H        3.16477376       0.89850217       1.12350708
H        3.28555211      -0.86803099       0.80540445
H        0.07405544      -0.39222219       1.19158865
H       -0.16626573      -1.30947346      -0.73865402
H       -1.14625017      -0.20936959      -2.12401783
H       -2.95874854       0.37613822      -0.23880945
H       -2.81414362      -1.33842065      -0.78312763
H       -2.18356629      -0.82328152       0.73866434
H        0.26406503       1.61709490      -1.47460705
