14
Frame=0 idx=005072 GeodesicLength=0.0 rxn_smarts="[C:1]([C:2]([C@@:3]([N:4]([H:13])[H:14])([C:5]#[N:6])[H:12])([H:10])[H:11])([H:7])([H:8])[H:9]>>[C+:3]([N:4]([H:13])[H:14])=[C:5]=[N-:6].[C:1]([C:2]([H:10])([H:11])[H:12])([H:7])([H:8])[H:9]"
C       -1.90716534       0.23291966       0.17540323
C       -0.69494716      -0.62923337      -0.05713019
C        1.22809697       0.22137330       0.45609770
N        2.16253270      -0.61807940      -0.03754559
C        0.99387671       1.44816105      -0.21867522
N        0.81775902       2.47212668      -0.72056466
H       -1.75184432       1.24015415      -0.21433872
H       -2.15315697       0.30830253       1.23599698
H       -2.77652918      -0.18811938      -0.33676764
H       -0.75286189      -1.63440316       0.36737812
H       -0.37463937      -0.68348230      -1.09191524
H        0.19202412      -0.23472868       0.88381358
H        2.39867007      -0.66624612      -1.01507946
H        2.61818459      -1.26874494       0.57332711
14
Frame=1 idx=005072 GeodesicLength=0.07167584315514906 rxn_smarts="[C:1]([C:2]([C@@:3]([N:4]([H:13])[H:14])([C:5]#[N:6])[H:12])([H:10])[H:11])([H:7])([H:8])[H:9]>>[C+:3]([N:4]([H:13])[H:14])=[C:5]=[N-:6].[C:1]([C:2]([H:10])([H:11])[H:12])([H:7])([H:8])[H:9]"
C       -1.90966405       0.23287164       0.17060061
C       -0.69396126      -0.62860979      -0.05363347
C        1.23690790       0.22209847       0.45790698
N        2.16317875      -0.62379160      -0.04178194
C        1.00849941       1.45203387      -0.21603056
N        0.82177820       2.47916774      -0.70694836
H       -1.75124366       1.24180534      -0.21347125
H       -2.16513388       0.30386171       1.22928608
H       -2.77457292      -0.18592000      -0.35058263
H       -0.76183218      -1.63683654       0.36208434
H       -0.38021480      -0.68670336      -1.09104847
H        0.18709440      -0.23845537       0.90349883
H        2.35321777      -0.70126912      -1.02769627
H        2.66594632      -1.23025297       0.57781612
14
Frame=2 idx=005072 GeodesicLength=0.14314508960696706 rxn_smarts="[C:1]([C:2]([C@@:3]([N:4]([H:13])[H:14])([C:5]#[N:6])[H:12])([H:10])[H:11])([H:7])([H:8])[H:9]>>[C+:3]([N:4]([H:13])[H:14])=[C:5]=[N-:6].[C:1]([C:2]([H:10])([H:11])[H:12])([H:7])([H:8])[H:9]"
C       -1.91202240       0.23287609       0.16547787
C       -0.69292898      -0.62820880      -0.04958709
C        1.24583551       0.22280448       0.46023763
N        2.16369857      -0.62955208      -0.04561886
C        1.02316264       1.45574845      -0.21308748
N        0.82591259       2.48576385      -0.69319763
H       -1.75063688       1.24306603      -0.21402557
H       -2.17691008       0.30061177       1.22208194
H       -2.77243018      -0.18416889      -0.36420222
H       -0.77100436      -1.63913405       0.35774381
H       -0.38557642      -0.69075984      -1.08949247
H        0.18179062      -0.24230933       0.92387330
H        2.30897414      -0.73437179      -1.03686151
H        2.71213523      -1.19236589       0.57665828
14
Frame=3 idx=005072 GeodesicLength=0.2144748849190114 rxn_smarts="[C:1]([C:2]([C@@:3]([N:4]([H:13])[H:14])([C:5]#[N:6])[H:12])([H:10])[H:11])([H:7])([H:8])[H:9]>>[C+:3]([N:4]([H:13])[H:14])=[C:5]=[N-:6].[C:1]([C:2]([H:10])([H:11])[H:12])([H:7])([H:8])[H:9]"
C       -1.91434778       0.23277717       0.16053693
C       -0.69188283      -0.62782658      -0.04549781
C        1.25482454       0.22382117       0.46221068
N        2.16427217      -0.63542474      -0.04882699
C        1.03812753       1.45925385      -0.21144992
N        0.83014786       2.49237147      -0.67965400
H       -1.74989638       1.24442617      -0.21370520
H       -2.18887208       0.29665749       1.21493569
H       -2.77007949      -0.18218664      -0.37798822
H       -0.78004894      -1.64130586       0.35340536
H       -0.39106287      -0.69499213      -1.08786634
H        0.17616068      -0.24600703       0.94432466
H        2.26631491      -0.76740743      -1.04246591
H        2.75634268      -1.15415690       0.57204107
14
Frame=4 idx=005072 GeodesicLength=0.2856531451574828 rxn_smarts="[C:1]([C:2]([C@@:3]([N:4]([H:13])[H:14])([C:5]#[N:6])[H:12])([H:10])[H:11])([H:7])([H:8])[H:9]>>[C+:3]([N:4]([H:13])[H:14])=[C:5]=[N-:6].[C:1]([C:2]([H:10])([H:11])[H:12])([H:7])([H:8])[H:9]"
C       -1.91648376       0.23265956       0.15525991
C       -0.69068111      -0.62763871      -0.04088065
C        1.26400574       0.22500405       0.46461059
N        2.16485961      -0.64112017      -0.05169892
C        1.05308848       1.46277791      -0.20962004
N        0.83439813       2.49884736      -0.66571925
H       -1.74916654       1.24535793      -0.21483057
H       -2.20059042       0.29380192       1.20729718
H       -2.76746428      -0.18081244      -0.39159841
H       -0.78908014      -1.64333047       0.35003262
H       -0.39623772      -0.70002421      -1.08557929
H        0.17019769      -0.24969372       0.96545186
H        2.22478595      -0.79853891      -1.04533822
H        2.79836837      -1.11729010       0.56261318
14
Frame=5 idx=005072 GeodesicLength=0.35674219616732067 rxn_smarts="[C:1]([C:2]([C@@:3]([N:4]([H:13])[H:14])([C:5]#[N:6])[H:12])([H:10])[H:11])([H:7])([H:8])[H:9]>>[C+:3]([N:4]([H:13])[H:14])=[C:5]=[N-:6].[C:1]([C:2]([H:10])([H:11])[H:12])([H:7])([H:8])[H:9]"
C       -1.91859835       0.23252710       0.15008411
C       -0.68954571      -0.62749253      -0.03622791
C        1.27321042       0.22625936       0.46692696
N        2.16539050      -0.64709804      -0.05392859
C        1.06829110       1.46609250      -0.20840261
N        0.83881477       2.50492497      -0.65222197
H       -1.74834138       1.24638716      -0.21543532
H       -2.21240412       0.29060064       1.19964709
H       -2.76471687      -0.17920006      -0.40528893
H       -0.79820396      -1.64528817       0.34656242
H       -0.40149758      -0.70514951      -1.08320194
H        0.16374798      -0.25352055       0.98680871
H        2.18476856      -0.82914224      -1.04524864
H        2.83908463      -1.07990064       0.54992663
14
Frame=6 idx=005072 GeodesicLength=0.42778464693236273 rxn_smarts="[C:1]([C:2]([C@@:3]([N:4]([H:13])[H:14])([C:5]#[N:6])[H:12])([H:10])[H:11])([H:7])([H:8])[H:9]>>[C+:3]([N:4]([H:13])[H:14])=[C:5]=[N-:6].[C:1]([C:2]([H:10])([H:11])[H:12])([H:7])([H:8])[H:9]"
C       -1.92057736       0.23236413       0.14471770
C       -0.68831613      -0.62745690      -0.03125492
C        1.28257445       0.22767615       0.46949076
N        2.16597075      -0.65300754      -0.05569505
C        1.08358290       1.46939466      -0.20724177
N        0.84330994       2.51082930      -0.63854071
H       -1.74747170       1.24720821      -0.21669002
H       -2.22414515       0.28785368       1.19165881
H       -2.76171151      -0.17787267      -0.41899585
H       -0.80730615      -1.64713203       0.34358146
H       -0.40656240      -0.71073051      -1.08039936
H        0.15687249      -0.25740358       1.00868894
H        2.14571496      -0.85862931      -1.04267143
H        2.87806491      -1.04309357       0.53335146
14
Frame=7 idx=005072 GeodesicLength=0.4987241343887384 rxn_smarts="[C:1]([C:2]([C@@:3]([N:4]([H:13])[H:14])([C:5]#[N:6])[H:12])([H:10])[H:11])([H:7])([H:8])[H:9]>>[C+:3]([N:4]([H:13])[H:14])=[C:5]=[N-:6].[C:1]([C:2]([H:10])([H:11])[H:12])([H:7])([H:8])[H:9]"
C       -1.92240675       0.23212976       0.13926659
C       -0.68694798      -0.62747947      -0.02603985
C        1.29211770       0.22936220       0.47218240
N        2.16665555      -0.65875850      -0.05701552
C        1.09897728       1.47277791      -0.20625869
N        0.84778334       2.51653434      -0.62502425
H       -1.74657149       1.24786766      -0.21827164
H       -2.23578221       0.28529604       1.18345596
H       -2.75843173      -0.17679920      -0.43267300
H       -0.81626336      -1.64885105       0.34092930
H       -0.41141809      -0.71660333      -1.07726247
H        0.14958486      -0.26129673       1.03102509
H        2.10797141      -0.88679968      -1.03781992
H        2.91473147      -1.00737995       0.51350600
14
Frame=8 idx=005072 GeodesicLength=0.5695552797486786 rxn_smarts="[C:1]([C:2]([C@@:3]([N:4]([H:13])[H:14])([C:5]#[N:6])[H:12])([H:10])[H:11])([H:7])([H:8])[H:9]>>[C+:3]([N:4]([H:13])[H:14])=[C:5]=[N-:6].[C:1]([C:2]([H:10])([H:11])[H:12])([H:7])([H:8])[H:9]"
C       -1.92404754       0.23179945       0.13371413
C       -0.68537150      -0.62754008      -0.02055716
C        1.30189738       0.23139281       0.47505436
N        2.16749777      -0.66417433      -0.05801670
C        1.11442991       1.47638919      -0.20525054
N        0.85213911       2.52204160      -0.61180932
H       -1.74567478       1.24830655      -0.22034612
H       -2.24723208       0.28300901       1.17503073
H       -2.75484432      -0.17611933      -0.44625434
H       -0.82497108      -1.65043085       0.33864255
H       -0.41597899      -0.72273462      -1.07376287
H        0.14190439      -0.26518831       1.05386749
H        2.07150565      -0.91333041      -1.03104273
H        2.94874607      -0.97342070       0.49073051
14
Frame=9 idx=005072 GeodesicLength=0.6403184807368085 rxn_smarts="[C:1]([C:2]([C@@:3]([N:4]([H:13])[H:14])([C:5]#[N:6])[H:12])([H:10])[H:11])([H:7])([H:8])[H:9]>>[C+:3]([N:4]([H:13])[H:14])=[C:5]=[N-:6].[C:1]([C:2]([H:10])([H:11])[H:12])([H:7])([H:8])[H:9]"
C       -1.92560443       0.23141783       0.12826986
C       -0.68377304      -0.62760404      -0.01506668
C        1.31176373       0.23361970       0.47780373
N        2.16846565      -0.66960426      -0.05843909
C        1.13006501       1.47996444      -0.20474158
N        0.85661224       2.52723017      -0.59911283
H       -1.74467816       1.24884061      -0.22181087
H       -2.25874275       0.28025392       1.16657918
H       -2.75102488      -0.17522725      -0.45995036
H       -0.83361611      -1.65193488       0.33616274
H       -0.42049492      -0.72880895      -1.07019076
H        0.13367857      -0.26928066       1.07697712
H        2.03636836      -0.93935621      -1.02202395
H        2.98098072      -0.93951043       0.46554348
14
Frame=10 idx=005072 GeodesicLength=0.7110374584311141 rxn_smarts="[C:1]([C:2]([C@@:3]([N:4]([H:13])[H:14])([C:5]#[N:6])[H:12])([H:10])[H:11])([H:7])([H:8])[H:9]>>[C+:3]([N:4]([H:13])[H:14])=[C:5]=[N-:6].[C:1]([C:2]([H:10])([H:11])[H:12])([H:7])([H:8])[H:9]"
C       -1.92695257       0.23094937       0.12260572
C       -0.68197132      -0.62773603      -0.00922627
C        1.32191061       0.23614915       0.48078149
N        2.16955080      -0.67471337      -0.05865493
C        1.14572827       1.48376114      -0.20408231
N        0.86100658       2.53236918      -0.58621965
H       -1.74366786       1.24906728      -0.22417368
H       -2.27003979       0.27804124       1.15776849
H       -2.74688072      -0.17486815      -0.47355996
H       -0.84205981      -1.65329493       0.33421950
H       -0.42468425      -0.73527879      -1.06615058
H        0.12497517      -0.27340855       1.10067816
H        2.00220720      -0.96373022      -1.01146826
H        3.01087768      -0.90730731       0.43748229
14
Frame=11 idx=005072 GeodesicLength=0.7817090862986616 rxn_smarts="[C:1]([C:2]([C@@:3]([N:4]([H:13])[H:14])([C:5]#[N:6])[H:12])([H:10])[H:11])([H:7])([H:8])[H:9]>>[C+:3]([N:4]([H:13])[H:14])=[C:5]=[N-:6].[C:1]([C:2]([H:10])([H:11])[H:12])([H:7])([H:8])[H:9]"
C       -1.92816054       0.23040539       0.11698354
C       -0.68005357      -0.62786826      -0.00329871
C        1.33223782       0.23897283       0.48369213
N        2.17083225      -0.67962274      -0.05849522
C        1.16150265       1.48769657      -0.20371950
N        0.86539631       2.53731511      -0.57376255
H       -1.74259899       1.24928904      -0.22628240
H       -2.28129402       0.27557967       1.14886832
H       -2.74244821      -0.17451864      -0.48721782
H       -0.85031091      -1.65456513       0.33223558
H       -0.42870634      -0.74174068      -1.06195621
H        0.11572479      -0.27772492       1.12475048
H        1.96926460      -0.98723496      -0.99914877
H        3.03861418      -0.87598330       0.40735112
14
Frame=12 idx=005072 GeodesicLength=0.8523235774159011 rxn_smarts="[C:1]([C:2]([C@@:3]([N:4]([H:13])[H:14])([C:5]#[N:6])[H:12])([H:10])[H:11])([H:7])([H:8])[H:9]>>[C+:3]([N:4]([H:13])[H:14])=[C:5]=[N-:6].[C:1]([C:2]([H:10])([H:11])[H:12])([H:7])([H:8])[H:9]"
C       -1.92916341       0.22975025       0.11127013
C       -0.67791610      -0.62801153       0.00289072
C        1.34286544       0.24217378       0.48666311
N        2.17228240      -0.68413223      -0.05824290
C        1.17732875       1.49194163      -0.20333619
N        0.86964592       2.54218278      -0.56150524
H       -1.74151125       1.24930815      -0.22880217
H       -2.29238827       0.27327735       1.13973659
H       -2.73766094      -0.17455251      -0.50082954
H       -0.85826682      -1.65569312       0.33058094
H       -0.43242468      -0.74839479      -1.05740494
H        0.10595543      -0.28212384       1.14934692
H        1.93743309      -1.00911189      -0.98562656
H        3.06382043      -0.84661401       0.37525915
14
Frame=13 idx=005072 GeodesicLength=0.9229152537750365 rxn_smarts="[C:1]([C:2]([C@@:3]([N:4]([H:13])[H:14])([C:5]#[N:6])[H:12])([H:10])[H:11])([H:7])([H:8])[H:9]>>[C+:3]([N:4]([H:13])[H:14])=[C:5]=[N-:6].[C:1]([C:2]([H:10])([H:11])[H:12])([H:7])([H:8])[H:9]"
C       -1.93002172       0.22903496       0.10558756
C       -0.67567762      -0.62815052       0.00917253
C        1.35368909       0.24563593       0.48956788
N        2.17393232      -0.68845014      -0.05765894
C        1.19326440       1.49632489      -0.20317596
N        0.87391851       2.54684668      -0.54966226
H       -1.74034542       1.24933894      -0.23105929
H       -2.30346273       0.27072206       1.13048417
H       -2.73256486      -0.17455271      -0.51452638
H       -0.86605656      -1.65673410       0.32885892
H       -0.43596125      -0.75500258      -1.05268977
H        0.09552601      -0.28682272       1.17435093
H        1.90668397      -1.03023259      -0.97051333
H        3.08707584      -0.81795812       0.34126395
14
Frame=14 idx=005072 GeodesicLength=0.9934678626577298 rxn_smarts="[C:1]([C:2]([C@@:3]([N:4]([H:13])[H:14])([C:5]#[N:6])[H:12])([H:10])[H:11])([H:7])([H:8])[H:9]>>[C+:3]([N:4]([H:13])[H:14])=[C:5]=[N-:6].[C:1]([C:2]([H:10])([H:11])[H:12])([H:7])([H:8])[H:9]"
C       -1.93068569       0.22822016       0.09986949
C       -0.67324483      -0.62827934       0.01564896
C        1.36481177       0.24946258       0.49244373
N        2.17576668      -0.69240186      -0.05700303
C        1.20927095       1.50101009      -0.20307880
N        0.87806844       2.55142891      -0.53810558
H       -1.73915314       1.24923534      -0.23350427
H       -2.31438574       0.26818229       1.12105787
H       -2.72712990      -0.17482331      -0.52817612
H       -0.87355684      -1.65765349       0.32729225
H       -0.43922142      -0.76166837      -1.04770036
H        0.08446410      -0.29173845       1.19984808
H        1.87700443      -1.04997063      -0.95432313
H        3.10799119      -0.79100393       0.30573092
14
Frame=15 idx=005072 GeodesicLength=1.0639786270481426 rxn_smarts="[C:1]([C:2]([C@@:3]([N:4]([H:13])[H:14])([C:5]#[N:6])[H:12])([H:10])[H:11])([H:7])([H:8])[H:9]>>[C+:3]([N:4]([H:13])[H:14])=[C:5]=[N-:6].[C:1]([C:2]([H:10])([H:11])[H:12])([H:7])([H:8])[H:9]"
C       -1.93116368       0.22731396       0.09416618
C       -0.67063369      -0.62838366       0.02227925
C        1.37622604       0.25364633       0.49522687
N        2.17779668      -0.69600203      -0.05629099
C        1.22536548       1.50599196      -0.20310266
N        0.88210249       2.55589658      -0.52697624
H       -1.73792527       1.24905346      -0.23593377
H       -2.32518454       0.26552636       1.11150342
H       -2.72135665      -0.17526101      -0.54179617
H       -0.88077102      -1.65846015       0.32577504
H       -0.44222586      -0.76830334      -1.04248792
H        0.07270622      -0.29695526       1.22581500
H        1.84840521      -1.06845289      -0.93711663
H        3.12665858      -0.76561031       0.26893863
14
Frame=16 idx=005072 GeodesicLength=1.1344508237852622 rxn_smarts="[C:1]([C:2]([C@@:3]([N:4]([H:13])[H:14])([C:5]#[N:6])[H:12])([H:10])[H:11])([H:7])([H:8])[H:9]>>[C+:3]([N:4]([H:13])[H:14])=[C:5]=[N-:6].[C:1]([C:2]([H:10])([H:11])[H:12])([H:7])([H:8])[H:9]"
C       -1.93145389       0.22631797       0.08848775
C       -0.66784341      -0.62845706       0.02906766
C        1.38794857       0.25819333       0.49788107
N        2.18001982      -0.69924030      -0.05558604
C        1.24155150       1.51128573      -0.20326529
N        0.88601869       2.56026696      -0.51628300
H       -1.73665936       1.24880110      -0.23831947
H       -2.33586566       0.26273304       1.10182460
H       -2.71523631      -0.17585320      -0.55538795
H       -0.88769093      -1.65915346       0.32430016
H       -0.44497365      -0.77488729      -1.03705204
H        0.06019503      -0.30252528       1.25226147
H        1.82085043      -1.08568707      -0.91901973
H        3.14313917      -0.74179448       0.23109082
