11
Frame=0 idx=005469 GeodesicLength=0.0 rxn_smarts="[C:1]([N:2]([C:3](=[O:4])[C:5]#[C:6][H:11])[H:10])([H:7])([H:8])[H:9]>>[C:1]1([H:7])([H:9])[N:2]([H:10])[C:3](=[O:4])[C:5]1=[C:6]([H:8])[H:11]"
C       -0.83422363       0.21773295      -0.68933727
N       -0.95249483      -0.95668554       0.08920862
C        0.21430441      -0.97361510       0.84252376
O        0.59709172      -1.76934754       1.64299222
C        0.80378308       0.29597651       0.27638302
C        2.02935233       0.77868207       0.05517356
H       -0.50034878       0.10757579      -1.71654223
H        0.01009550       1.12030463       0.35785890
H       -1.63195912       0.95523532      -0.57906337
H       -1.81587494      -1.38757636       0.37283584
H        2.08027423       1.61171732      -0.65203310
11
Frame=1 idx=005469 GeodesicLength=0.13098007670744774 rxn_smarts="[C:1]([N:2]([C:3](=[O:4])[C:5]#[C:6][H:11])[H:10])([H:7])([H:8])[H:9]>>[C:1]1([H:7])([H:9])[N:2]([H:10])[C:3](=[O:4])[C:5]1=[C:6]([H:8])[H:11]"
C       -0.84761739       0.23670996      -0.67334674
N       -0.93605937      -0.96385582       0.07138852
C        0.21315283      -0.97111280       0.84609642
O        0.55618133      -1.71585907       1.71183730
C        0.82320794       0.27957802       0.26648079
C        2.03702964       0.78464841       0.06714086
H       -0.55702865       0.14580920      -1.71606567
H        0.02870039       1.15215729       0.35417294
H       -1.65906165       0.95122584      -0.52208109
H       -1.77906858      -1.46867498       0.28304458
H        2.12056350       1.56937395      -0.68866791
11
Frame=2 idx=005469 GeodesicLength=0.261900868368791 rxn_smarts="[C:1]([N:2]([C:3](=[O:4])[C:5]#[C:6][H:11])[H:10])([H:7])([H:8])[H:9]>>[C:1]1([H:7])([H:9])[N:2]([H:10])[C:3](=[O:4])[C:5]1=[C:6]([H:8])[H:11]"
C       -0.86262543       0.25431332      -0.65547576
N       -0.91993192      -0.97094389       0.05462723
C        0.21110176      -0.96774309       0.85108214
O        0.51004098      -1.65736194       1.77757731
C        0.84233014       0.26178752       0.25495263
C        2.04344441       0.78904204       0.07570334
H       -0.61761352       0.18308167      -1.71194226
H        0.04747305       1.18502073       0.34739404
H       -1.68602639       0.94405488      -0.46172333
H       -1.73197654      -1.54701787       0.18835999
H        2.16378345       1.52576662      -0.72055533
11
Frame=3 idx=005469 GeodesicLength=0.39279621994562264 rxn_smarts="[C:1]([N:2]([C:3](=[O:4])[C:5]#[C:6][H:11])[H:10])([H:7])([H:8])[H:9]>>[C:1]1([H:7])([H:9])[N:2]([H:10])[C:3](=[O:4])[C:5]1=[C:6]([H:8])[H:11]"
C       -0.87861570       0.27008383      -0.63684462
N       -0.90516674      -0.97745002       0.03934794
C        0.20802934      -0.96412655       0.85657775
O        0.46181943      -1.59733294       1.83613576
C        0.86064068       0.24272588       0.24257441
C        2.04784580       0.79317423       0.08314618
H       -0.68053122       0.21719251      -1.70473814
H        0.06512110       1.21869635       0.33747786
H       -1.71183263       0.93412240      -0.40115359
H       -1.67615452      -1.61822283       0.09457273
H        2.20884445       1.48113714      -0.74709627
11
Frame=4 idx=005469 GeodesicLength=0.523963774144631 rxn_smarts="[C:1]([N:2]([C:3](=[O:4])[C:5]#[C:6][H:11])[H:10])([H:7])([H:8])[H:9]>>[C:1]1([H:7])([H:9])[N:2]([H:10])[C:3](=[O:4])[C:5]1=[C:6]([H:8])[H:11]"
C       -0.89525475       0.28395989      -0.61777240
N       -0.89204362      -0.98348641       0.02580449
C        0.20421625      -0.96071822       0.86232777
O        0.41246058      -1.53707567       1.88759135
C        0.87831285       0.22224244       0.22967397
C        2.05016440       0.79722180       0.08922782
H       -0.74528901       0.24760468      -1.69476821
H        0.08140585       1.25308409       0.32451870
H       -1.73600528       0.92183481      -0.34110776
H       -1.61323912      -1.68104561       0.00276034
H        2.25527186       1.43637821      -0.76825606
11
Frame=5 idx=005469 GeodesicLength=0.6553943705033654 rxn_smarts="[C:1]([N:2]([C:3](=[O:4])[C:5]#[C:6][H:11])[H:10])([H:7])([H:8])[H:9]>>[C:1]1([H:7])([H:9])[N:2]([H:10])[C:3](=[O:4])[C:5]1=[C:6]([H:8])[H:11]"
C       -0.91209127       0.29584708      -0.59855857
N       -0.88060028      -0.98918781       0.01412516
C        0.19993011      -0.95780981       0.86807304
O        0.36311466      -1.47773900       1.93189289
C        0.89546797       0.20014772       0.21647939
C        2.05010725       0.80138231       0.09382775
H       -0.81118237       0.27373771      -1.68225940
H        0.09597305       1.28803719       0.30862110
H       -1.75807864       0.90755531      -0.28231711
H       -1.54518211      -1.73414889      -0.08595368
H        2.30254164       1.39217820      -0.78393058
11
Frame=6 idx=005469 GeodesicLength=0.7870231664145262 rxn_smarts="[C:1]([N:2]([C:3](=[O:4])[C:5]#[C:6][H:11])[H:10])([H:7])([H:8])[H:9]>>[C:1]1([H:7])([H:9])[N:2]([H:10])[C:3](=[O:4])[C:5]1=[C:6]([H:8])[H:11]"
C       -0.92902633       0.30628949      -0.57944258
N       -0.87134308      -0.99416437       0.00429627
C        0.19474343      -0.95513748       0.87384108
O        0.31541932      -1.42034698       1.96911263
C        0.91195272       0.17657568       0.20338210
C        2.04722368       0.80609068       0.09746924
H       -0.87771521       0.29581982      -1.66741787
H        0.10831994       1.32390032       0.29017093
H       -1.77807922       0.89225966      -0.22546149
H       -1.47188753      -1.77827353      -0.17115448
H        2.35039228       1.34698670      -0.79479584
11
Frame=7 idx=005469 GeodesicLength=0.9188383865923324 rxn_smarts="[C:1]([N:2]([C:3](=[O:4])[C:5]#[C:6][H:11])[H:10])([H:7])([H:8])[H:9]>>[C:1]1([H:7])([H:9])[N:2]([H:10])[C:3](=[O:4])[C:5]1=[C:6]([H:8])[H:11]"
C       -0.94531231       0.31462706      -0.56110699
N       -0.86318873      -0.99959020      -0.00464270
C        0.18965607      -0.95360121       0.87883702
O        0.26985590      -1.36539940       1.99981415
C        0.92855783       0.15080578       0.18977860
C        2.04180821       0.81104670       0.09933996
H       -0.94420760       0.31328707      -1.65098071
H        0.11862181       1.36008123       0.26876208
H       -1.79538911       0.87543662      -0.17104318
H       -1.39899747      -1.81133193      -0.24975506
H        2.39859540       1.30463828      -0.79900316
11
Frame=8 idx=005469 GeodesicLength=1.050942632044195 rxn_smarts="[C:1]([N:2]([C:3](=[O:4])[C:5]#[C:6][H:11])[H:10])([H:7])([H:8])[H:9]>>[C:1]1([H:7])([H:9])[N:2]([H:10])[C:3](=[O:4])[C:5]1=[C:6]([H:8])[H:11]"
C       -0.96112857       0.32181219      -0.54327913
N       -0.85653790      -1.00491372      -0.01271555
C        0.18397463      -0.95261791       0.88363648
O        0.22682018      -1.31293890       2.02516102
C        0.94512241       0.12320098       0.17648710
C        2.03338401       0.81666555       0.09946551
H       -1.01055077       0.32740948      -1.63272982
H        0.12652070       1.39747788       0.24513626
H       -1.81042639       0.85805195      -0.11874271
H       -1.32410738      -1.83606237      -0.32396911
H        2.44692908       1.26191488      -0.79845005
11
Frame=9 idx=005469 GeodesicLength=1.183053840209153 rxn_smarts="[C:1]([N:2]([C:3](=[O:4])[C:5]#[C:6][H:11])[H:10])([H:7])([H:8])[H:9]>>[C:1]1([H:7])([H:9])[N:2]([H:10])[C:3](=[O:4])[C:5]1=[C:6]([H:8])[H:11]"
C       -0.97595806       0.32723031      -0.52630536
N       -0.85046239      -1.01076045      -0.02028628
C        0.17871886      -0.95272352       0.88743449
O        0.18669709      -1.26274213       2.04523550
C        0.96234482       0.09294875       0.16246233
C        2.02209515       0.82217607       0.09705177
H       -1.07626197       0.33748277      -1.61287199
H        0.13220626       1.43560309       0.21820913
H       -1.82266957       0.83968707      -0.06866836
H       -1.25256822      -1.85153258      -0.39163973
H        2.49585802       1.22263061      -0.79062150
11
Frame=10 idx=005469 GeodesicLength=1.3152516614828413 rxn_smarts="[C:1]([N:2]([C:3](=[O:4])[C:5]#[C:6][H:11])[H:10])([H:7])([H:8])[H:9]>>[C:1]1([H:7])([H:9])[N:2]([H:10])[C:3](=[O:4])[C:5]1=[C:6]([H:8])[H:11]"
C       -0.98944542       0.33166725      -0.51024573
N       -0.84502547      -1.01680683      -0.02777035
C        0.17344635      -0.95392442       0.89062549
O        0.14932301      -1.21500602       2.06109419
C        0.98048329       0.06004280       0.14872860
C        2.00779972       0.82759708       0.09166451
H       -1.14052025       0.34463205      -1.59161397
H        0.13567172       1.47517609       0.18910751
H       -1.83200099       0.82113464      -0.02094032
H       -1.18350347      -1.86009088      -0.45350976
H        2.54377152       1.18557825      -0.77714017
11
Frame=11 idx=005469 GeodesicLength=1.4475350884963625 rxn_smarts="[C:1]([N:2]([C:3](=[O:4])[C:5]#[C:6][H:11])[H:10])([H:7])([H:8])[H:9]>>[C:1]1([H:7])([H:9])[N:2]([H:10])[C:3](=[O:4])[C:5]1=[C:6]([H:8])[H:11]"
C       -1.00123606       0.33515085      -0.49512117
N       -0.83980263      -1.02317521      -0.03533186
C        0.16851712      -0.95650416       0.89307748
O        0.11445668      -1.16915369       2.07323267
C        1.00004543       0.02385822       0.13510285
C        1.99048257       0.83219666       0.08273775
H       -1.20315550       0.34906604      -1.56892346
H        0.13716573       1.51637648       0.15732263
H       -1.83798885       0.80257819       0.02474211
H       -1.11876159      -1.86270715      -0.50960853
H        2.59027710       1.15231376      -0.75723046
11
Frame=12 idx=005469 GeodesicLength=1.5799373215676171 rxn_smarts="[C:1]([N:2]([C:3](=[O:4])[C:5]#[C:6][H:11])[H:10])([H:7])([H:8])[H:9]>>[C:1]1([H:7])([H:9])[N:2]([H:10])[C:3](=[O:4])[C:5]1=[C:6]([H:8])[H:11]"
C       -1.01129026       0.33799151      -0.48071008
N       -0.83472844      -1.02972523      -0.04288032
C        0.16382720      -0.96032592       0.89509031
O        0.08209900      -1.12517983       2.08224968
C        1.02114933      -0.01569723       0.12212750
C        1.96962887       0.83568890       0.06942517
H       -1.26385942       0.35134129      -1.54460377
H        0.13644906       1.55990308       0.12261379
H       -1.84066577       0.78434218       0.06872742
H       -1.05771393      -1.86044703      -0.56110231
H        2.63510434       1.12210829      -0.73093740
11
Frame=13 idx=005469 GeodesicLength=1.712308637258447 rxn_smarts="[C:1]([N:2]([C:3](=[O:4])[C:5]#[C:6][H:11])[H:10])([H:7])([H:8])[H:9]>>[C:1]1([H:7])([H:9])[N:2]([H:10])[C:3](=[O:4])[C:5]1=[C:6]([H:8])[H:11]"
C       -1.01948884       0.34019858      -0.46687522
N       -0.82994515      -1.03638404      -0.05006114
C        0.15950170      -0.96544508       0.89659267
O        0.05259317      -1.08290792       2.08829109
C        1.04408322      -0.05955913       0.10937231
C        1.94517972       0.83634891       0.05100897
H       -1.32248883       0.35160032      -1.51837822
H        0.13400107       1.60580031       0.08309040
H       -1.83959225       0.76696046       0.11137678
H       -1.00140008      -1.85392390      -0.60807083
H        2.67755628       1.09731149      -0.69634682
11
Frame=14 idx=005469 GeodesicLength=1.8447757091954213 rxn_smarts="[C:1]([N:2]([C:3](=[O:4])[C:5]#[C:6][H:11])[H:10])([H:7])([H:8])[H:9]>>[C:1]1([H:7])([H:9])[N:2]([H:10])[C:3](=[O:4])[C:5]1=[C:6]([H:8])[H:11]"
C       -1.02530787       0.34224850      -0.45345952
N       -0.82509908      -1.04303833      -0.05717345
C        0.15534816      -0.97215352       0.89805314
O        0.02526536      -1.04254378       2.09212123
C        1.06917805      -0.10790045       0.09839016
C        1.91675864       0.83352715       0.02647821
H       -1.37795101       0.35080130      -1.49031859
H        0.12993918       1.65469857       0.03899498
H       -1.83439017       0.75086528       0.15285495
H       -0.94884781      -1.84409097      -0.65135757
H        2.71510655       1.07758626      -0.65458354
11
Frame=15 idx=005469 GeodesicLength=1.9773451018337223 rxn_smarts="[C:1]([N:2]([C:3](=[O:4])[C:5]#[C:6][H:11])[H:10])([H:7])([H:8])[H:9]>>[C:1]1([H:7])([H:9])[N:2]([H:10])[C:3](=[O:4])[C:5]1=[C:6]([H:8])[H:11]"
C       -1.02825001       0.34438898      -0.44025570
N       -0.81990768      -1.04956471      -0.06428457
C        0.15132494      -0.98080870       0.89969885
O       -0.00034684      -1.00423815       2.09405876
C        1.09679228      -0.16131789       0.09019481
C        1.88448196       0.82528988      -0.00449174
H       -1.42976194       0.34961772      -1.46018355
H        0.12517977       1.70658308      -0.01142832
H       -1.82429078       0.73662576       0.19362063
H       -0.89999113      -1.83139894      -0.69145474
H        2.74476944       1.06482295      -0.60547441
11
Frame=16 idx=005469 GeodesicLength=2.110104815049492 rxn_smarts="[C:1]([N:2]([C:3](=[O:4])[C:5]#[C:6][H:11])[H:10])([H:7])([H:8])[H:9]>>[C:1]1([H:7])([H:9])[N:2]([H:10])[C:3](=[O:4])[C:5]1=[C:6]([H:8])[H:11]"
C       -1.02812970       0.34696116      -0.42686184
N       -0.81405014      -1.05578396      -0.07152766
C        0.14733264      -0.99165652       0.90179068
O       -0.02460763      -0.96862041       2.09443710
C        1.12697845      -0.21969025       0.08620898
C        1.84853408       0.80991133      -0.04191793
H       -1.47788284       0.34891124      -1.42749297
H        0.12076636       1.76121286      -0.07085747
H       -1.80871053       0.72471378       0.23450679
H       -0.85371870      -1.81587745      -0.72933811
H        2.76348800       1.05991824      -0.54894757
