15
Frame=0 idx=007307 GeodesicLength=0.0 rxn_smarts="[C:1]([C:2]([C:3](=[O:4])[C:5]#[C:6][C:7]([H:13])([H:14])[H:15])([H:11])[H:12])([H:8])([H:9])[H:10]>>[C:1](=[C:2]([H:11])[H:12])([H:9])[H:10].[C:3](=[O:4])=[C:5]=[C:6]([C:7]([H:13])([H:14])[H:15])[H:8]"
C       -1.41627305      -0.76991609      -0.37847483
C       -1.82279147       0.54428197      -0.19118056
C       -0.41034138       1.86613025       0.29431770
O       -0.91002831       2.92142823       0.41703603
C        0.79639609       1.19303653       0.36034477
C        1.08233937      -0.03944643       0.16818884
C        2.28337337      -0.90575977       0.19495196
H        0.04008694      -0.62813464      -0.11430999
H       -1.31278692      -1.16694434      -1.38255077
H       -1.60196262      -1.50864278       0.39370215
H       -2.38036368       0.79128691       0.70520258
H       -2.09196715       1.13246031      -1.06119376
H        3.17995644      -0.34046583       0.43996877
H        2.14881580      -1.70201077       0.93036151
H        2.41554653      -1.38730362      -0.77636436
15
Frame=1 idx=007307 GeodesicLength=0.11888791265212273 rxn_smarts="[C:1]([C:2]([C:3](=[O:4])[C:5]#[C:6][C:7]([H:13])([H:14])[H:15])([H:11])[H:12])([H:8])([H:9])[H:10]>>[C:1](=[C:2]([H:11])[H:12])([H:9])[H:10].[C:3](=[O:4])=[C:5]=[C:6]([C:7]([H:13])([H:14])[H:15])[H:8]"
C       -1.44462463      -0.77613951      -0.36792812
C       -1.82766898       0.55183448      -0.21536871
C       -0.40681006       1.85123104       0.32871671
O       -0.89002628       2.91109240       0.48119958
C        0.80310979       1.18179469       0.36335275
C        1.09292828      -0.05003484       0.17357940
C        2.31008650      -0.89428504       0.18622503
H        0.01997975      -0.65504590      -0.10014096
H       -1.36129685      -1.20196573      -1.36215537
H       -1.66024880      -1.48967752       0.42034564
H       -2.43804592       0.81989867       0.63993060
H       -2.04152625       1.13101906      -1.10701140
H        3.20159573      -0.31379743       0.41450254
H        2.20320321      -1.68780771       0.92908284
H        2.43934451      -1.37811666      -0.78433055
15
Frame=2 idx=007307 GeodesicLength=0.23703096906438847 rxn_smarts="[C:1]([C:2]([C:3](=[O:4])[C:5]#[C:6][C:7]([H:13])([H:14])[H:15])([H:11])[H:12])([H:8])([H:9])[H:10]>>[C:1](=[C:2]([H:11])[H:12])([H:9])[H:10].[C:3](=[O:4])=[C:5]=[C:6]([C:7]([H:13])([H:14])[H:15])[H:8]"
C       -1.47381438      -0.78191154      -0.35700853
C       -1.83169716       0.55894528      -0.23971947
C       -0.40321604       1.83575791       0.35945336
O       -0.87172844       2.89761066       0.54587972
C        0.80892991       1.16974836       0.36964829
C        1.10384425      -0.06079816       0.18010913
C        2.33681510      -0.88228062       0.17733396
H       -0.00110723      -0.68275034      -0.08507198
H       -1.41193151      -1.23554207      -1.34058772
H       -1.71990629      -1.46847231       0.44651613
H       -2.48992592       0.85057678       0.57155920
H       -1.98998236       1.12631466      -1.15083619
H        3.22244673      -0.28665399       0.38983934
H        2.25780579      -1.67358700       0.92601088
H        2.46346756      -1.36695762      -0.79312611
15
Frame=3 idx=007307 GeodesicLength=0.3545497006559422 rxn_smarts="[C:1]([C:2]([C:3](=[O:4])[C:5]#[C:6][C:7]([H:13])([H:14])[H:15])([H:11])[H:12])([H:8])([H:9])[H:10]>>[C:1](=[C:2]([H:11])[H:12])([H:9])[H:10].[C:3](=[O:4])=[C:5]=[C:6]([C:7]([H:13])([H:14])[H:15])[H:8]"
C       -1.50384299      -0.78716664      -0.34572604
C       -1.83481071       0.56558237      -0.26430456
C       -0.39954380       1.82001735       0.38659304
O       -0.85532073       2.88083927       0.61130059
C        0.81415148       1.15700590       0.37875000
C        1.11519164      -0.07172589       0.18781663
C        2.36356887      -0.86976314       0.16830993
H       -0.02326744      -0.71121192      -0.06902497
H       -1.46469001      -1.26753436      -1.31786985
H       -1.78090020      -1.44486543       0.47210646
H       -2.53594572       0.88296337       0.50033412
H       -1.93757055       1.11816257      -1.19277877
H        3.24257795      -0.25905500       0.36592613
H        2.31263356      -1.65930623       0.92126563
H        2.48776866      -1.35394223      -0.80269835
15
Frame=4 idx=007307 GeodesicLength=0.4715622033005604 rxn_smarts="[C:1]([C:2]([C:3](=[O:4])[C:5]#[C:6][C:7]([H:13])([H:14])[H:15])([H:11])[H:12])([H:8])([H:9])[H:10]>>[C:1](=[C:2]([H:11])[H:12])([H:9])[H:10].[C:3](=[O:4])=[C:5]=[C:6]([C:7]([H:13])([H:14])[H:15])[H:8]"
C       -1.53471681      -0.79180042      -0.33430673
C       -1.83707351       0.57169445      -0.28892414
C       -0.39571784       1.80423511       0.41019399
O       -0.84086292       2.86041962       0.67799553
C        0.81916464       1.14389189       0.38893606
C        1.12716511      -0.08268543       0.19614984
C        2.39037551      -0.85678504       0.15943757
H       -0.04653438      -0.74029858      -0.05246081
H       -1.51971526      -1.29745835      -1.29441099
H       -1.84292279      -1.41894192       0.49666668
H       -2.57591600       0.91645735       0.42712089
H       -1.88509951       1.10661979      -1.23251690
H        3.26208534      -0.23103419       0.34282086
H        2.36741921      -1.64447755       0.91569629
H        2.51234921      -1.33983674      -0.81239815
15
Frame=5 idx=007307 GeodesicLength=0.5880166029155175 rxn_smarts="[C:1]([C:2]([C:3](=[O:4])[C:5]#[C:6][C:7]([H:13])([H:14])[H:15])([H:11])[H:12])([H:8])([H:9])[H:10]>>[C:1](=[C:2]([H:11])[H:12])([H:9])[H:10].[C:3](=[O:4])=[C:5]=[C:6]([C:7]([H:13])([H:14])[H:15])[H:8]"
C       -1.56645532      -0.79568794      -0.32264139
C       -1.83842232       0.57731435      -0.31379442
C       -0.39160496       1.78864593       0.43062495
O       -0.82866297       2.83564517       0.74640767
C        0.82415535       1.13054663       0.39975295
C        1.13984534      -0.09364483       0.20495088
C        2.41728481      -0.84333150       0.15062522
H       -0.07107554      -0.76998673      -0.03495861
H       -1.57697118      -1.32529203      -1.26999646
H       -1.90604179      -1.39031708       0.52029046
H       -2.61004624       0.95086496       0.35179392
H       -1.83243900       1.09156797      -1.27045263
H        3.28106339      -0.20258016       0.32034625
H        2.42221628      -1.62898943       0.90932122
H        2.53715417      -1.32475531      -0.82227001
15
Frame=6 idx=007307 GeodesicLength=0.7040910057081857 rxn_smarts="[C:1]([C:2]([C:3](=[O:4])[C:5]#[C:6][C:7]([H:13])([H:14])[H:15])([H:11])[H:12])([H:8])([H:9])[H:10]>>[C:1](=[C:2]([H:11])[H:12])([H:9])[H:10].[C:3](=[O:4])=[C:5]=[C:6]([C:7]([H:13])([H:14])[H:15])[H:8]"
C       -1.59914494      -0.79876991      -0.31082205
C       -1.83890016       0.58240136      -0.33883339
C       -0.38729081       1.77323524       0.44829988
O       -0.81854251       2.80622497       0.81630479
C        0.82919293       1.11704538       0.41059947
C        1.15335186      -0.10455651       0.21423132
C        2.44435706      -0.82938104       0.14195462
H       -0.09704421      -0.80024390      -0.01656760
H       -1.63642516      -1.35071909      -1.24488633
H       -1.97018462      -1.35900176       0.54274638
H       -2.63833305       0.98590383       0.27476654
H       -1.77988972       1.07304867      -1.30647237
H        3.29958785      -0.17361083       0.29825131
H        2.47716602      -1.61257768       0.90250418
H        2.56209944      -1.30899874      -0.83207673
15
Frame=7 idx=007307 GeodesicLength=0.8197901532020283 rxn_smarts="[C:1]([C:2]([C:3](=[O:4])[C:5]#[C:6][C:7]([H:13])([H:14])[H:15])([H:11])[H:12])([H:8])([H:9])[H:10]>>[C:1](=[C:2]([H:11])[H:12])([H:9])[H:10].[C:3](=[O:4])=[C:5]=[C:6]([C:7]([H:13])([H:14])[H:15])[H:8]"
C       -1.63285450      -0.80090446      -0.29870823
C       -1.83841773       0.58695953      -0.36424755
C       -0.38268451       1.75803492       0.46374300
O       -0.81081996       2.77139965       0.88782109
C        0.83437922       1.10345631       0.42127005
C        1.16774937      -0.11531214       0.22378056
C        2.47163883      -0.81487705       0.13328633
H       -0.12467243      -0.83102311       0.00316361
H       -1.69807456      -1.37370959      -1.21883381
H       -2.03543399      -1.32454636       0.56416351
H       -2.66086983       1.02143921       0.19583110
H       -1.72714678       1.05089363      -1.34087906
H        3.31773167      -0.14409974       0.27641177
H        2.53225564      -1.59514178       0.89514816
H        2.58721956      -1.29256903      -0.84195055
15
Frame=8 idx=007307 GeodesicLength=0.9351942998547167 rxn_smarts="[C:1]([C:2]([C:3](=[O:4])[C:5]#[C:6][C:7]([H:13])([H:14])[H:15])([H:11])[H:12])([H:8])([H:9])[H:10]>>[C:1](=[C:2]([H:11])[H:12])([H:9])[H:10].[C:3](=[O:4])=[C:5]=[C:6]([C:7]([H:13])([H:14])[H:15])[H:8]"
C       -1.66768781      -0.80199166      -0.28628753
C       -1.83691995       0.59092519      -0.39005105
C       -0.37790190       1.74290158       0.47770550
O       -0.80546509       2.73086390       0.96019893
C        0.83967999       1.08973730       0.43183549
C        1.18310407      -0.12590633       0.23371365
C        2.49918134      -0.79975384       0.12454167
H       -0.15421157      -0.86232983       0.02456553
H       -1.76186766      -1.39403430      -1.19189893
H       -2.10186683      -1.28673769       0.58438530
H       -2.67759553       1.05726198       0.11507503
H       -1.67407961       1.02501512      -1.37359777
H        3.33551670      -0.11393646       0.25456551
H        2.58771081      -1.57657655       0.88719944
H        2.61240305      -1.27543842      -0.85195078
15
Frame=9 idx=007307 GeodesicLength=1.0503909812121477 rxn_smarts="[C:1]([C:2]([C:3](=[O:4])[C:5]#[C:6][C:7]([H:13])([H:14])[H:15])([H:11])[H:12])([H:8])([H:9])[H:10]>>[C:1](=[C:2]([H:11])[H:12])([H:9])[H:10].[C:3](=[O:4])=[C:5]=[C:6]([C:7]([H:13])([H:14])[H:15])[H:8]"
C       -1.70377036      -0.80189215      -0.27366366
C       -1.83458254       0.59424943      -0.41600963
C       -0.37293209       1.72771727       0.49047154
O       -0.80230289       2.68410460       1.03307754
C        0.84523264       1.07606086       0.44115661
C        1.19958582      -0.13615503       0.24317189
C        2.52715245      -0.78400353       0.11591111
H       -0.18581587      -0.89402904       0.04714200
H       -1.82811959      -1.41126333      -1.16433202
H       -2.16914305      -1.24554341       0.60323550
H       -2.68846865       1.09294603       0.03345522
H       -1.62144152       0.99552857      -1.40431246
H        3.35310482      -0.08316636       0.23320600
H        2.64313219      -1.55661782       0.87916029
H        2.63836865      -1.25793609      -0.86166993
15
Frame=10 idx=007307 GeodesicLength=1.1653868495436701 rxn_smarts="[C:1]([C:2]([C:3](=[O:4])[C:5]#[C:6][C:7]([H:13])([H:14])[H:15])([H:11])[H:12])([H:8])([H:9])[H:10]>>[C:1](=[C:2]([H:11])[H:12])([H:9])[H:10].[C:3](=[O:4])=[C:5]=[C:6]([C:7]([H:13])([H:14])[H:15])[H:8]"
C       -1.74120997      -0.80058109      -0.26095738
C       -1.83149631       0.59682796      -0.44188413
C       -0.36797312       1.71216390       0.50275221
O       -0.80089037       2.63164833       1.10484864
C        0.85089897       1.06223321       0.44948799
C        1.21725968      -0.14616195       0.25223307
C        2.55566877      -0.76758860       0.10741669
H       -0.21974739      -0.92621714       0.07088927
H       -1.89677802      -1.42503189      -1.13649183
H       -2.23715418      -1.20111500       0.62038564
H       -2.69351126       1.12816139      -0.04829134
H       -1.56958810       0.96255602      -1.43267425
H        3.37050769      -0.05168773       0.21236477
H        2.69875718      -1.53528444       0.87102065
H        2.66525643      -1.23992295      -0.87109999
15
Frame=11 idx=007307 GeodesicLength=1.2802946321113668 rxn_smarts="[C:1]([C:2]([C:3](=[O:4])[C:5]#[C:6][C:7]([H:13])([H:14])[H:15])([H:11])[H:12])([H:8])([H:9])[H:10]>>[C:1](=[C:2]([H:11])[H:12])([H:9])[H:10].[C:3](=[O:4])=[C:5]=[C:6]([C:7]([H:13])([H:14])[H:15])[H:8]"
C       -1.78016589      -0.79799010      -0.24819005
C       -1.82771926       0.59855565      -0.46759077
C       -0.36305075       1.69597666       0.51495924
O       -0.80104611       2.57369005       1.17474213
C        0.85668464       1.04811681       0.45689439
C        1.23621173      -0.15593726       0.26069058
C        2.58489743      -0.75044596       0.09903007
H       -0.25633876      -0.95895166       0.09591860
H       -1.96794559      -1.43512492      -1.10850466
H       -2.30588037      -1.15334322       0.63573359
H       -2.69284218       1.16263259      -0.12974357
H       -1.51872546       0.92605292      -1.45858396
H        3.38785989      -0.01942524       0.19222367
H        2.75463108      -1.51256934       0.86273531
H        2.69342961      -1.22123698      -0.88031457
15
Frame=12 idx=007307 GeodesicLength=1.3952580239121641 rxn_smarts="[C:1]([C:2]([C:3](=[O:4])[C:5]#[C:6][C:7]([H:13])([H:14])[H:15])([H:11])[H:12])([H:8])([H:9])[H:10]>>[C:1](=[C:2]([H:11])[H:12])([H:9])[H:10].[C:3](=[O:4])=[C:5]=[C:6]([C:7]([H:13])([H:14])[H:15])[H:8]"
C       -1.82080944      -0.79409646      -0.23538655
C       -1.82314084       0.59927761      -0.49314059
C       -0.35830053       1.67884001       0.52764438
O       -0.80259178       2.51084408       1.24190064
C        0.86245609       1.03340920       0.46425614
C        1.25649665      -0.16568652       0.26910161
C        2.61491920      -0.73247579       0.09057855
H       -0.29607609      -0.99241970       0.12282094
H       -2.04144877      -1.44142458      -1.08056764
H       -2.37553900      -1.10207282       0.64905606
H       -2.68645531       1.19620292      -0.21099969
H       -1.46856660       0.88579842      -1.48194335
H        3.40512344       0.01387337       0.17231427
H        2.81133837      -1.48845252       0.85397924
H        2.72259459      -1.20161721      -0.88961401
15
Frame=13 idx=007307 GeodesicLength=1.510242061823537 rxn_smarts="[C:1]([C:2]([C:3](=[O:4])[C:5]#[C:6][C:7]([H:13])([H:14])[H:15])([H:11])[H:12])([H:8])([H:9])[H:10]>>[C:1](=[C:2]([H:11])[H:12])([H:9])[H:10].[C:3](=[O:4])=[C:5]=[C:6]([C:7]([H:13])([H:14])[H:15])[H:8]"
C       -1.86319920      -0.78887232      -0.22248878
C       -1.81739823       0.59872083      -0.51861492
C       -0.35363265       1.66049428       0.54127894
O       -0.80573216       2.44380285       1.30560295
C        0.86828581       1.01781043       0.47273887
C        1.27810030      -0.17555128       0.27801914
C        2.64569062      -0.71353009       0.08173024
H       -0.33953509      -1.02672118       0.15286091
H       -2.11713759      -1.44387004      -1.05271791
H       -2.44660288      -1.04701024       0.65998331
H       -2.67410344       1.22845419      -0.29241962
H       -1.41848434       0.84140420      -1.50268525
H        3.42221040       0.04841298       0.15231249
H        2.86923034      -1.46306719       0.84401849
H        2.75230811      -1.18047744      -0.89961886
15
Frame=14 idx=007307 GeodesicLength=1.6253609801126192 rxn_smarts="[C:1]([C:2]([C:3](=[O:4])[C:5]#[C:6][C:7]([H:13])([H:14])[H:15])([H:11])[H:12])([H:8])([H:9])[H:10]>>[C:1](=[C:2]([H:11])[H:12])([H:9])[H:10].[C:3](=[O:4])=[C:5]=[C:6]([C:7]([H:13])([H:14])[H:15])[H:8]"
C       -1.90764492      -0.78227580      -0.20975468
C       -1.81098964       0.59679306      -0.54352166
C       -0.34913471       1.64058203       0.55560293
O       -0.80945361       2.37315240       1.36557323
C        0.87414016       1.00119327       0.48113872
C        1.30132591      -0.18555792       0.28664500
C        2.67758965      -0.69360902       0.07283593
H       -0.38715533      -1.06187667       0.18510406
H       -2.19519492      -1.44202526      -1.02562112
H       -2.51853589      -0.98851357       0.66830757
H       -2.65615850       1.25906590      -0.37264882
H       -1.36997279       0.79308066      -1.52036868
H        3.43932908       0.08423635       0.13281995
H        2.92824454      -1.43609190       0.83359542
H        2.78361097      -1.15815353      -0.90970783
15
Frame=15 idx=007307 GeodesicLength=1.7405618457507557 rxn_smarts="[C:1]([C:2]([C:3](=[O:4])[C:5]#[C:6][C:7]([H:13])([H:14])[H:15])([H:11])[H:12])([H:8])([H:9])[H:10]>>[C:1](=[C:2]([H:11])[H:12])([H:9])[H:10].[C:3](=[O:4])=[C:5]=[C:6]([C:7]([H:13])([H:14])[H:15])[H:8]"
C       -1.95435793      -0.77412869      -0.19713031
C       -1.80388102       0.59330757      -0.56788135
C       -0.34476152       1.61879838       0.57058009
O       -0.81365198       2.29872056       1.42200499
C        0.88004364       0.98328463       0.48940062
C        1.32630289      -0.19577285       0.29467362
C        2.71080558      -0.67256128       0.06381218
H       -0.43960132      -1.09788130       0.21994268
H       -2.27583693      -1.43569965      -0.99923125
H       -2.59128271      -0.92611847       0.67400692
H       -2.63258737       1.28779627      -0.45181666
H       -1.32314874       0.74045893      -1.53497031
H        3.45654720       0.12152130       0.11407122
H        2.98847378      -1.40744270       0.82256445
H        2.81693643      -1.13428270      -0.92002688
15
Frame=16 idx=007307 GeodesicLength=1.855960738191334 rxn_smarts="[C:1]([C:2]([C:3](=[O:4])[C:5]#[C:6][C:7]([H:13])([H:14])[H:15])([H:11])[H:12])([H:8])([H:9])[H:10]>>[C:1](=[C:2]([H:11])[H:12])([H:9])[H:10].[C:3](=[O:4])=[C:5]=[C:6]([C:7]([H:13])([H:14])[H:15])[H:8]"
C       -2.00364391      -0.76422909      -0.18456237
C       -1.79599436       0.58799620      -0.59173722
C       -0.34047022       1.59482956       0.58626860
O       -0.81820313       2.22035831       1.47511546
C        0.88603818       0.96378659       0.49769672
C        1.35321074      -0.20629928       0.30200502
C        2.74553988      -0.65019237       0.05450560
H       -0.49775859      -1.13467321       0.25808949
H       -2.35918528      -1.42471120      -0.97358318
H       -2.66500080      -0.85927504       0.67693561
H       -2.60320674       1.31434804      -0.53024913
H       -1.27799162       0.68296631      -1.54641725
H        3.47393417       0.16052163       0.09616367
H        3.05016583      -1.37704708       0.81063188
H        2.85256586      -1.10837937      -0.93086291
