14
Frame=0 idx=001175 GeodesicLength=0.0 rxn_smarts="[C:1]([C:2]([O:3][C:4](=[O:5])[C:6]([H:12])([H:13])[H:14])([H:10])[H:11])([H:7])([H:8])[H:9]>>[C:1]([C:2](=[O:3])[H:10])([H:7])([H:8])[H:9].[C:4](=[O:5])([C:6]([H:12])([H:13])[H:14])[H:11]"
C       -1.77235908      -0.24745415       0.81009056
C       -0.86474623      -0.54593472      -0.35060560
O        0.16470004      -1.31025111      -0.17576936
C        0.93868867       0.15556391      -0.96953190
O        1.14666429       0.04988527      -2.12793549
C        1.82814449       0.53104056       0.17772967
H       -2.33698929      -1.16152986       1.01653877
H       -1.19562816      -0.00459871       1.70190709
H       -2.47885566       0.55140367       0.58392749
H       -1.35913508      -0.56597218      -1.33606473
H       -0.23706606       0.68466905      -0.64106979
H        1.29235176       0.53327907       1.12140058
H        2.23292199       1.52118296      -0.03400446
H        2.64130835      -0.19128371       0.22338715
14
Frame=1 idx=001175 GeodesicLength=0.10728923581557336 rxn_smarts="[C:1]([C:2]([O:3][C:4](=[O:5])[C:6]([H:12])([H:13])[H:14])([H:10])[H:11])([H:7])([H:8])[H:9]>>[C:1]([C:2](=[O:3])[H:10])([H:7])([H:8])[H:9].[C:4](=[O:5])([C:6]([H:12])([H:13])[H:14])[H:11]"
C       -1.79897087      -0.26318512       0.81097776
C       -0.87566753      -0.54261769      -0.34168933
O        0.16362228      -1.29414855      -0.15862392
C        0.94722660       0.17747193      -0.96225215
O        1.13454713       0.06025555      -2.12421528
C        1.86092117       0.53760150       0.16980086
H       -2.35983910      -1.18211972       1.00513936
H       -1.23451359      -0.01946781       1.71035329
H       -2.50866041       0.53071868       0.57681402
H       -1.36409123      -0.58493093      -1.32940545
H       -0.24281546       0.71184355      -0.63792958
H        1.33229180       0.57811900       1.11715292
H        2.30243188       1.50779277      -0.05981154
H        2.64351732      -0.21733317       0.22368905
14
Frame=2 idx=001175 GeodesicLength=0.2142047034267162 rxn_smarts="[C:1]([C:2]([O:3][C:4](=[O:5])[C:6]([H:12])([H:13])[H:14])([H:10])[H:11])([H:7])([H:8])[H:9]>>[C:1]([C:2](=[O:3])[H:10])([H:7])([H:8])[H:9].[C:4](=[O:5])([C:6]([H:12])([H:13])[H:14])[H:11]"
C       -1.82625741      -0.27932495       0.81156650
C       -0.88695648      -0.53912023      -0.33238399
O        0.16237605      -1.27695453      -0.14031402
C        0.95591325       0.20023544      -0.95439765
O        1.12208726       0.07134984      -2.11952095
C        1.89450718       0.54389435       0.16139724
H       -2.38300804      -1.20321939       0.99299656
H       -1.27482884      -0.03496444       1.71878323
H       -2.53901194       0.50955162       0.56914479
H       -1.36845307      -0.60444831      -1.32226494
H       -0.24867192       0.74003181      -0.63416216
H        1.37518145       0.62350869       1.11197732
H        2.37221329       1.49200345      -0.08708725
H        2.64490921      -0.24254334       0.22426531
14
Frame=3 idx=001175 GeodesicLength=0.3207106079453428 rxn_smarts="[C:1]([C:2]([O:3][C:4](=[O:5])[C:6]([H:12])([H:13])[H:14])([H:10])[H:11])([H:7])([H:8])[H:9]>>[C:1]([C:2](=[O:3])[H:10])([H:7])([H:8])[H:9].[C:4](=[O:5])([C:6]([H:12])([H:13])[H:14])[H:11]"
C       -1.85421625      -0.29587370       0.81181347
C       -0.89863328      -0.53544455      -0.32268279
O        0.16092992      -1.25856786      -0.12074658
C        0.96476362       0.22389057      -0.94590806
O        1.10927519       0.08320859      -2.11376605
C        1.92888569       0.54986393       0.15247959
H       -2.40645249      -1.22482639       0.98008689
H       -1.31660094      -0.05107683       1.72712946
H       -2.56990076       0.48788141       0.56085200
H       -1.37213527      -0.62456853      -1.31461137
H       -0.25462751       0.76930549      -0.62971007
H        1.42123270       0.66930537       1.10581061
H        2.44196416       1.47369673      -0.11587226
H        2.64551522      -0.26679424       0.22512517
14
Frame=4 idx=001175 GeodesicLength=0.4267985551018113 rxn_smarts="[C:1]([C:2]([O:3][C:4](=[O:5])[C:6]([H:12])([H:13])[H:14])([H:10])[H:11])([H:7])([H:8])[H:9]>>[C:1]([C:2](=[O:3])[H:10])([H:7])([H:8])[H:9].[C:4](=[O:5])([C:6]([H:12])([H:13])[H:14])[H:11]"
C       -1.88285614      -0.31284516       0.81167812
C       -0.91072523      -0.53159179      -0.31258914
O        0.15924455      -1.23888670      -0.09983031
C        0.97380445       0.24848848      -0.93671542
O        1.09610916       0.09590916      -2.10686307
C        1.96400967       0.55546449       0.14302288
H       -2.43010631      -1.24696853       0.96640754
H       -1.35986743      -0.06778476       1.73531852
H       -2.60135080       0.46565227       0.55186397
H       -1.37505758      -0.64532691      -1.30640650
H       -0.26065483       0.79974108      -0.62450834
H        1.47063495       0.71537519       1.09859361
H        2.51149837       1.45277434      -0.14629635
H        2.64531715      -0.29000117       0.22632449
14
Frame=5 idx=001175 GeodesicLength=0.5326121091258563 rxn_smarts="[C:1]([C:2]([O:3][C:4](=[O:5])[C:6]([H:12])([H:13])[H:14])([H:10])[H:11])([H:7])([H:8])[H:9]>>[C:1]([C:2](=[O:3])[H:10])([H:7])([H:8])[H:9].[C:4](=[O:5])([C:6]([H:12])([H:13])[H:14])[H:11]"
C       -1.91224392      -0.33031001       0.81112097
C       -0.92327838      -0.52765449      -0.30207328
O        0.15727953      -1.21781007      -0.07740889
C        0.98299108       0.27412097      -0.92674601
O        1.08248994       0.10959885      -2.09873456
C        1.99992111       0.56073633       0.13298156
H       -2.45397872      -1.26970599       0.95194668
H       -1.40475790      -0.08511629       1.74328990
H       -2.63343961       0.44277935       0.54205563
H       -1.37710502      -0.66673913      -1.29758223
H       -0.26683220       0.83141129      -0.61844940
H        1.52361540       0.76177108       1.09003125
H        2.58097625       1.42906886      -0.17838942
H        2.64436244      -0.31215075       0.22795780
14
Frame=6 idx=001175 GeodesicLength=0.6380315157210514 rxn_smarts="[C:1]([C:2]([O:3][C:4](=[O:5])[C:6]([H:12])([H:13])[H:14])([H:10])[H:11])([H:7])([H:8])[H:9]>>[C:1]([C:2](=[O:3])[H:10])([H:7])([H:8])[H:9].[C:4](=[O:5])([C:6]([H:12])([H:13])[H:14])[H:11]"
C       -1.94231598      -0.34823895       0.81009155
C       -0.93628864      -0.52358638      -0.29116280
O        0.15498903      -1.19521105      -0.05343678
C        0.99240237       0.30082454      -0.91594408
O        1.06846962       0.12433266      -2.08928969
C        2.03651388       0.56556048       0.12232352
H       -2.47791599      -1.29303274       0.93673009
H       -1.45121855      -0.10299289       1.75093778
H       -2.66612333       0.41921811       0.53137146
H       -1.37818257      -0.68887221      -1.28810070
H       -0.27306374       0.86441368      -0.61149418
H        1.58031043       0.80823332       1.08015712
H        2.64982849       1.40247704      -0.21225788
H        2.64259497      -0.33312564       0.23007457
14
Frame=7 idx=001175 GeodesicLength=0.7429955846673857 rxn_smarts="[C:1]([C:2]([O:3][C:4](=[O:5])[C:6]([H:12])([H:13])[H:14])([H:10])[H:11])([H:7])([H:8])[H:9]>>[C:1]([C:2](=[O:3])[H:10])([H:7])([H:8])[H:9].[C:4](=[O:5])([C:6]([H:12])([H:13])[H:14])[H:11]"
C       -1.97303875      -0.36663718       0.80853097
C       -0.94976770      -0.51939367      -0.27986044
O        0.15231894      -1.17090461      -0.02780498
C        1.00206914       0.32867193      -0.90422189
O        1.05403414       0.14021869      -2.07841460
C        2.07370046       0.56983498       0.11104002
H       -2.50178343      -1.31697771       0.92078909
H       -1.49925556      -0.12132615       1.75814605
H       -2.69939697       0.39487960       0.51969066
H       -1.37815436      -0.71180112      -1.27790380
H       -0.27933061       0.89886318      -0.60355205
H        1.64087325       0.85454125       1.06880370
H        2.71772253       1.37283885      -0.24795028
H        2.64000890      -0.35280803       0.23270755
14
Frame=8 idx=001175 GeodesicLength=0.8474661214225594 rxn_smarts="[C:1]([C:2]([O:3][C:4](=[O:5])[C:6]([H:12])([H:13])[H:14])([H:10])[H:11])([H:7])([H:8])[H:9]>>[C:1]([C:2](=[O:3])[H:10])([H:7])([H:8])[H:9].[C:4](=[O:5])([C:6]([H:12])([H:13])[H:14])[H:11]"
C       -2.00437178      -0.38552279       0.80639975
C       -0.96371952      -0.51509030      -0.26818596
O        0.14921329      -1.14473144      -0.00044636
C        1.01203376       0.35773861      -0.89151163
O        1.03919007       0.15738664      -2.06601985
C        2.11137004       0.57350150       0.09909711
H       -2.52544730      -1.34157312       0.90418129
H       -1.54885091      -0.14005391       1.76481394
H       -2.73324785       0.36967834       0.50690258
H       -1.37689310      -0.73556888      -1.26691896
H       -0.28558932       0.93486044      -0.59456950
H        1.70539760       0.90047368       1.05582496
H        2.78436025       1.34001168      -0.28555399
H        2.63655477      -0.37111045       0.23598663
14
Frame=9 idx=001175 GeodesicLength=0.9516900445099177 rxn_smarts="[C:1]([C:2]([O:3][C:4](=[O:5])[C:6]([H:12])([H:13])[H:14])([H:10])[H:11])([H:7])([H:8])[H:9]>>[C:1]([C:2](=[O:3])[H:10])([H:7])([H:8])[H:9].[C:4](=[O:5])([C:6]([H:12])([H:13])[H:14])[H:11]"
C       -2.03635870      -0.40499188       0.80362624
C       -0.97818845      -0.51085202      -0.25609349
O        0.14558024      -1.11656730       0.02884324
C        1.02217214       0.38819872      -0.87772977
O        1.02373116       0.17612093      -2.05201209
C        2.14959040       0.57667113       0.08643952
H       -2.54885331      -1.36690244       0.88689654
H       -1.60014119      -0.15919742       1.77084263
H       -2.76770297       0.34346492       0.49281590
H       -1.37422134      -0.76020703      -1.25507005
H       -0.29206795       0.97251369      -0.58435236
H        1.77421476       0.94623042       1.04057235
H        2.85003593       1.30359084      -0.32490141
H        2.63220927      -0.38807256       0.24012274
14
Frame=10 idx=001175 GeodesicLength=1.0554182955049667 rxn_smarts="[C:1]([C:2]([O:3][C:4](=[O:5])[C:6]([H:12])([H:13])[H:14])([H:10])[H:11])([H:7])([H:8])[H:9]>>[C:1]([C:2](=[O:3])[H:10])([H:7])([H:8])[H:9].[C:4](=[O:5])([C:6]([H:12])([H:13])[H:14])[H:11]"
C       -2.06882721      -0.42498846       0.80017309
C       -0.99311360      -0.50656153      -0.24367521
O        0.14134810      -1.08618421       0.06002035
C        1.03269103       0.42006736      -0.86282574
O        1.00782405       0.19647834      -2.03630058
C        2.18807795       0.57908912       0.07306420
H       -2.57171130      -1.39296347       0.86907146
H       -1.65294645      -0.17856879       1.77608941
H       -2.80265386       0.31616422       0.47735094
H       -1.36995789      -0.78578475      -1.24225946
H       -0.29849628       1.01198392      -0.57289730
H        1.84719485       0.99117703       1.02318371
H        2.91372947       1.26358626      -0.36622283
H        2.62684114      -0.40349504       0.24522793
14
Frame=11 idx=001175 GeodesicLength=1.1584979413957743 rxn_smarts="[C:1]([C:2]([O:3][C:4](=[O:5])[C:6]([H:12])([H:13])[H:14])([H:10])[H:11])([H:7])([H:8])[H:9]>>[C:1]([C:2](=[O:3])[H:10])([H:7])([H:8])[H:9].[C:4](=[O:5])([C:6]([H:12])([H:13])[H:14])[H:11]"
C       -2.10162128      -0.44551021       0.79599150
C       -1.00844801      -0.50222062      -0.23095898
O        0.13642895      -1.05327814       0.09307328
C        1.04362717       0.45345403      -0.84675365
O        0.99147975       0.21858635      -2.01877756
C        2.22662029       0.58060940       0.05900175
H       -2.59374424      -1.41977972       0.85085292
H       -1.70711436      -0.19800439       1.78039048
H       -2.83796491       0.28763037       0.46035683
H       -1.36390154      -0.81237355      -1.22838020
H       -0.30488472       1.05343937      -0.56018772
H        1.92427084       1.03489667       1.00333005
H        2.97489088       1.21972832      -0.40932140
H        2.62036118      -0.41717788       0.25138271
14
Frame=12 idx=001175 GeodesicLength=1.2609608444022673 rxn_smarts="[C:1]([C:2]([O:3][C:4](=[O:5])[C:6]([H:12])([H:13])[H:14])([H:10])[H:11])([H:7])([H:8])[H:9]>>[C:1]([C:2](=[O:3])[H:10])([H:7])([H:8])[H:9].[C:4](=[O:5])([C:6]([H:12])([H:13])[H:14])[H:11]"
C       -2.13464833      -0.46659108       0.79102828
C       -1.02415168      -0.49788118      -0.21799730
O        0.13071686      -1.01766253       0.12802518
C        1.05504952       0.48846134      -0.82944789
O        0.97469286       0.24267206      -1.99933637
C        2.26504058       0.58116111       0.04423482
H       -2.61476661      -1.44739436       0.83233989
H       -1.76259604      -0.21743461       1.78363206
H       -2.87355835       0.25772061       0.44167125
H       -1.35580267      -0.83997631      -1.21329105
H       -0.31118531       1.09703294      -0.54609427
H        2.00540226       1.07713108       0.98068168
H        3.03316269       1.17179311      -0.45424367
H        2.61264420      -0.42903218       0.25879738
14
Frame=13 idx=001175 GeodesicLength=1.3631100343035056 rxn_smarts="[C:1]([C:2]([O:3][C:4](=[O:5])[C:6]([H:12])([H:13])[H:14])([H:10])[H:11])([H:7])([H:8])[H:9]>>[C:1]([C:2](=[O:3])[H:10])([H:7])([H:8])[H:9].[C:4](=[O:5])([C:6]([H:12])([H:13])[H:14])[H:11]"
C       -2.16787318      -0.48835818       0.78517898
C       -1.04021142      -0.49370621      -0.20478010
O        0.12403552      -0.97922920       0.16506035
C        1.06688630       0.52528414      -0.81081365
O        0.95719238       0.26921522      -1.97789569
C        2.30335453       0.58083354       0.02866057
H       -2.63460249      -1.47593661       0.81346121
H       -1.81952243      -0.23692891       1.78569944
H       -2.90932362       0.22622707       0.42107501
H       -1.34541817      -0.86851084      -1.19688322
H       -0.31753463       1.14294166      -0.53024968
H        2.09086344       1.11811485       0.95445716
H        3.08866826       1.11915388      -0.50106690
H        2.60348553      -0.43910041       0.26809653
14
Frame=14 idx=001175 GeodesicLength=1.4645387784030186 rxn_smarts="[C:1]([C:2]([O:3][C:4](=[O:5])[C:6]([H:12])([H:13])[H:14])([H:10])[H:11])([H:7])([H:8])[H:9]>>[C:1]([C:2](=[O:3])[H:10])([H:7])([H:8])[H:9].[C:4](=[O:5])([C:6]([H:12])([H:13])[H:14])[H:11]"
C       -2.20096078      -0.51073106       0.77844730
C       -1.05646266      -0.48956190      -0.19144021
O        0.11629357      -0.93761643       0.20385266
C        1.07936977       0.56395850      -0.79092018
O        0.93927292       0.29821236      -1.95439967
C        2.34103776       0.57929826       0.01243638
H       -2.65285211      -1.50535501       0.79455000
H       -1.87744828      -0.25623751       1.78642360
H       -2.94499163       0.19304613       0.39849011
H       -1.33243986      -0.89802463      -1.17894006
H       -0.32369089       1.19136452      -0.51290069
H        2.18017175       1.15678907       0.92464573
H        3.13994723       1.06177602      -0.54948344
H        2.59275322      -0.44691833       0.27923847
14
Frame=15 idx=001175 GeodesicLength=1.5652232713164675 rxn_smarts="[C:1]([C:2]([O:3][C:4](=[O:5])[C:6]([H:12])([H:13])[H:14])([H:10])[H:11])([H:7])([H:8])[H:9]>>[C:1]([C:2](=[O:3])[H:10])([H:7])([H:8])[H:9].[C:4](=[O:5])([C:6]([H:12])([H:13])[H:14])[H:11]"
C       -2.23367134      -0.53373796       0.77079657
C       -1.07278387      -0.48550018      -0.17803892
O        0.10733747      -0.89261563       0.24423223
C        1.09255779       0.60458349      -0.76982616
O        0.92091939       0.32990510      -1.92885593
C        2.37778277       0.57643827      -0.00436743
H       -2.66921137      -1.53562550       0.77575139
H       -1.93614950      -0.27531930       1.78565598
H       -2.98027401       0.15801805       0.37382540
H       -1.31656705      -0.92843480      -1.15925072
H       -0.32962432       1.24249595      -0.49406296
H        2.27304471       1.19270127       0.89081093
H        3.18636568       0.99932402      -0.59916449
H        2.58027365      -0.45223278       0.29249411
14
Frame=16 idx=001175 GeodesicLength=1.6653149454241811 rxn_smarts="[C:1]([C:2]([O:3][C:4](=[O:5])[C:6]([H:12])([H:13])[H:14])([H:10])[H:11])([H:7])([H:8])[H:9]>>[C:1]([C:2](=[O:3])[H:10])([H:7])([H:8])[H:9].[C:4](=[O:5])([C:6]([H:12])([H:13])[H:14])[H:11]"
C       -2.26580683      -0.55745616       0.76216952
C       -1.08903878      -0.48157952      -0.16465405
O        0.09697504      -0.84405908       0.28612109
C        1.10654423       0.64733965      -0.74756261
O        0.90208749       0.36474580      -1.90127929
C        2.41331242       0.57220040      -0.02171670
H       -2.68333499      -1.56685386       0.75717941
H       -1.99552416      -0.29414282       1.78327813
H       -3.01494411       0.12092573       0.34688950
H       -1.29744189      -0.95961101      -1.13762209
H       -0.33524619       1.29659537      -0.47356316
H        2.36935692       1.22553114       0.85241337
H        3.22725741       0.93121208      -0.65002352
H        2.56580346      -0.45484773       0.30837037
