14
Frame=0 idx=005677 GeodesicLength=0.0 rxn_smarts="[O:1]([C:2]1([H:8])[C:3]([H:9])([H:10])[C:4]([H:11])=[C:5]([H:12])[C:6]1([H:13])[H:14])[H:7]>>[H:7][H:9].[O:1]=[C:2](/[C:3](=[C:4](\[C:5](=[C:6]([H:13])[H:14])[H:12])[H:11])[H:10])[H:8]"
O       -1.79185842       0.20280887       0.56724908
C       -0.95915996       0.09306900      -0.43187471
C        0.33570018       0.90123156      -0.43012955
C        1.38910621       0.22807675       0.15103518
C        1.00714632      -1.07524562       0.40677202
C       -0.22101152      -1.40017203      -0.26492860
H       -1.15408741       1.70361716       1.06276383
H       -1.41781048       0.16942540      -1.44139073
H       -0.59503792       2.25880675       1.02687965
H        0.44885957       1.80404727      -1.02180725
H        2.35168045       0.66157263       0.38662706
H        1.53531520      -1.74483996       1.07679351
H       -0.06254825      -1.67410850      -1.30985633
H       -0.86629394      -2.12828926       0.22186683
14
Frame=1 idx=005677 GeodesicLength=0.11060656973271789 rxn_smarts="[O:1]([C:2]1([H:8])[C:3]([H:9])([H:10])[C:4]([H:11])=[C:5]([H:12])[C:6]1([H:13])[H:14])[H:7]>>[H:7][H:9].[O:1]=[C:2](/[C:3](=[C:4](\[C:5](=[C:6]([H:13])[H:14])[H:12])[H:11])[H:10])[H:8]"
O       -1.80840748       0.21616386       0.53339455
C       -0.96006795       0.10885690      -0.45344726
C        0.33213589       0.91857421      -0.42042272
C        1.38764884       0.23227419       0.14689626
C        1.00943514      -1.07145793       0.40802138
C       -0.22096233      -1.40733881      -0.24966872
H       -1.16758175       1.67500834       1.08660574
H       -1.40699098       0.19229537      -1.46674682
H       -0.58273011       2.22762286       1.03975442
H        0.45829453       1.80869698      -1.02870750
H        2.35561678       0.66030247       0.37053798
H        1.54640398      -1.73503529       1.07693881
H       -0.08475778      -1.69237180      -1.29404326
H       -0.85803678      -2.13359136       0.25088714
14
Frame=2 idx=005677 GeodesicLength=0.22123259627305664 rxn_smarts="[O:1]([C:2]1([H:8])[C:3]([H:9])([H:10])[C:4]([H:11])=[C:5]([H:12])[C:6]1([H:13])[H:14])[H:7]>>[H:7][H:9].[O:1]=[C:2](/[C:3](=[C:4](\[C:5](=[C:6]([H:13])[H:14])[H:12])[H:11])[H:10])[H:8]"
O       -1.82417915       0.22987596       0.49858216
C       -0.96024008       0.12511486      -0.47563300
C        0.32887903       0.93604107      -0.41089456
C        1.38632601       0.23635558       0.14216898
C        1.01215260      -1.06790307       0.40841060
C       -0.22128653      -1.41439609      -0.23345420
H       -1.18167206       1.64461869       1.10918668
H       -1.39522463       0.21605464      -1.49258000
H       -0.57156513       2.19569771       1.05287320
H        0.46809306       1.81372809      -1.03453694
H        2.35902266       0.65932331       0.35518896
H        1.55847341      -1.72561464       1.07546254
H       -0.10903444      -1.71090891      -1.27676227
H       -0.84974476      -2.13798720       0.28198785
14
Frame=3 idx=005677 GeodesicLength=0.33187252792588295 rxn_smarts="[O:1]([C:2]1([H:8])[C:3]([H:9])([H:10])[C:4]([H:11])=[C:5]([H:12])[C:6]1([H:13])[H:14])[H:7]>>[H:7][H:9].[O:1]=[C:2](/[C:3](=[C:4](\[C:5](=[C:6]([H:13])[H:14])[H:12])[H:11])[H:10])[H:8]"
O       -1.83909908       0.24387543       0.46289961
C       -0.95965651       0.14182069      -0.49838768
C        0.32591972       0.95360459      -0.40149658
C        1.38510133       0.24032714       0.13695753
C        1.01534450      -1.06464625       0.40782748
C       -0.22196641      -1.42133330      -0.21625845
H       -1.19654947       1.61244867       1.13027516
H       -1.38252546       0.24071675      -1.51881249
H       -0.56145628       2.16305166       1.06610199
H        0.47823833       1.81918104      -1.03925277
H        2.36193266       0.65863740       0.34063499
H        1.57153457      -1.71666232       1.07223837
H       -0.13548768      -1.72957718      -1.25790517
H       -0.84133023      -2.14144431       0.31517801
14
Frame=4 idx=005677 GeodesicLength=0.44252115981600915 rxn_smarts="[O:1]([C:2]1([H:8])[C:3]([H:9])([H:10])[C:4]([H:11])=[C:5]([H:12])[C:6]1([H:13])[H:14])[H:7]>>[H:7][H:9].[O:1]=[C:2](/[C:3](=[C:4](\[C:5](=[C:6]([H:13])[H:14])[H:12])[H:11])[H:10])[H:8]"
O       -1.85309457       0.25807606       0.42645548
C       -0.95830304       0.15894996      -0.52165624
C        0.32324434       0.97122940      -0.39217794
C        1.38393437       0.24419581       0.13138924
C        1.01905124      -1.06175902       0.40615564
C       -0.22297182      -1.42814404      -0.19806410
H       -1.21238789       1.57853151       1.14964649
H       -1.36892404       0.26630059      -1.54535085
H       -0.55233532       2.12973288       1.07927859
H        0.48871796       1.82507574      -1.04282218
H        2.36437719       0.65823722       0.32692679
H        1.58558305      -1.70826784       1.06714412
H       -0.16421040      -1.74821055      -1.23736383
H       -0.83268108      -2.14394774       0.35043879
14
Frame=5 idx=005677 GeodesicLength=0.5531828293802992 rxn_smarts="[O:1]([C:2]1([H:8])[C:3]([H:9])([H:10])[C:4]([H:11])=[C:5]([H:12])[C:6]1([H:13])[H:14])[H:7]>>[H:7][H:9].[O:1]=[C:2](/[C:3](=[C:4](\[C:5](=[C:6]([H:13])[H:14])[H:12])[H:11])[H:10])[H:8]"
O       -1.86610199       0.27237467       0.38937100
C       -0.95617259       0.17647668      -0.54537629
C        0.32083415       0.98887355      -0.38288587
C        1.38277978       0.24796950       0.12561481
C        1.02330174      -1.05931443       0.40328255
C       -0.22425956      -1.43482702      -0.17886140
H       -1.22935237       1.54293719       1.16708019
H       -1.35446438       0.29283011      -1.57209178
H       -0.54414072       2.09581468       1.09223173
H        0.49952225       1.83141232      -1.04521997
H        2.36638648       0.65810064       0.31409481
H        1.60059831      -1.70052210       1.06006449
H       -0.19527063      -1.76662240      -1.21502705
H       -0.82366046      -2.14550339       0.38772277
14
Frame=6 idx=005677 GeodesicLength=0.6638564246062751 rxn_smarts="[O:1]([C:2]1([H:8])[C:3]([H:9])([H:10])[C:4]([H:11])=[C:5]([H:12])[C:6]1([H:13])[H:14])[H:7]>>[H:7][H:9].[O:1]=[C:2](/[C:3](=[C:4](\[C:5](=[C:6]([H:13])[H:14])[H:12])[H:11])[H:10])[H:8]"
O       -1.87806878       0.28665882       0.35177771
C       -0.95326786       0.19437423      -0.56948064
C        0.31866607       1.00648766      -0.37357506
C        1.38158863       0.25165489       0.11980129
C        1.02810772      -1.05738450       0.39910312
C       -0.22577603      -1.44138789      -0.15864720
H       -1.24757096       1.50575543       1.18238491
H       -1.33920975       0.32033195      -1.59892450
H       -0.53682794       2.06141468       1.10475898
H        0.51064893       1.83816546      -1.04644069
H        2.36797533       0.65820454       0.30219624
H        1.61655817      -1.69352651       1.05086740
H       -0.22871320      -1.78460852      -1.19077917
H       -0.81411034      -2.14614024       0.42695761
14
Frame=7 idx=005677 GeodesicLength=0.7745467444440528 rxn_smarts="[O:1]([C:2]1([H:8])[C:3]([H:9])([H:10])[C:4]([H:11])=[C:5]([H:12])[C:6]1([H:13])[H:14])[H:7]>>[H:7][H:9].[O:1]=[C:2](/[C:3](=[C:4](\[C:5](=[C:6]([H:13])[H:14])[H:12])[H:11])[H:10])[H:8]"
O       -1.88896211       0.30080986       0.31381074
C       -0.94960357       0.21261708      -0.59390131
C        0.31671249       1.02401636      -0.36420753
C        1.38030968       0.25525614       0.11413070
C        1.03345738      -1.05603285       0.39353161
C       -0.22745641      -1.44783980      -0.13742292
H       -1.26714971       1.46709847       1.19539554
H       -1.32324117       0.34883680      -1.62573853
H       -0.53035908       2.02668771       1.11664832
H        0.52210307       1.84528410      -1.04649526
H        2.36915344       0.65851703       0.29129248
H        1.63343640      -1.68738716       1.03941063
H       -0.26454804      -1.80194859      -1.16449944
H       -0.80385236      -2.14591515       0.46804498
14
Frame=8 idx=005677 GeodesicLength=0.8852660306675789 rxn_smarts="[O:1]([C:2]1([H:8])[C:3]([H:9])([H:10])[C:4]([H:11])=[C:5]([H:12])[C:6]1([H:13])[H:14])[H:7]>>[H:7][H:9].[O:1]=[C:2](/[C:3](=[C:4](\[C:5](=[C:6]([H:13])[H:14])[H:12])[H:11])[H:10])[H:8]"
O       -1.89881293       0.31474707       0.27560126
C       -0.94522946       0.23118575      -0.61858622
C        0.31494063       1.04139787      -0.35475341
C        1.37891100       0.25876203       0.10880984
C        1.03932847      -1.05532198       0.38652117
C       -0.22921963      -1.45421439      -0.11519532
H       -1.28819581       1.42714251       1.20601492
H       -1.30669143       0.37836778      -1.65246382
H       -0.52473805       1.99186815       1.12769135
H        0.53390499       1.85267955      -1.04541299
H        2.36995843       0.65898223       0.28147139
H        1.65126606      -1.68224705       1.02551881
H       -0.30274096      -1.81842979      -1.13608522
H       -0.79268131      -2.14491972       0.51086825
14
Frame=9 idx=005677 GeodesicLength=0.9958158877910626 rxn_smarts="[O:1]([C:2]1([H:8])[C:3]([H:9])([H:10])[C:4]([H:11])=[C:5]([H:12])[C:6]1([H:13])[H:14])[H:7]>>[H:7][H:9].[O:1]=[C:2](/[C:3](=[C:4](\[C:5](=[C:6]([H:13])[H:14])[H:12])[H:11])[H:10])[H:8]"
O       -1.90747609       0.32821591       0.23729235
C       -0.94010376       0.25003403      -0.64341920
C        0.31330686       1.05858450      -0.34519391
C        1.37726948       0.26219693       0.10400164
C        1.04560882      -1.05525388       0.37803368
C       -0.23100922      -1.46051179      -0.09198420
H       -1.31062540       1.38587699       1.21398792
H       -1.28956542       0.40897169      -1.67886423
H       -0.51989482       1.95711758       1.13767824
H        0.54602732       1.86030881      -1.04323129
H        2.37031510       0.65956643       0.27271831
H        1.66982966      -1.67810709       1.00911634
H       -0.34323570      -1.83375154      -1.10536937
H       -0.78044683      -2.14324857       0.55523372
14
Frame=10 idx=005677 GeodesicLength=1.1064261821832315 rxn_smarts="[O:1]([C:2]1([H:8])[C:3]([H:9])([H:10])[C:4]([H:11])=[C:5]([H:12])[C:6]1([H:13])[H:14])[H:7]>>[H:7][H:9].[O:1]=[C:2](/[C:3](=[C:4](\[C:5](=[C:6]([H:13])[H:14])[H:12])[H:11])[H:10])[H:8]"
O       -1.91490145       0.34112303       0.19916470
C       -0.93433928       0.26916078      -0.66827814
C        0.31175393       1.07549124      -0.33559261
C        1.37534327       0.26550178       0.09982515
C        1.05215836      -1.05586071       0.36813691
C       -0.23266721      -1.46684555      -0.06793899
H       -1.33437211       1.34350812       1.21946310
H       -1.27217490       0.44072297      -1.70470424
H       -0.51570016       1.92291578       1.14625304
H        0.55842747       1.86795878      -1.04015872
H        2.37019066       0.66019302       0.26516160
H        1.68884496      -1.67494799       0.99041953
H       -0.38569095      -1.84763592      -1.07239882
H       -0.76687260      -2.14128534       0.60064750
14
Frame=11 idx=005677 GeodesicLength=1.216985404989151 rxn_smarts="[O:1]([C:2]1([H:8])[C:3]([H:9])([H:10])[C:4]([H:11])=[C:5]([H:12])[C:6]1([H:13])[H:14])[H:7]>>[H:7][H:9].[O:1]=[C:2](/[C:3](=[C:4](\[C:5](=[C:6]([H:13])[H:14])[H:12])[H:11])[H:10])[H:8]"
O       -1.92141450       0.35349021       0.16100281
C       -0.92798272       0.28856293      -0.69326557
C        0.31023950       1.09211349      -0.32582243
C        1.37317239       0.26867989       0.09664832
C        1.05901861      -1.05712806       0.35700126
C       -0.23420185      -1.47321024      -0.04290097
H       -1.35975734       1.30015615       1.22229416
H       -1.25446638       0.47360571      -1.73022595
H       -0.51243920       1.88951504       1.15356724
H        0.57118669       1.87561717      -1.03604759
H        2.36990142       0.66066051       0.25856879
H        1.70887424      -1.67310870       0.96880351
H       -0.43020184      -1.86001153      -1.03695586
H       -0.75192902      -2.13894256       0.64733228
14
Frame=12 idx=005677 GeodesicLength=1.3275736689813433 rxn_smarts="[O:1]([C:2]1([H:8])[C:3]([H:9])([H:10])[C:4]([H:11])=[C:5]([H:12])[C:6]1([H:13])[H:14])[H:7]>>[H:7][H:9].[O:1]=[C:2](/[C:3](=[C:4](\[C:5](=[C:6]([H:13])[H:14])[H:12])[H:11])[H:10])[H:8]"
O       -1.92667175       0.36506235       0.12316643
C       -0.92101834       0.30821748      -0.71819560
C        0.30877456       1.10835675      -0.31613478
C        1.37046742       0.27170351       0.09420415
C        1.06561307      -1.05893344       0.34457304
C       -0.23544800      -1.47966861      -0.01694876
H       -1.38610732       1.25554329       1.22251385
H       -1.23663710       0.50772368      -1.75499003
H       -0.50953610       1.85707099       1.15895127
H        0.58438432       1.88310033      -1.03124320
H        2.36864995       0.66124863       0.25375027
H        1.72902870      -1.67236430       0.94426975
H       -0.47636173      -1.87037379      -0.99872322
H       -0.73513769      -2.13668686       0.69480682
14
Frame=13 idx=005677 GeodesicLength=1.4382038873661853 rxn_smarts="[O:1]([C:2]1([H:8])[C:3]([H:9])([H:10])[C:4]([H:11])=[C:5]([H:12])[C:6]1([H:13])[H:14])[H:7]>>[H:7][H:9].[O:1]=[C:2](/[C:3](=[C:4](\[C:5](=[C:6]([H:13])[H:14])[H:12])[H:11])[H:10])[H:8]"
O       -1.93099572       0.37588529       0.08562659
C       -0.91363259       0.32813464      -0.74313405
C        0.30728062       1.12421076      -0.30650813
C        1.36741663       0.27447989       0.09268821
C        1.07208715      -1.06129072       0.33120007
C       -0.23635537      -1.48632114       0.00979654
H       -1.41365627       1.20983875       1.22028153
H       -1.21895595       0.54309356      -1.77913197
H       -0.50717966       1.82617919       1.16271522
H        0.59791787       1.89030793      -1.02582576
H        2.36702153       0.66160201       0.25028992
H        1.74957039      -1.67271908       0.91715534
H       -0.52394835      -1.87870376      -0.95791374
H       -0.71657029      -2.13469733       0.74276022
14
Frame=14 idx=005677 GeodesicLength=1.548825210323142 rxn_smarts="[O:1]([C:2]1([H:8])[C:3]([H:9])([H:10])[C:4]([H:11])=[C:5]([H:12])[C:6]1([H:13])[H:14])[H:7]>>[H:7][H:9].[O:1]=[C:2](/[C:3](=[C:4](\[C:5](=[C:6]([H:13])[H:14])[H:12])[H:11])[H:10])[H:8]"
O       -1.93431401       0.38583844       0.04854411
C       -0.90586191       0.34832424      -0.76798446
C        0.30574278       1.13964340      -0.29703977
C        1.36391323       0.27698565       0.09205928
C        1.07813568      -1.06406108       0.31718810
C       -0.23684160      -1.49325639       0.03724264
H       -1.44210002       1.16283967       1.21566509
H       -1.20157175       0.57981228      -1.80243025
H       -0.50519260       1.79716707       1.16463999
H        0.61181751       1.89711151      -1.01996643
H        2.36488921       0.66166327       0.24808038
H        1.77005933      -1.67396107       0.88775793
H       -0.57255683      -1.88468671      -0.91449852
H       -0.69611901      -2.13342027       0.79074192
14
Frame=15 idx=005677 GeodesicLength=1.659463340301758 rxn_smarts="[O:1]([C:2]1([H:8])[C:3]([H:9])([H:10])[C:4]([H:11])=[C:5]([H:12])[C:6]1([H:13])[H:14])[H:7]>>[H:7][H:9].[O:1]=[C:2](/[C:3](=[C:4](\[C:5](=[C:6]([H:13])[H:14])[H:12])[H:11])[H:10])[H:8]"
O       -1.93665988       0.39491163       0.01205032
C       -0.89780930       0.36881879      -0.79269893
C        0.30414315       1.15464539      -0.28784518
C        1.35992032       0.27916540       0.09223196
C        1.08354289      -1.06715264       0.30288903
C       -0.23682362      -1.50060392       0.06525591
H       -1.47117466       1.11439435       1.20881352
H       -1.18472986       0.61795825      -1.82475615
H       -0.50340123       1.77048094       1.16463156
H        0.62607569       1.90339399      -1.01386919
H        2.36221881       0.66134541       0.24706019
H        1.79018013      -1.67590442       0.85650592
H       -0.62176652      -1.88813340      -0.86854582
H       -0.67371592      -2.13331976       0.83827685
14
Frame=16 idx=005677 GeodesicLength=1.7701108247542847 rxn_smarts="[O:1]([C:2]1([H:8])[C:3]([H:9])([H:10])[C:4]([H:11])=[C:5]([H:12])[C:6]1([H:13])[H:14])[H:7]>>[H:7][H:9].[O:1]=[C:2](/[C:3](=[C:4](\[C:5](=[C:6]([H:13])[H:14])[H:12])[H:11])[H:10])[H:8]"
O       -1.93805697       0.40310445      -0.02371903
C       -0.88957792       0.38965090      -0.81722496
C        0.30247922       1.16920679      -0.27904752
C        1.35541214       0.28097848       0.09307423
C        1.08812421      -1.07045167       0.28868885
C       -0.23624996      -1.50848670       0.09367208
H       -1.50059027       1.06428491       1.19986702
H       -1.16867688       0.65759742      -1.84596333
H       -0.50157949       1.74653690       1.16264489
H        0.64067910       1.90903060      -1.00773890
H        2.35899725       0.66057503       0.24708732
H        1.80959083      -1.67826835       0.82400052
H       -0.67117307      -1.88887007      -0.82018024
H       -0.64937819      -2.13488870       0.88483906
