14
Frame=0 idx=010675 GeodesicLength=0.0 rxn_smarts="[O:1](/[N:2]=[C:3]1/[C:4]([H:9])([H:10])[C:5]([H:11])([H:12])[C@:6]1([O:7][H:14])[H:13])[H:8]>>[O-:1][N:2]([C+:3]1[C:4]([H:9])([H:10])[C:5]([H:11])([H:12])[C@:6]1([O:7][H:14])[H:13])[H:8]"
O        1.94591553       1.79052543       0.27743216
N        1.75308221       0.46954513      -0.16081938
C        0.59942437      -0.00234705      -0.31581838
C        0.01643861      -1.35719508      -0.59443253
C       -1.28000375      -0.83426950       0.09083799
C       -0.72878723       0.61473366       0.04259843
O       -0.78011127       1.32534141       1.24079585
H        2.78730534       0.84295644       0.06118510
H        0.51919263      -2.20672735      -0.13532973
H       -0.10414714      -1.54776018      -1.66193144
H       -1.35837721      -1.16503221       1.12501597
H       -2.21831383      -1.01472908      -0.42886846
H       -1.14774064       1.18413826      -0.79802329
H       -0.00387760       1.90082017       1.25735770
14
Frame=1 idx=010675 GeodesicLength=0.0367742931863603 rxn_smarts="[O:1](/[N:2]=[C:3]1/[C:4]([H:9])([H:10])[C:5]([H:11])([H:12])[C@:6]1([O:7][H:14])[H:13])[H:8]>>[O-:1][N:2]([C+:3]1[C:4]([H:9])([H:10])[C:5]([H:11])([H:12])[C@:6]1([O:7][H:14])[H:13])[H:8]"
O        1.94592194       1.78577590       0.27274159
N        1.75162830       0.47772091      -0.18754523
C        0.59683021       0.00211926      -0.32473946
C        0.01660345      -1.35507476      -0.59772464
C       -1.27761164      -0.83483012       0.09377813
C       -0.73065109       0.61558240       0.04107796
O       -0.77737545       1.32676360       1.23925040
H        2.78765537       0.82839509       0.10465836
H        0.52454343      -2.20207809      -0.13954695
H       -0.10998033      -1.54868084      -1.66399621
H       -1.34954883      -1.16475727       1.12869887
H       -2.21825002      -1.01850273      -0.42063112
H       -1.15697036       1.18310040      -0.79714918
H       -0.00279498       1.90446626       1.25112746
14
Frame=2 idx=010675 GeodesicLength=0.07362026425659111 rxn_smarts="[O:1](/[N:2]=[C:3]1/[C:4]([H:9])([H:10])[C:5]([H:11])([H:12])[C@:6]1([O:7][H:14])[H:13])[H:8]>>[O-:1][N:2]([C+:3]1[C:4]([H:9])([H:10])[C:5]([H:11])([H:12])[C@:6]1([O:7][H:14])[H:13])[H:8]"
O        1.94634440       1.77994202       0.27093367
N        1.75037018       0.48518359      -0.21111114
C        0.59463990       0.00630839      -0.33229600
C        0.01709538      -1.35300869      -0.60035999
C       -1.27534368      -0.83518852       0.09629896
C       -0.73228662       0.61646533       0.03970433
O       -0.77541112       1.32822934       1.23781297
H        2.78662976       0.81514943       0.13985772
H        0.52957623      -2.19766038      -0.14278843
H       -0.11453438      -1.54947059      -1.66553212
H       -1.34180936      -1.16429640       1.13187504
H       -2.21787523      -1.02181774      -0.41362955
H       -1.16499894       1.18219832      -0.79650374
H       -0.00239650       1.90796588       1.24573827
14
Frame=3 idx=010675 GeodesicLength=0.11038729428150248 rxn_smarts="[O:1](/[N:2]=[C:3]1/[C:4]([H:9])([H:10])[C:5]([H:11])([H:12])[C@:6]1([O:7][H:14])[H:13])[H:8]>>[O-:1][N:2]([C+:3]1[C:4]([H:9])([H:10])[C:5]([H:11])([H:12])[C@:6]1([O:7][H:14])[H:13])[H:8]"
O        1.94705436       1.77308386       0.27205826
N        1.74909160       0.49224021      -0.23209051
C        0.59270312       0.01024406      -0.33850863
C        0.01780568      -1.35105472      -0.60226170
C       -1.27332698      -0.83540473       0.09834747
C       -0.73379947       0.61737485       0.03849525
O       -0.77427218       1.32968053       1.23648748
H        2.78574441       0.80339274       0.16705337
H        0.53418845      -2.19347912      -0.14490384
H       -0.11788782      -1.55029261      -1.66640559
H       -1.33537493      -1.16373559       1.13443565
H       -2.21726907      -1.02474473      -0.40797303
H       -1.17196446       1.18146560      -0.79599136
H       -0.00269272       1.91122965       1.24125719
14
Frame=4 idx=010675 GeodesicLength=0.14717583826365144 rxn_smarts="[O:1](/[N:2]=[C:3]1/[C:4]([H:9])([H:10])[C:5]([H:11])([H:12])[C@:6]1([O:7][H:14])[H:13])[H:8]>>[O-:1][N:2]([C+:3]1[C:4]([H:9])([H:10])[C:5]([H:11])([H:12])[C@:6]1([O:7][H:14])[H:13])[H:8]"
O        1.94787798       1.76569432       0.27442794
N        1.74780712       0.49906919      -0.25141314
C        0.59093043       0.01406923      -0.34403613
C        0.01867539      -1.34911377      -0.60381601
C       -1.27143621      -0.83553489       0.10017239
C       -0.73528424       0.61829464       0.03737511
O       -0.77360836       1.33114713       1.23524414
H        2.78490359       0.79219596       0.19011532
H        0.53867084      -2.18937486      -0.14648681
H       -0.12057976      -1.55105028      -1.66700531
H       -1.32957051      -1.16310080       1.13673589
H       -2.21657579      -1.02746837      -0.40298781
H       -1.17843583       1.18079508      -0.79558290
H       -0.00337466       1.91437742       1.23725732
14
Frame=5 idx=010675 GeodesicLength=0.1839547802430748 rxn_smarts="[O:1](/[N:2]=[C:3]1/[C:4]([H:9])([H:10])[C:5]([H:11])([H:12])[C@:6]1([O:7][H:14])[H:13])[H:8]>>[O-:1][N:2]([C+:3]1[C:4]([H:9])([H:10])[C:5]([H:11])([H:12])[C@:6]1([O:7][H:14])[H:13])[H:8]"
O        1.94877411       1.75778247       0.27794316
N        1.74641854       0.50584969      -0.26954396
C        0.58924841       0.01784554      -0.34905431
C        0.01966763      -1.34717683      -0.60509054
C       -1.26962343      -0.83560710       0.10182722
C       -0.73675835       0.61924079       0.03631076
O       -0.77334079       1.33265733       1.23402706
H        2.78424830       0.78132833       0.20990732
H        0.54305504      -2.18530852      -0.14763990
H       -0.12275281      -1.55177587      -1.66736030
H       -1.32423262      -1.16241159       1.13882560
H       -2.21577166      -1.03007090      -0.39849926
H       -1.18453918       1.18017670      -0.79525395
H       -0.00439318       1.91746997       1.23360111
14
Frame=6 idx=010675 GeodesicLength=0.22073543512944005 rxn_smarts="[O:1](/[N:2]=[C:3]1/[C:4]([H:9])([H:10])[C:5]([H:11])([H:12])[C@:6]1([O:7][H:14])[H:13])[H:8]>>[O-:1][N:2]([C+:3]1[C:4]([H:9])([H:10])[C:5]([H:11])([H:12])[C@:6]1([O:7][H:14])[H:13])[H:8]"
O        1.94974681       1.74938111       0.28239928
N        1.74490544       0.51266216      -0.28674620
C        0.58762360       0.02161711      -0.35371297
C        0.02076779      -1.34521873      -0.60616138
C       -1.26786514      -0.83563549       0.10336692
C       -0.73825744       0.62021272       0.03527508
O       -0.77341273       1.33422964       1.23281060
H        2.78384143       0.77059003       0.22719366
H        0.54741351      -2.18122647      -0.14847574
H       -0.12452626      -1.55246072      -1.66754167
H       -1.31921213      -1.16166422       1.14078232
H       -2.21489096      -1.03261439      -0.39435640
H       -1.19042832       1.17957369      -0.79500739
H       -0.00570560       1.92055355       1.23017388
14
Frame=7 idx=010675 GeodesicLength=0.2575118878906368 rxn_smarts="[O:1](/[N:2]=[C:3]1/[C:4]([H:9])([H:10])[C:5]([H:11])([H:12])[C@:6]1([O:7][H:14])[H:13])[H:8]>>[O-:1][N:2]([C+:3]1[C:4]([H:9])([H:10])[C:5]([H:11])([H:12])[C@:6]1([O:7][H:14])[H:13])[H:8]"
O        1.95077744       1.74052561       0.28759729
N        1.74325202       0.51955546      -0.30318797
C        0.58602996       0.02541400      -0.35812659
C        0.02195862      -1.34322356      -0.60709286
C       -1.26612906      -0.83563339       0.10483555
C       -0.73979216       0.62121083       0.03424998
O       -0.77375814       1.33588127       1.23156831
H        2.78365015       0.75983386       0.24259676
H        0.55178511      -2.17710079      -0.14910205
H       -0.12600116      -1.55309080      -1.66760245
H       -1.31437621      -1.16086471       1.14265734
H       -2.21393853      -1.03514369      -0.39043248
H       -1.19619394       1.17896376      -0.79483450
H       -0.00726411       1.92367215       1.22687367
14
Frame=8 idx=010675 GeodesicLength=0.29429812150475354 rxn_smarts="[O:1](/[N:2]=[C:3]1/[C:4]([H:9])([H:10])[C:5]([H:11])([H:12])[C@:6]1([O:7][H:14])[H:13])[H:8]>>[O-:1][N:2]([C+:3]1[C:4]([H:9])([H:10])[C:5]([H:11])([H:12])[C@:6]1([O:7][H:14])[H:13])[H:8]"
O        1.95187409       1.73121977       0.29346776
N        1.74144878       0.52658059      -0.31899965
C        0.58444504       0.02926779      -0.36239462
C        0.02323135      -1.34118965      -0.60794113
C       -1.26438696      -0.83561537       0.10626904
C       -0.74137978       0.62224911       0.03321302
O       -0.77433830       1.33765456       1.23027907
H        2.78365178       0.74892422       0.25655100
H        0.55621988      -2.17292477      -0.14960193
H       -0.12726293      -1.55367602      -1.66759828
H       -1.30960093      -1.16001768       1.14450313
H       -2.21292483      -1.03770667      -0.38662603
H       -1.20193267       1.17833883      -0.79474756
H       -0.00904451       1.92689530       1.22362618
14
Frame=9 idx=010675 GeodesicLength=0.3310967601250926 rxn_smarts="[O:1](/[N:2]=[C:3]1/[C:4]([H:9])([H:10])[C:5]([H:11])([H:12])[C@:6]1([O:7][H:14])[H:13])[H:8]>>[O-:1][N:2]([C+:3]1[C:4]([H:9])([H:10])[C:5]([H:11])([H:12])[C@:6]1([O:7][H:14])[H:13])[H:8]"
O        1.95292699       1.72169538       0.29939539
N        1.73954390       0.53360483      -0.33415415
C        0.58287405       0.03315871      -0.36659721
C        0.02454898      -1.33908521      -0.60877372
C       -1.26261033      -0.83557909       0.10770365
C       -0.74297607       0.62328651       0.03217310
O       -0.77502652       1.33947742       1.22892688
H        2.78362411       0.73786920       0.26983516
H        0.56066766      -2.16867537      -0.15012542
H       -0.12840510      -1.55412774      -1.66757021
H       -1.30479708      -1.15913116       1.14633358
H       -2.21184453      -1.04028110      -0.38280963
H       -1.20760812       1.17766226      -0.79468608
H       -0.01091794       1.93012535       1.22034868
14
Frame=10 idx=010675 GeodesicLength=0.3678455762328132 rxn_smarts="[O:1](/[N:2]=[C:3]1/[C:4]([H:9])([H:10])[C:5]([H:11])([H:12])[C@:6]1([O:7][H:14])[H:13])[H:8]>>[O-:1][N:2]([C+:3]1[C:4]([H:9])([H:10])[C:5]([H:11])([H:12])[C@:6]1([O:7][H:14])[H:13])[H:8]"
O        1.95393792       1.71186729       0.30552988
N        1.73748879       0.54076589      -0.34878508
C        0.58132380       0.03703613      -0.37059101
C        0.02593044      -1.33697143      -0.60946131
C       -1.26088508      -0.83551168       0.10904529
C       -0.74459115       0.62433013       0.03117156
O       -0.77588301       1.34130793       1.22760635
H        2.78383311       0.72690377       0.28185269
H        0.56509468      -2.16439214      -0.15040008
H       -0.12927263      -1.55458021      -1.66741166
H       -1.30025893      -1.15821230       1.14805312
H       -2.21071231      -1.04279225      -0.37926633
H       -1.21314188       1.17701252      -0.79463644
H       -0.01286374       1.93323635       1.21729304
14
Frame=11 idx=010675 GeodesicLength=0.40459056383768455 rxn_smarts="[O:1](/[N:2]=[C:3]1/[C:4]([H:9])([H:10])[C:5]([H:11])([H:12])[C@:6]1([O:7][H:14])[H:13])[H:8]>>[O-:1][N:2]([C+:3]1[C:4]([H:9])([H:10])[C:5]([H:11])([H:12])[C@:6]1([O:7][H:14])[H:13])[H:8]"
O        1.95481497       1.70206376       0.31124604
N        1.73536374       0.54789484      -0.36284169
C        0.57980701       0.04085507      -0.37443840
C        0.02733252      -1.33488682      -0.61008385
C       -1.25920213      -0.83543079       0.11030834
C       -0.74618667       0.62536581       0.03022734
O       -0.77675926       1.34312368       1.22635782
H        2.78408080       0.71611806       0.29336340
H        0.56945955      -2.16016475      -0.15056993
H       -0.12998505      -1.55503019      -1.66721011
H       -1.29590856      -1.15730392       1.14967680
H       -2.20956641      -1.04521996      -0.37593315
H       -1.21852480       1.17641659      -0.79455063
H       -0.01472572       1.93619864       1.21444799
14
Frame=12 idx=010675 GeodesicLength=0.441316745828936 rxn_smarts="[O:1](/[N:2]=[C:3]1/[C:4]([H:9])([H:10])[C:5]([H:11])([H:12])[C@:6]1([O:7][H:14])[H:13])[H:8]>>[O-:1][N:2]([C+:3]1[C:4]([H:9])([H:10])[C:5]([H:11])([H:12])[C@:6]1([O:7][H:14])[H:13])[H:8]"
O        1.95557941       1.69227861       0.31653119
N        1.73316910       0.55499859      -0.37639785
C        0.57831624       0.04462968      -0.37818305
C        0.02875197      -1.33281369      -0.61066023
C       -1.25754648      -0.83533612       0.11151161
C       -0.74776142       0.62638960       0.02932957
O       -0.77763875       1.34491862       1.22516210
H        2.78430507       0.70546348       0.30454122
H        0.57377353      -2.15596354      -0.15066873
H       -0.13056904      -1.55546258      -1.66697475
H       -1.29169823      -1.15639885       1.15122435
H       -2.20840098      -1.04757880      -0.37275479
H       -1.22378103       1.17585463      -0.79442749
H       -0.01649941       1.93902037       1.21176683
14
Frame=13 idx=010675 GeodesicLength=0.478029216937567 rxn_smarts="[O:1](/[N:2]=[C:3]1/[C:4]([H:9])([H:10])[C:5]([H:11])([H:12])[C@:6]1([O:7][H:14])[H:13])[H:8]>>[O-:1][N:2]([C+:3]1[C:4]([H:9])([H:10])[C:5]([H:11])([H:12])[C@:6]1([O:7][H:14])[H:13])[H:8]"
O        1.95623902       1.68253993       0.32134468
N        1.73091590       0.56206601      -0.38950826
C        0.57684514       0.04836813      -0.38186598
C        0.03018322      -1.33074822      -0.61121307
C       -1.25590540      -0.83523026       0.11266941
C       -0.74931364       0.62740225       0.02847073
O       -0.77849843       1.34669646       1.22400962
H        2.78444821       0.69490871       0.31557047
H        0.57804846      -2.15178203      -0.15073408
H       -0.13106073      -1.55587738      -1.66672308
H       -1.28758212      -1.15549634       1.15271259
H       -2.20721673      -1.04988101      -0.36968728
H       -1.22893502       1.17532028      -0.79426515
H       -0.01816787       1.94171346       1.20921939
14
Frame=14 idx=010675 GeodesicLength=0.5147321113040819 rxn_smarts="[O:1](/[N:2]=[C:3]1/[C:4]([H:9])([H:10])[C:5]([H:11])([H:12])[C@:6]1([O:7][H:14])[H:13])[H:8]>>[O-:1][N:2]([C+:3]1[C:4]([H:9])([H:10])[C:5]([H:11])([H:12])[C@:6]1([O:7][H:14])[H:13])[H:8]"
O        1.95680165       1.67287069       0.32565612
N        1.72861649       0.56908473      -0.40221632
C        0.57539024       0.05207446      -0.38551797
C        0.03162072      -1.32868832      -0.61176310
C       -1.25426699      -0.83511575       0.11379570
C       -0.75084038       0.62840419       0.02764341
O       -0.77931931       1.34846118       1.22289102
H        2.78445702       0.68443252       0.32660467
H        0.58228942      -2.14762010      -0.15080173
H       -0.13149186      -1.55626887      -1.66647327
H       -1.28351729      -1.15459766       1.15415740
H       -2.20601464      -1.05213713      -0.36668890
H       -1.23400479       1.17480696      -0.79406473
H       -0.01972027       1.94429309       1.20677771
14
Frame=15 idx=010675 GeodesicLength=0.5514294879017037 rxn_smarts="[O:1](/[N:2]=[C:3]1/[C:4]([H:9])([H:10])[C:5]([H:11])([H:12])[C@:6]1([O:7][H:14])[H:13])[H:8]>>[O-:1][N:2]([C+:3]1[C:4]([H:9])([H:10])[C:5]([H:11])([H:12])[C@:6]1([O:7][H:14])[H:13])[H:8]"
O        1.95728525       1.66325625       0.32951043
N        1.72626889       0.57607010      -0.41458152
C        0.57394402       0.05576054      -0.38916380
C        0.03306601      -1.32662953      -0.61231627
C       -1.25262451      -0.83499367       0.11489764
C       -0.75234582       0.62939815       0.02684214
O       -0.78009472       1.35021586       1.22180077
H        2.78431137       0.67399806       0.33769718
H        0.58651153      -2.14346437      -0.15087703
H       -0.13187245      -1.55664279      -1.66622765
H       -1.27948066      -1.15370056       1.15556772
H       -2.20479207      -1.05435618      -0.36374179
H       -1.23901495       1.17431010      -0.79382533
H       -0.02116190       1.94677805       1.20441752
14
Frame=16 idx=010675 GeodesicLength=0.5881256228498936 rxn_smarts="[O:1](/[N:2]=[C:3]1/[C:4]([H:9])([H:10])[C:5]([H:11])([H:12])[C@:6]1([O:7][H:14])[H:13])[H:8]>>[O-:1][N:2]([C+:3]1[C:4]([H:9])([H:10])[C:5]([H:11])([H:12])[C@:6]1([O:7][H:14])[H:13])[H:8]"
O        1.95770297       1.65369657       0.33291929
N        1.72387949       0.58301974      -0.42664151
C        0.57250033       0.05943680      -0.39283433
C        0.03451686      -1.32456621      -0.61288953
C       -1.25096580      -0.83486507       0.11598816
C       -0.75383148       0.63038717       0.02605726
O       -0.78081529       1.35196836       1.22072644
H        2.78396673       0.66356922       0.34895107
H        0.59072941      -2.13930468      -0.15098855
H       -0.13222752      -1.55699664      -1.66599913
H       -1.27542907      -1.15279996       1.15695941
H       -2.20354661      -1.05655188      -0.36080810
H       -1.24398977       1.17382160      -0.79355086
H       -0.02249025       1.94918496       1.20211037
