16
Frame=0 idx=005019 GeodesicLength=0.0 rxn_smarts="[C:1]([O:2][C:3]([C@@:4]([C:5]([H:13])([H:14])[H:15])([O:6][H:16])[H:12])([H:10])[H:11])([H:7])([H:8])[H:9]>>[C:1]([O:6][C@@:4]([C:3]([O:2][H:16])([H:10])[H:11])([C:5]([H:13])([H:14])[H:15])[H:12])([H:7])([H:8])[H:9]"
C        1.26999250      -1.38567301      -0.19754615
O        1.72419841       0.69225844       0.09044530
C        0.52744642       1.23601234      -0.29265025
C       -0.58720315       0.52200700       0.55318157
C       -1.77754656       0.02364003      -0.22452338
O        0.11003201      -0.56810153       1.17579763
H        0.65443635      -2.24569997       0.03581758
H        1.16449317      -1.01961854      -1.20830094
H        2.28912878      -1.45035436       0.15158052
H        0.31249337       1.07826467      -1.36893965
H        0.48055798       2.31950474      -0.11628653
H       -0.91021741       1.17219870       1.37164776
H       -2.48561408      -0.50465931       0.41545618
H       -1.46675749      -0.64756087      -1.02849495
H       -2.29157749       0.87181219      -0.68115205
H        0.98613723      -0.09403050       1.32396740
16
Frame=1 idx=005019 GeodesicLength=0.09072043462049674 rxn_smarts="[C:1]([O:2][C:3]([C@@:4]([C:5]([H:13])([H:14])[H:15])([O:6][H:16])[H:12])([H:10])[H:11])([H:7])([H:8])[H:9]>>[C:1]([O:6][C@@:4]([C:3]([O:2][H:16])([H:10])[H:11])([C:5]([H:13])([H:14])[H:15])[H:12])([H:7])([H:8])[H:9]"
C        1.28244141      -1.38032143      -0.20152182
O        1.72038995       0.69494122       0.11040392
C        0.52197110       1.22732109      -0.29371611
C       -0.59134982       0.52041760       0.55432398
C       -1.78721436       0.03006341      -0.21959975
O        0.10351230      -0.56937112       1.17989689
H        0.65721074      -2.24266780      -0.00100345
H        1.20804470      -1.01959131      -1.21797942
H        2.29487237      -1.46818836       0.16361328
H        0.31543496       1.05362080      -1.36854163
H        0.46780605       2.31302558      -0.13719702
H       -0.90764682       1.17650018       1.37093206
H       -2.49370189      -0.49576613       0.42408734
H       -1.48468694      -0.64146035      -1.02632731
H       -2.29868354       0.88209645      -0.67195397
H        0.99159979      -0.08061984       1.33458302
16
Frame=2 idx=005019 GeodesicLength=0.18139741070862236 rxn_smarts="[C:1]([O:2][C:3]([C@@:4]([C:5]([H:13])([H:14])[H:15])([O:6][H:16])[H:12])([H:10])[H:11])([H:7])([H:8])[H:9]>>[C:1]([O:6][C@@:4]([C:3]([O:2][H:16])([H:10])[H:11])([C:5]([H:13])([H:14])[H:15])[H:12])([H:7])([H:8])[H:9]"
C        1.29519705      -1.37486325      -0.20554339
O        1.71625665       0.69757545       0.12983664
C        0.51637170       1.21825913      -0.29496726
C       -0.59559609       0.51869151       0.55547001
C       -1.79712198       0.03664275      -0.21451933
O        0.09676874      -0.57088757       1.18388972
H        0.66068357      -2.23868394      -0.03896460
H        1.25323660      -1.01919602      -1.22671304
H        2.29990186      -1.48670414       0.17590658
H        0.31800631       1.02860776      -1.36798421
H        0.45525409       2.30579649      -0.15840992
H       -0.90495898       1.18071953       1.37016176
H       -2.50205083      -0.48656491       0.43294212
H       -1.50313114      -0.63524523      -1.02397420
H       -2.30583742       0.89261718      -0.66257511
H        0.99701987      -0.06676475       1.34544421
16
Frame=3 idx=005019 GeodesicLength=0.27204041948831575 rxn_smarts="[C:1]([O:2][C:3]([C@@:4]([C:5]([H:13])([H:14])[H:15])([O:6][H:16])[H:12])([H:10])[H:11])([H:7])([H:8])[H:9]>>[C:1]([O:6][C@@:4]([C:3]([O:2][H:16])([H:10])[H:11])([C:5]([H:13])([H:14])[H:15])[H:12])([H:7])([H:8])[H:9]"
C        1.30826847      -1.36930145      -0.20962246
O        1.71181085       0.70015910       0.14873443
C        0.51064606       1.20881455      -0.29640472
C       -0.59993941       0.51682092       0.55661800
C       -1.80726027       0.04337754      -0.20928364
O        0.08980528      -0.57266295       1.18776677
H        0.66491230      -2.23368211      -0.07806392
H        1.30001021      -1.01841817      -1.23438034
H        2.30415153      -1.50594021       0.18838865
H        0.32020683       1.00320408      -1.36727065
H        0.44288812       2.29780571      -0.17992128
H       -0.90214859       1.18484358       1.36933220
H       -2.51064933      -0.47705658       0.44201737
H       -1.52208652      -0.62890927      -1.02143579
H       -2.31302320       0.90337381      -0.65301709
H        1.00240766      -0.05242855       1.35654248
16
Frame=4 idx=005019 GeodesicLength=0.3626342475150769 rxn_smarts="[C:1]([O:2][C:3]([C@@:4]([C:5]([H:13])([H:14])[H:15])([O:6][H:16])[H:12])([H:10])[H:11])([H:7])([H:8])[H:9]>>[C:1]([O:6][C@@:4]([C:3]([O:2][H:16])([H:10])[H:11])([C:5]([H:13])([H:14])[H:15])[H:12])([H:7])([H:8])[H:9]"
C        1.32166178      -1.36364192      -0.21376289
O        1.70706617       0.70268882       0.16708902
C        0.50479457       1.19897486      -0.29802907
C       -0.60437628       0.51479833       0.55776720
C       -1.81761740       0.05026465      -0.20389409
O        0.08262830      -0.57470633       1.19152165
H        0.66995685      -2.22759131      -0.11830117
H        1.34829132      -1.01724116      -1.24086443
H        2.30755252      -1.52593180       0.20098039
H        0.32203924       0.97738853      -1.36640428
H        0.43069928       2.28904236      -0.20172920
H       -0.89921210       1.18886001       1.36843864
H       -2.51948322      -0.46724574       0.45131067
H       -1.54154581      -0.62244849      -1.01871164
H       -2.32022364       0.91436176      -0.64328299
H        1.00776843      -0.03757258       1.36787218
16
Frame=5 idx=005019 GeodesicLength=0.45318189857382496 rxn_smarts="[C:1]([O:2][C:3]([C@@:4]([C:5]([H:13])([H:14])[H:15])([O:6][H:16])[H:12])([H:10])[H:11])([H:7])([H:8])[H:9]>>[C:1]([O:6][C@@:4]([C:3]([O:2][H:16])([H:10])[H:11])([C:5]([H:13])([H:14])[H:15])[H:12])([H:7])([H:8])[H:9]"
C        1.33538402      -1.35789358      -0.21796156
O        1.70203845       0.70515606       0.18488879
C        0.49881882       1.18873002      -0.29983842
C       -0.60890272       0.51261578       0.55891770
C       -1.82817931       0.05729857      -0.19835460
O        0.07524345      -0.57702552       1.19515075
H        0.67588193      -2.22033746      -0.15966281
H        1.39797978      -1.01565321      -1.24606200
H        2.31003717      -1.54671324       0.21359640
H        0.32350643       0.95114700      -1.36538585
H        0.41868263       2.27949387      -0.22382535
H       -0.89614858       1.19275568       1.36747648
H       -2.52853664      -0.45714034       0.46081495
H       -1.56149510      -0.61585933      -1.01580363
H       -2.32742080       0.92557342      -0.63337836
H        1.01311046      -0.02214771       1.37942750
16
Frame=6 idx=005019 GeodesicLength=0.5436877825327754 rxn_smarts="[C:1]([O:2][C:3]([C@@:4]([C:5]([H:13])([H:14])[H:15])([O:6][H:16])[H:12])([H:10])[H:11])([H:7])([H:8])[H:9]>>[C:1]([O:6][C@@:4]([C:3]([O:2][H:16])([H:10])[H:11])([C:5]([H:13])([H:14])[H:15])[H:12])([H:7])([H:8])[H:9]"
C        1.34943997      -1.35206221      -0.22221677
O        1.69673912       0.70755091       0.20212785
C        0.49271946       1.17807136      -0.30182498
C       -0.61351587       0.51026836       0.56006828
C       -1.83892601       0.06447343      -0.19267496
O        0.06765311      -0.57962572       1.19865798
H        0.68276520      -2.21185574      -0.20210100
H        1.44894053      -1.01365987      -1.24984015
H        2.31154439      -1.56831659       0.22608712
H        0.32461544       0.92447340      -1.36420814
H        0.40683165       2.26915169      -0.24619084
H       -0.89296112       1.19652294       1.36643625
H       -2.53779052      -0.44674947       0.47051334
H       -1.58190936      -0.60914089      -1.01271595
H       -2.33458985       0.93699889      -0.62331883
H        1.01844386      -0.00610050       1.39120079
16
Frame=7 idx=005019 GeodesicLength=0.6341388295831815 rxn_smarts="[C:1]([O:2][C:3]([C@@:4]([C:5]([H:13])([H:14])[H:15])([O:6][H:16])[H:12])([H:10])[H:11])([H:7])([H:8])[H:9]>>[C:1]([O:6][C@@:4]([C:3]([O:2][H:16])([H:10])[H:11])([C:5]([H:13])([H:14])[H:15])[H:12])([H:7])([H:8])[H:9]"
C        1.36382752      -1.34615944      -0.22651346
O        1.69118659       0.70986127       0.21879107
C        0.48650126       1.16698950      -0.30398234
C       -0.61821134       0.50774906       0.56121986
C       -1.84983970       0.07178137      -0.18686262
O        0.05986214      -0.58251151       1.20204537
H        0.69069592      -2.20207657      -0.24556766
H        1.50104009      -1.01125402      -1.25211046
H        2.31200081      -1.59077588       0.23833191
H        0.32537240       0.89736292      -1.36286927
H        0.39514675       2.25800263      -0.26880821
H       -0.88965245       1.20014984       1.36531388
H       -2.54722603      -0.43608425       0.48039355
H       -1.60276572      -0.60229127      -1.00945351
H       -2.34171036       0.94862680      -0.61311638
H        1.02377211       0.01062954       1.40318825
16
Frame=8 idx=005019 GeodesicLength=0.724532337254025 rxn_smarts="[C:1]([O:2][C:3]([C@@:4]([C:5]([H:13])([H:14])[H:15])([O:6][H:16])[H:12])([H:10])[H:11])([H:7])([H:8])[H:9]>>[C:1]([O:6][C@@:4]([C:3]([O:2][H:16])([H:10])[H:11])([C:5]([H:13])([H:14])[H:15])[H:12])([H:7])([H:8])[H:9]"
C        1.37854132      -1.34019690      -0.23083826
O        1.68539755       0.71206755       0.23486914
C        0.48016985       1.15547667      -0.30629731
C       -0.62298481       0.50505319       0.56237440
C       -1.86089796       0.07921290      -0.18093043
O        0.05187352      -0.58568659       1.20532335
H        0.69976726      -2.19093794      -0.28998716
H        1.55411102      -1.00845134      -1.25277290
H        2.31135012      -1.61411561       0.25016749
H        0.32578548       0.86982067      -1.36136047
H        0.38363094       2.24603827      -0.29164520
H       -0.88622945       1.20362973       1.36410357
H       -2.55682339      -0.42515826       0.49043454
H       -1.62403206      -0.59531314      -1.00602447
H       -2.34875722       0.96044312      -0.60279106
H        1.02909783       0.02811769       1.41537478
16
Frame=9 idx=005019 GeodesicLength=0.8150157943369221 rxn_smarts="[C:1]([O:2][C:3]([C@@:4]([C:5]([H:13])([H:14])[H:15])([O:6][H:16])[H:12])([H:10])[H:11])([H:7])([H:8])[H:9]>>[C:1]([O:6][C@@:4]([C:3]([O:2][H:16])([H:10])[H:11])([C:5]([H:13])([H:14])[H:15])[H:12])([H:7])([H:8])[H:9]"
C        1.39357337      -1.33423077      -0.23516921
O        1.67938147       0.71414286       0.25038449
C        0.47373268       1.14352883      -0.30875489
C       -0.62782597       0.50216247       0.56352945
C       -1.87206427       0.08674668      -0.17489315
O        0.04367809      -0.58916524       1.20849723
H        0.70984003      -2.17840038      -0.33515424
H        1.60806474      -1.00515467      -1.25184936
H        2.30960763      -1.63833464       0.26141640
H        0.32588912       0.84184733      -1.35966328
H        0.37225897       2.23325899      -0.31469430
H       -0.88270172       1.20693396       1.36279004
H       -2.56654703      -0.41400580       0.50060973
H       -1.64565845      -0.58819894      -1.00244219
H       -2.35568957       0.97241807      -0.59235617
H        1.03446092       0.04645124       1.42774944
16
Frame=10 idx=005019 GeodesicLength=0.9054472911670851 rxn_smarts="[C:1]([O:2][C:3]([C@@:4]([C:5]([H:13])([H:14])[H:15])([O:6][H:16])[H:12])([H:10])[H:11])([H:7])([H:8])[H:9]>>[C:1]([O:6][C@@:4]([C:3]([O:2][H:16])([H:10])[H:11])([C:5]([H:13])([H:14])[H:15])[H:12])([H:7])([H:8])[H:9]"
C        1.40891542      -1.32823464      -0.23947987
O        1.67316663       0.71608501       0.26531577
C        0.46719623       1.13114052      -0.31133911
C       -0.63273638       0.49908482       0.56469291
C       -1.88332507       0.09438346      -0.16876454
O        0.03528202      -0.59293710       1.21158397
H        0.72121861      -2.16441493      -0.38108129
H        1.66261696      -1.00152703      -1.24918805
H        2.30667752      -1.66344102       0.27189896
H        0.32567370       0.81346348      -1.35777661
H        0.36105935       2.21965278      -0.33790317
H       -0.87907833       1.21007247       1.36137715
H       -2.57638978      -0.40262306       0.51089727
H       -1.66761655      -0.58095481      -0.99871349
H       -2.36249188       0.98454998      -0.58183935
H        1.03983154       0.06570006       1.44031946
16
Frame=11 idx=005019 GeodesicLength=0.9958365715242329 rxn_smarts="[C:1]([O:2][C:3]([C@@:4]([C:5]([H:13])([H:14])[H:15])([O:6][H:16])[H:12])([H:10])[H:11])([H:7])([H:8])[H:9]>>[C:1]([O:6][C@@:4]([C:3]([O:2][H:16])([H:10])[H:11])([C:5]([H:13])([H:14])[H:15])[H:12])([H:7])([H:8])[H:9]"
C        1.42455773      -1.32223128      -0.24374148
O        1.66677134       0.71787482       0.27966485
C        0.46056868       1.11830595      -0.31403159
C       -0.63770982       0.49581371       0.56586873
C       -1.89465280       0.10211095      -0.16255852
O        0.02668430      -0.59700296       1.21459911
H        0.73396213      -2.14895079      -0.42766436
H        1.71757959      -0.99760305      -1.24477522
H        2.30252759      -1.68941554       0.28146087
H        0.32515066       0.78468626      -1.35568990
H        0.35003558       2.20521601      -0.36123856
H       -0.87536850       1.21303479       1.35986042
H       -2.58632858      -0.39102789       0.52127238
H       -1.68986160      -0.57358149      -0.99484790
H       -2.36913372       0.99682015      -0.57126161
H        1.04521741       0.08595035       1.45308279
16
Frame=12 idx=005019 GeodesicLength=1.0862090120798107 rxn_smarts="[C:1]([O:2][C:3]([C@@:4]([C:5]([H:13])([H:14])[H:15])([O:6][H:16])[H:12])([H:10])[H:11])([H:7])([H:8])[H:9]>>[C:1]([O:6][C@@:4]([C:3]([O:2][H:16])([H:10])[H:11])([C:5]([H:13])([H:14])[H:15])[H:12])([H:7])([H:8])[H:9]"
C        1.44048642      -1.31623928      -0.24793219
O        1.66021067       0.71948782       0.29344296
C        0.45385686       1.10502119      -0.31680608
C       -0.64274227       0.49234405       0.56706066
C       -1.90601913       0.10992107      -0.15629510
O        0.01787663      -0.60136868       1.21756299
H        0.74810417      -2.13201750      -0.47476732
H        1.77274789      -0.99344757      -1.23860422
H        2.29718637      -1.71619811       0.28992403
H        0.32433170       0.75553541      -1.35338603
H        0.33918947       2.18994922      -0.38465207
H       -0.87158346       1.21581140       1.35823443
H       -2.59634312      -0.37923676       0.53169934
H       -1.71234735      -0.56607327      -0.99086227
H       -2.37558104       1.00921722      -0.56064590
H        1.05062619       0.10729378       1.46602677
16
Frame=13 idx=005019 GeodesicLength=1.1765371276006074 rxn_smarts="[C:1]([O:2][C:3]([C@@:4]([C:5]([H:13])([H:14])[H:15])([O:6][H:16])[H:12])([H:10])[H:11])([H:7])([H:8])[H:9]>>[C:1]([O:6][C@@:4]([C:3]([O:2][H:16])([H:10])[H:11])([C:5]([H:13])([H:14])[H:15])[H:12])([H:7])([H:8])[H:9]"
C        1.45667099      -1.31029526      -0.25201945
O        1.65350658       0.72089514       0.30665129
C        0.44707232       1.09127730      -0.31964602
C       -0.64782864       0.48866923       0.56827712
C       -1.91740377       0.11780235      -0.14998260
O        0.00885545      -0.60603623       1.22048946
H        0.76374988      -2.11357879      -0.52227910
H        1.82797003      -0.98907863      -1.23068822
H        2.29059510      -1.74377504       0.29713263
H        0.32322701       0.72602019      -1.35085957
H        0.32853414       2.17384407      -0.40811477
H       -0.86773085       1.21839401       1.35650156
H       -2.60641887      -0.36726082       0.54216312
H       -1.73503819      -0.55843381      -0.98676247
H       -2.38181083       1.02172360      -0.55000951
H        1.05604964       0.12983270       1.47914653
16
Frame=14 idx=005019 GeodesicLength=1.2668373262826444 rxn_smarts="[C:1]([O:2][C:3]([C@@:4]([C:5]([H:13])([H:14])[H:15])([O:6][H:16])[H:12])([H:10])[H:11])([H:7])([H:8])[H:9]>>[C:1]([O:6][C@@:4]([C:3]([O:2][H:16])([H:10])[H:11])([C:5]([H:13])([H:14])[H:15])[H:12])([H:7])([H:8])[H:9]"
C        1.47308595      -1.30442023      -0.25598276
O        1.64667392       0.72207023       0.31930789
C        0.44022180       1.07706997      -0.32252181
C       -0.65296785       0.48478437       0.56952503
C       -1.92878398       0.12575089      -0.14363961
O       -0.00039412      -0.61101410       1.22339822
H        0.78095159      -2.09366999      -0.57003782
H        1.88307110      -0.98457688      -1.22103721
H        2.28278705      -1.77207308       0.30288379
H        0.32184585       0.69616096      -1.34809233
H        0.31807305       2.15689985      -0.43157423
H       -0.86382403       1.22077253       1.35466262
H       -2.61654196      -0.35511162       0.55262886
H       -1.75789256      -0.55065249      -0.98256779
H       -2.38779401       1.03433360      -0.53937240
H        1.06148820       0.15367598       1.49241954
16
Frame=15 idx=005019 GeodesicLength=1.3570975632660294 rxn_smarts="[C:1]([O:2][C:3]([C@@:4]([C:5]([H:13])([H:14])[H:15])([O:6][H:16])[H:12])([H:10])[H:11])([H:7])([H:8])[H:9]>>[C:1]([O:6][C@@:4]([C:3]([O:2][H:16])([H:10])[H:11])([C:5]([H:13])([H:14])[H:15])[H:12])([H:7])([H:8])[H:9]"
C        1.48969909      -1.29864303      -0.25979817
O        1.63972824       0.72298421       0.33143089
C        0.43331276       1.06239196      -0.32540830
C       -0.65815860       0.48068436       0.57081378
C       -1.94014134       0.13376235      -0.13727829
O       -0.00988540      -0.61631060       1.22630586
H        0.79977557      -2.07231831      -0.61790658
H        1.93790537      -0.98000685      -1.20966524
H        2.27377770      -1.80102687       0.30699012
H        0.32019886       0.66597012      -1.34506926
H        0.30781341       2.13911433      -0.45499102
H       -0.85987344       1.22293787       1.35272249
H       -2.62670242      -0.34279733       0.56307262
H       -1.78087664      -0.54272079      -0.97829154
H       -2.39350701       1.04704027      -0.52875003
H        1.06693382       0.17893831       1.50582267
16
Frame=16 idx=005019 GeodesicLength=1.4473143666579138 rxn_smarts="[C:1]([O:2][C:3]([C@@:4]([C:5]([H:13])([H:14])[H:15])([O:6][H:16])[H:12])([H:10])[H:11])([H:7])([H:8])[H:9]>>[C:1]([O:6][C@@:4]([C:3]([O:2][H:16])([H:10])[H:11])([C:5]([H:13])([H:14])[H:15])[H:12])([H:7])([H:8])[H:9]"
C        1.50647058      -1.29299304      -0.26346017
O        1.63268207       0.72360043       0.34304086
C        0.42635071       1.04724002      -0.32827398
C       -0.66340328       0.47636278       0.57215227
C       -1.95146056       0.14184026      -0.13091496
O       -0.01964090      -0.62194229       1.22922196
H        0.82029587      -2.04960149      -0.66569400
H        1.99232466      -0.97546326      -1.19659939
H        2.26362041      -1.83052740       0.30924577
H        0.31829271       0.63546940      -1.34177305
H        0.29776145       2.12049037      -0.47830646
H       -0.85589214       1.22487365       1.35069135
H       -2.63689606      -0.33032233       0.57346074
H       -1.80395848      -0.53461695      -0.97395655
H       -2.39892611       1.05984823      -0.51815400
H        1.07237906       0.20574162       1.51931961
