11
Frame=0 idx=006338 GeodesicLength=0.0 rxn_smarts="[O:1]=[c:2]1[o:3][c:4]([H:8])[c:5]([H:9])[c:6]([H:10])[c:7]1[H:11]>>[O:1]=[C:2]1[C@:5]([C:4](=[O:3])[H:8])([H:9])[C:6]([H:10])=[C:7]1[H:11]"
O        1.47379420      -0.93913502      -1.68727176
C        1.13926724      -0.27257294      -0.80759005
O       -0.24837460      -1.58498850       1.32732269
C       -0.98188356      -1.14110547       0.47495719
C       -0.87885498       0.14700450      -0.23249183
C       -0.01610085       1.17262249       0.23405030
C        1.27828160       0.73490357       0.14668947
H       -1.86619652      -1.72442805       0.15005742
H       -1.78032742       0.40807068      -0.78081668
H       -0.32105368       2.16421185       0.55515307
H        2.20144853       1.03541690       0.61994017
11
Frame=1 idx=006338 GeodesicLength=0.0662005639370416 rxn_smarts="[O:1]=[c:2]1[o:3][c:4]([H:8])[c:5]([H:9])[c:6]([H:10])[c:7]1[H:11]>>[O:1]=[C:2]1[C@:5]([C:4](=[O:3])[H:8])([H:9])[C:6]([H:10])=[C:7]1[H:11]"
O        1.48557648      -0.95374398      -1.66201727
C        1.12866148      -0.30371759      -0.77545136
O       -0.22709894      -1.60009537       1.28588724
C       -1.00327743      -1.12918946       0.48212009
C       -0.88321089       0.15091009      -0.22960984
C       -0.01635601       1.17282315       0.24642177
C        1.27527411       0.73545454       0.14943327
H       -1.86997650      -1.72694691       0.13959556
H       -1.77802032       0.41900523      -0.78525353
H       -0.31923904       2.16394159       0.57013879
H        2.20766705       1.07155873       0.57873527
11
Frame=2 idx=006338 GeodesicLength=0.13216306567672625 rxn_smarts="[O:1]=[c:2]1[o:3][c:4]([H:8])[c:5]([H:9])[c:6]([H:10])[c:7]1[H:11]>>[O:1]=[C:2]1[C@:5]([C:4](=[O:3])[H:8])([H:9])[C:6]([H:10])=[C:7]1[H:11]"
O        1.49861887      -0.96833903      -1.63566123
C        1.11909987      -0.33182300      -0.74528904
O       -0.20901911      -1.61297383       1.24536264
C       -1.02148301      -1.11943868       0.48663489
C       -0.88658885       0.15394843      -0.22745590
C       -0.01658719       1.17251381       0.25892247
C        1.27249930       0.73623625       0.15176443
H       -1.87542271      -1.72694829       0.13223135
H       -1.77496440       0.42883188      -0.78989727
H       -0.31818371       2.16212209       0.58755854
H        2.21203094       1.10587036       0.53582912
11
Frame=3 idx=006338 GeodesicLength=0.1978097817593576 rxn_smarts="[O:1]=[c:2]1[o:3][c:4]([H:8])[c:5]([H:9])[c:6]([H:10])[c:7]1[H:11]>>[O:1]=[C:2]1[C@:5]([C:4](=[O:3])[H:8])([H:9])[C:6]([H:10])=[C:7]1[H:11]"
O        1.51350455      -0.98190422      -1.60925966
C        1.11093878      -0.35688705      -0.71739837
O       -0.19257139      -1.62457802       1.20499361
C       -1.03642442      -1.11174589       0.48833137
C       -0.88892813       0.15604644      -0.22650884
C       -0.01689413       1.17171393       0.27124876
C        1.26998323       0.73753576       0.15353733
H       -1.88453502      -1.72396761       0.13055071
H       -1.77119602       0.43736614      -0.79525170
H       -0.31807847       2.15905691       0.60614125
H        2.21420102       1.13736360       0.49361555
11
Frame=4 idx=006338 GeodesicLength=0.26322874460379314 rxn_smarts="[O:1]=[c:2]1[o:3][c:4]([H:8])[c:5]([H:9])[c:6]([H:10])[c:7]1[H:11]>>[O:1]=[C:2]1[C@:5]([C:4](=[O:3])[H:8])([H:9])[C:6]([H:10])=[C:7]1[H:11]"
O        1.52907143      -0.99495080      -1.58288988
C        1.10347959      -0.37962704      -0.69142397
O       -0.17772062      -1.63453449       1.16574736
C       -1.04911523      -1.10515171       0.48852517
C       -0.89070877       0.15777027      -0.22608440
C       -0.01717530       1.17076382       0.28353448
C        1.26765738       0.73916214       0.15469346
H       -1.89437349      -1.72015025       0.13108982
H       -1.76731392       0.44529787      -0.80049112
H       -0.31829961       2.15557311       0.62507130
H        2.21449854       1.16584707       0.45222777
11
Frame=5 idx=006338 GeodesicLength=0.32886340974188516 rxn_smarts="[O:1]=[c:2]1[o:3][c:4]([H:8])[c:5]([H:9])[c:6]([H:10])[c:7]1[H:11]>>[O:1]=[C:2]1[C@:5]([C:4](=[O:3])[H:8])([H:9])[C:6]([H:10])=[C:7]1[H:11]"
O        1.54426173      -1.00771648      -1.55668087
C        1.09570900      -0.40025468      -0.66762162
O       -0.16375178      -1.64232723       1.12823159
C       -1.05967264      -1.09916312       0.48757077
C       -0.89198980       0.15941929      -0.22597393
C       -0.01738476       1.16996986       0.29518526
C        1.26511327       0.74131523       0.15431300
H       -1.90304076      -1.71648268       0.13241637
H       -1.76343882       0.45297701      -0.80463650
H       -0.31845936       2.15211775       0.64339264
H        2.21265392       1.19014506       0.41380328
11
Frame=6 idx=006338 GeodesicLength=0.39422942824928103 rxn_smarts="[O:1]=[c:2]1[o:3][c:4]([H:8])[c:5]([H:9])[c:6]([H:10])[c:7]1[H:11]>>[O:1]=[C:2]1[C@:5]([C:4](=[O:3])[H:8])([H:9])[C:6]([H:10])=[C:7]1[H:11]"
O        1.55946409      -1.02023673      -1.53041472
C        1.08842039      -0.41950654      -0.64484214
O       -0.15151247      -1.64895480       1.09213660
C       -1.06930196      -1.09376374       0.48608882
C       -0.89312776       0.16098073      -0.22575300
C       -0.01748442       1.16901271       0.30741519
C        1.26273269       0.74327737       0.15417792
H       -1.91114822      -1.71320838       0.13344472
H       -1.75962137       0.46051173      -0.80862663
H       -0.31845045       2.14871465       0.66175544
H        2.21002949       1.21317300       0.37461779
11
Frame=7 idx=006338 GeodesicLength=0.45947226819229764 rxn_smarts="[O:1]=[c:2]1[o:3][c:4]([H:8])[c:5]([H:9])[c:6]([H:10])[c:7]1[H:11]>>[O:1]=[C:2]1[C@:5]([C:4](=[O:3])[H:8])([H:9])[C:6]([H:10])=[C:7]1[H:11]"
O        1.57456481      -1.03273355      -1.50356448
C        1.08114627      -0.43755381      -0.62293807
O       -0.14082333      -1.65434250       1.05787376
C       -1.07812839      -1.08880112       0.48394694
C       -0.89398460       0.16260696      -0.22546585
C       -0.01735708       1.16787433       0.31997644
C        1.26040005       0.74512037       0.15396377
H       -1.91820281      -1.71050332       0.13345444
H       -1.75563525       0.46829430      -0.81208503
H       -0.31809474       2.14501082       0.68053367
H        2.20611507       1.23502752       0.33430440
11
Frame=8 idx=006338 GeodesicLength=0.52474022830207 rxn_smarts="[O:1]=[c:2]1[o:3][c:4]([H:8])[c:5]([H:9])[c:6]([H:10])[c:7]1[H:11]>>[O:1]=[C:2]1[C@:5]([C:4](=[O:3])[H:8])([H:9])[C:6]([H:10])=[C:7]1[H:11]"
O        1.58937652      -1.04506149      -1.47700865
C        1.07386242      -0.45438558      -0.60238463
O       -0.13090409      -1.65816667       1.02530424
C       -1.08601050      -1.08405515       0.48138600
C       -0.89470946       0.16428032      -0.22512815
C       -0.01716085       1.16673768       0.33250896
C        1.25796953       0.74701648       0.15309393
H       -1.92398992      -1.70831684       0.13300379
H       -1.75182217       0.47606157      -0.81490855
H       -0.31753747       2.14145790       0.69889084
H        2.20092599       1.25443179       0.29524222
11
Frame=9 idx=006338 GeodesicLength=0.5899900063176722 rxn_smarts="[O:1]=[c:2]1[o:3][c:4]([H:8])[c:5]([H:9])[c:6]([H:10])[c:7]1[H:11]>>[O:1]=[C:2]1[C@:5]([C:4](=[O:3])[H:8])([H:9])[C:6]([H:10])=[C:7]1[H:11]"
O        1.60403138      -1.05728516      -1.45039691
C        1.06654965      -0.47023756      -0.58289728
O       -0.12182914      -1.66088615       0.99436083
C       -1.09326512      -1.07960997       0.47840809
C       -0.89534973       0.16602204      -0.22471627
C       -0.01680607       1.16558174       0.34514803
C        1.25556596       0.74894913       0.15183903
H       -1.92880597      -1.70675227       0.13182771
H       -1.74818350       0.48396753      -0.81719818
H       -0.31667929       2.13800459       0.71709127
H        2.19477182       1.27224609       0.25653368
11
Frame=10 idx=006338 GeodesicLength=0.6552178613486628 rxn_smarts="[O:1]=[c:2]1[o:3][c:4]([H:8])[c:5]([H:9])[c:6]([H:10])[c:7]1[H:11]>>[O:1]=[C:2]1[C@:5]([C:4](=[O:3])[H:8])([H:9])[C:6]([H:10])=[C:7]1[H:11]"
O        1.61858981      -1.06947497      -1.42352113
C        1.05918216      -0.48521771      -0.56433739
O       -0.11354831      -1.66256411       0.96500130
C       -1.10000026      -1.07536771       0.47502770
C       -0.89586294       0.16786374      -0.22423229
C       -0.01628126       1.16434577       0.35790084
C        1.25312899       0.75085038       0.15023599
H       -1.93265020      -1.70572427       0.12978896
H       -1.74457267       0.49209881      -0.81899708
H       -0.31550659       2.13446646       0.73539868
H        2.18752127       1.28872361       0.21773441
11
Frame=11 idx=006338 GeodesicLength=0.720475683463173 rxn_smarts="[O:1]=[c:2]1[o:3][c:4]([H:8])[c:5]([H:9])[c:6]([H:10])[c:7]1[H:11]>>[O:1]=[C:2]1[C@:5]([C:4](=[O:3])[H:8])([H:9])[C:6]([H:10])=[C:7]1[H:11]"
O        1.63318141      -1.08171703      -1.39632670
C        1.05180262      -0.49944662      -0.54664251
O       -0.10596692      -1.66330045       0.93714645
C       -1.10633635      -1.07128282       0.47124983
C       -0.89627463       0.16980255      -0.22371850
C       -0.01558362       1.16303084       0.37074759
C        1.25069639       0.75273722       0.14828540
H       -1.93566613      -1.70514338       0.12693258
H       -1.74101017       0.50046659      -0.82039125
H       -0.31403530       2.13076687       0.75402428
H        2.17919271       1.30408622       0.17869284
11
Frame=12 idx=006338 GeodesicLength=0.7857120617550097 rxn_smarts="[O:1]=[c:2]1[o:3][c:4]([H:8])[c:5]([H:9])[c:6]([H:10])[c:7]1[H:11]>>[O:1]=[C:2]1[C@:5]([C:4](=[O:3])[H:8])([H:9])[C:6]([H:10])=[C:7]1[H:11]"
O        1.64790500      -1.09407835      -1.36853321
C        1.04446770      -0.51302852      -0.52961435
O       -0.09912959      -1.66326192       0.91072441
C       -1.11238336      -1.06734812       0.46703326
C       -0.89652692       0.17185092      -0.22317879
C       -0.01464719       1.16157361       0.38379666
C        1.24830201       0.75458204       0.14613254
H       -1.93800559      -1.70492996       0.12312821
H       -1.73736007       0.50916205      -0.82145333
H       -0.31220331       2.12675362       0.77325519
H        2.16958134       1.31872464       0.13870940
11
Frame=13 idx=006338 GeodesicLength=0.8510476820664417 rxn_smarts="[O:1]=[c:2]1[o:3][c:4]([H:8])[c:5]([H:9])[c:6]([H:10])[c:7]1[H:11]>>[O:1]=[C:2]1[C@:5]([C:4](=[O:3])[H:8])([H:9])[C:6]([H:10])=[C:7]1[H:11]"
O        1.66286797      -1.10648201      -1.34016898
C        1.03708673      -0.52601147      -0.51342782
O       -0.09280612      -1.66244198       0.88556872
C       -1.11814318      -1.06349690       0.46242101
C       -0.89667979       0.17400016      -0.22264859
C       -0.01352624       1.15999040       0.39688370
C        1.24590396       0.75638141       0.14362790
H       -1.93972223      -1.70499557       0.11862678
H       -1.73372030       0.51814549      -0.82213902
H       -0.31002597       2.12244261       0.79294613
H        2.15876518       1.33246787       0.09831017
11
Frame=14 idx=006338 GeodesicLength=0.9163387483397276 rxn_smarts="[O:1]=[c:2]1[o:3][c:4]([H:8])[c:5]([H:9])[c:6]([H:10])[c:7]1[H:11]>>[O:1]=[C:2]1[C@:5]([C:4](=[O:3])[H:8])([H:9])[C:6]([H:10])=[C:7]1[H:11]"
O        1.67808139      -1.11899518      -1.31101852
C        1.02978150      -0.53846432      -0.49779831
O       -0.08711526      -1.66104379       0.86167788
C       -1.12372077      -1.05971903       0.45741983
C       -0.89668207       0.17629971      -0.22204024
C       -0.01213794       1.15823135       0.41025920
C        1.24357766       0.75811511       0.14103325
H       -1.94080520      -1.70533897       0.11308799
H       -1.72996171       0.52754071      -0.82250308
H       -0.30746643       2.11780409       0.81324968
H        2.14644883       1.34557032       0.05663230
11
Frame=15 idx=006338 GeodesicLength=0.9818371911012403 rxn_smarts="[O:1]=[c:2]1[o:3][c:4]([H:8])[c:5]([H:9])[c:6]([H:10])[c:7]1[H:11]>>[O:1]=[C:2]1[C@:5]([C:4](=[O:3])[H:8])([H:9])[C:6]([H:10])=[C:7]1[H:11]"
O        1.69342557      -1.13132105      -1.28142118
C        1.02228886      -0.55030981      -0.48318704
O       -0.08158555      -1.65902732       0.83878331
C       -1.12895750      -1.05599072       0.45211257
C       -0.89661436       0.17869058      -0.22145919
C       -0.01057092       1.15642514       0.42340375
C        1.24111738       0.75986071       0.13790817
H       -1.94131815      -1.70589714       0.10722594
H       -1.72627618       0.53713921      -0.82240885
H       -0.30450168       2.11301301       0.83352936
H        2.13299254       1.35741738       0.01551316
11
Frame=16 idx=006338 GeodesicLength=1.0472560325222628 rxn_smarts="[O:1]=[c:2]1[o:3][c:4]([H:8])[c:5]([H:9])[c:6]([H:10])[c:7]1[H:11]>>[O:1]=[C:2]1[C@:5]([C:4](=[O:3])[H:8])([H:9])[C:6]([H:10])=[C:7]1[H:11]"
O        1.70905755      -1.14345516      -1.25131228
C        1.01478177      -0.56160461      -0.46949672
O       -0.07633634      -1.65650500       0.81686261
C       -1.13398789      -1.05230451       0.44655428
C       -0.89652200       0.18117338      -0.22086831
C       -0.00879843       1.15452640       0.43648573
C        1.23866691       0.76158905       0.13446459
H       -1.94140095      -1.70665291       0.10092598
H       -1.72272959       0.54695565      -0.82195948
H       -0.30117681       2.10804508       0.85390727
H        2.11844577       1.36823263      -0.02556367
