12
Frame=0 idx=001408 GeodesicLength=0.0 rxn_smarts="[C:1]([C:2](=[O:3])[C:4]([C:5](=[O:6])[H:12])([H:10])[H:11])([H:7])([H:8])[H:9]>>[C:1]([O+:3]=[C-:2][C:4]([C:5](=[O:6])[H:12])([H:10])[H:11])([H:7])([H:8])[H:9]"
C        1.49529152       0.33274297      -0.74969093
C        0.69651242       0.25543646       0.84865028
O        0.59228856       1.39779805       0.25599249
C       -0.64263507      -0.49663512       0.98582662
C       -1.60853872      -0.21225421      -0.13258211
O       -1.51466245      -0.73407698      -1.21307853
H        1.18201381      -0.70629631      -0.90715963
H        2.54185849       0.46445299      -0.52454789
H        1.13037225       0.89559080      -1.61134628
H       -0.43598753      -1.56638983       1.04267687
H       -1.04040102      -0.17282229       1.95235292
H       -2.39611231       0.54245344       0.05290617
12
Frame=1 idx=001408 GeodesicLength=0.08243097067903103 rxn_smarts="[C:1]([C:2](=[O:3])[C:4]([C:5](=[O:6])[H:12])([H:10])[H:11])([H:7])([H:8])[H:9]>>[C:1]([O+:3]=[C-:2][C:4]([C:5](=[O:6])[H:12])([H:10])[H:11])([H:7])([H:8])[H:9]"
C        1.50547210       0.34350230      -0.75192464
C        0.68678231       0.25765859       0.83661763
O        0.57422272       1.39790291       0.24847534
C       -0.64470686      -0.50042793       0.98648069
C       -1.62424623      -0.22688372      -0.12334416
O       -1.57197887      -0.79265298      -1.18399920
H        1.18315598      -0.68490920      -0.95233553
H        2.54986742       0.44021657      -0.49693680
H        1.19075751       0.93812613      -1.61168022
H       -0.43341912      -1.56879882       1.04959325
H       -1.03899970      -0.16997664       1.95248842
H       -2.37690728       0.56624279       0.04656522
12
Frame=2 idx=001408 GeodesicLength=0.16154611332271657 rxn_smarts="[C:1]([C:2](=[O:3])[C:4]([C:5](=[O:6])[H:12])([H:10])[H:11])([H:7])([H:8])[H:9]>>[C:1]([O+:3]=[C-:2][C:4]([C:5](=[O:6])[H:12])([H:10])[H:11])([H:7])([H:8])[H:9]"
C        1.51561788       0.35431909      -0.75444349
C        0.67704224       0.26006621       0.82410567
O        0.55622147       1.39797724       0.24008394
C       -0.64670310      -0.50383252       0.98719488
C       -1.63995289      -0.24182889      -0.11388781
O       -1.62966249      -0.85020543      -1.15162955
H        1.18334354      -0.66075593      -0.99968909
H        2.55628499       0.41273205      -0.47049021
H        1.25381680       0.98189869      -1.60819739
H       -0.43064854      -1.57074676       1.05685973
H       -1.03747602      -0.16620822       1.95247961
H       -2.35788388       0.58658446       0.03761370
12
Frame=3 idx=001408 GeodesicLength=0.23737646408809465 rxn_smarts="[C:1]([C:2](=[O:3])[C:4]([C:5](=[O:6])[H:12])([H:10])[H:11])([H:7])([H:8])[H:9]>>[C:1]([O+:3]=[C-:2][C:4]([C:5](=[O:6])[H:12])([H:10])[H:11])([H:7])([H:8])[H:9]"
C        1.52566927       0.36522642      -0.75724033
C        0.66718429       0.26266582       0.81097024
O        0.53831932       1.39786566       0.23062785
C       -0.64866528      -0.50684173       0.98787028
C       -1.65547306      -0.25713398      -0.10415505
O       -1.68732717      -0.90653179      -1.11576530
H        1.18269308      -0.63340499      -1.04895724
H        2.56073315       0.38201364      -0.44564924
H        1.31946743       1.02643705      -1.60034960
H       -0.42781386      -1.57208262       1.06440400
H       -1.03591456      -0.16161622       1.95208544
H       -2.33887260       0.60340274       0.02615895
12
Frame=4 idx=001408 GeodesicLength=0.31055640347843316 rxn_smarts="[C:1]([C:2](=[O:3])[C:4]([C:5](=[O:6])[H:12])([H:10])[H:11])([H:7])([H:8])[H:9]>>[C:1]([O+:3]=[C-:2][C:4]([C:5](=[O:6])[H:12])([H:10])[H:11])([H:7])([H:8])[H:9]"
C        1.53571435       0.37619767      -0.76037231
C        0.65726400       0.26551516       0.79737949
O        0.52038705       1.39764846       0.22017064
C       -0.65055472      -0.50946228       0.98859948
C       -1.67094327      -0.27281818      -0.09423783
O       -1.74486171      -0.96154516      -1.07676300
H        1.18160213      -0.60267276      -1.10014268
H        2.56318988       0.34802653      -0.42276248
H        1.38748082       1.07126685      -1.58787408
H       -0.42469202      -1.57288280       1.07225636
H       -1.03435156      -0.15617331       1.95155828
H       -2.32023494       0.61689981       0.01218814
12
Frame=5 idx=001408 GeodesicLength=0.3814949367719675 rxn_smarts="[C:1]([C:2](=[O:3])[C:4]([C:5](=[O:6])[H:12])([H:10])[H:11])([H:7])([H:8])[H:9]>>[C:1]([O+:3]=[C-:2][C:4]([C:5](=[O:6])[H:12])([H:10])[H:11])([H:7])([H:8])[H:9]"
C        1.54562648       0.38731103      -0.76371601
C        0.64735637       0.26859555       0.78330055
O        0.50255497       1.39763436       0.20890660
C       -0.65224920      -0.51163626       0.98927078
C       -1.68596852      -0.28887786      -0.08438719
O       -1.80243382      -1.01615165      -1.03400052
H        1.17953806      -0.56776927      -1.15378430
H        2.56317861       0.31009880      -0.40194140
H        1.45798884       1.11649214      -1.56995309
H       -0.42126286      -1.57320158       1.08052288
H       -1.03262678      -0.14960709       1.95054345
H       -2.30170216       0.62711182      -0.00476175
12
Frame=6 idx=001408 GeodesicLength=0.4502981958591359 rxn_smarts="[C:1]([C:2](=[O:3])[C:4]([C:5](=[O:6])[H:12])([H:10])[H:11])([H:7])([H:8])[H:9]>>[C:1]([O+:3]=[C-:2][C:4]([C:5](=[O:6])[H:12])([H:10])[H:11])([H:7])([H:8])[H:9]"
C        1.55551279       0.39844896      -0.76739216
C        0.63750777       0.27194643       0.76891299
O        0.48472155       1.39762410       0.19681531
C       -0.65381018      -0.51339238       0.98998304
C       -1.70083528      -0.30530018      -0.07453891
O       -1.85947414      -1.06923511      -0.98829577
H        1.17770772      -0.52897693      -1.20899001
H        2.56078793       0.26904714      -0.38397942
H        1.52998078       1.16081659      -1.54662188
H       -0.41745933      -1.57300926       1.08906082
H       -1.03095340      -0.14210606       1.94935149
H       -2.28368621       0.63413671      -0.02430549
12
Frame=7 idx=001408 GeodesicLength=0.5166220469721591 rxn_smarts="[C:1]([C:2](=[O:3])[C:4]([C:5](=[O:6])[H:12])([H:10])[H:11])([H:7])([H:8])[H:9]>>[C:1]([O+:3]=[C-:2][C:4]([C:5](=[O:6])[H:12])([H:10])[H:11])([H:7])([H:8])[H:9]"
C        1.56516641       0.40966780      -0.77133259
C        0.62756977       0.27543161       0.75399282
O        0.46708828       1.39735702       0.18371982
C       -0.65530287      -0.51475742       0.99058410
C       -1.71514259      -0.32208248      -0.06459421
O       -1.91555007      -1.12050477      -0.93922497
H        1.17625453      -0.48586486      -1.26512139
H        2.55533765       0.22528991      -0.36941405
H        1.60302656       1.20359280      -1.51748759
H       -0.41366399      -1.57215608       1.09783672
H       -1.02938797      -0.13383433       1.94753405
H       -2.26539570       0.63786078      -0.04649268
12
Frame=8 idx=001408 GeodesicLength=0.5812014109896 rxn_smarts="[C:1]([C:2](=[O:3])[C:4]([C:5](=[O:6])[H:12])([H:10])[H:11])([H:7])([H:8])[H:9]>>[C:1]([O+:3]=[C-:2][C:4]([C:5](=[O:6])[H:12])([H:10])[H:11])([H:7])([H:8])[H:9]"
C        1.57472438       0.42092797      -0.77559426
C        0.61768044       0.27904605       0.73877117
O        0.44956871       1.39697094       0.16988903
C       -0.65668289      -0.51571448       0.99120219
C       -1.72904321      -0.33920067      -0.05471790
O       -1.97081891      -1.17001428      -0.88710792
H        1.17568434      -0.43824888      -1.32224638
H        2.54695829       0.17895106      -0.35860906
H        1.67675680       1.24426730      -1.48248423
H       -0.40965300      -1.57073557       1.10694887
H       -1.02797850      -0.12465028       1.94539240
H       -2.24719645       0.63840084      -0.07144390
12
Frame=9 idx=001408 GeodesicLength=0.6442884442603447 rxn_smarts="[C:1]([C:2](=[O:3])[C:4]([C:5](=[O:6])[H:12])([H:10])[H:11])([H:7])([H:8])[H:9]>>[C:1]([O+:3]=[C-:2][C:4]([C:5](=[O:6])[H:12])([H:10])[H:11])([H:7])([H:8])[H:9]"
C        1.58413150       0.43225214      -0.78005766
C        0.60791230       0.28285371       0.72323222
O        0.43222238       1.39675491       0.15548801
C       -0.65783716      -0.51617704       0.99169355
C       -1.74218100      -0.35661919      -0.04521913
O       -2.02545708      -1.21816378      -0.83152493
H        1.17610574      -0.38558672      -1.38039348
H        2.53521291       0.12969788      -0.35180798
H        1.75091845       1.28242551      -1.44112177
H       -0.40535677      -1.56875779       1.11635036
H       -1.02663400      -0.11430222       1.94257294
H       -2.22903728       0.63562259      -0.09921213
12
Frame=10 idx=001408 GeodesicLength=0.705941898953577 rxn_smarts="[C:1]([C:2](=[O:3])[C:4]([C:5](=[O:6])[H:12])([H:10])[H:11])([H:7])([H:8])[H:9]>>[C:1]([O+:3]=[C-:2][C:4]([C:5](=[O:6])[H:12])([H:10])[H:11])([H:7])([H:8])[H:9]"
C        1.59344517       0.44360288      -0.78483303
C        0.59830295       0.28663425       0.70745774
O        0.41514019       1.39639131       0.14059780
C       -0.65889444      -0.51627866       0.99215152
C       -1.75480308      -0.37428507      -0.03594302
O       -2.07933173      -1.26401763      -0.77292127
H        1.17863707      -0.32837762      -1.43854038
H        2.52032642       0.07908660      -0.34957845
H        1.82445100       1.31699730      -1.39399416
H       -0.40099902      -1.56629274       1.12599406
H       -1.02551979      -0.10310867       1.93931537
H       -2.21075474       0.62964804      -0.12970617
12
Frame=11 idx=001408 GeodesicLength=0.7662580066845075 rxn_smarts="[C:1]([C:2](=[O:3])[C:4]([C:5](=[O:6])[H:12])([H:10])[H:11])([H:7])([H:8])[H:9]>>[C:1]([O+:3]=[C-:2][C:4]([C:5](=[O:6])[H:12])([H:10])[H:11])([H:7])([H:8])[H:9]"
C        1.60264028       0.45503265      -0.78986563
C        0.58885973       0.29028950       0.69139550
O        0.39838826       1.39587480       0.12529963
C       -0.65985007      -0.51606028       0.99249489
C       -1.76677070      -0.39218413      -0.02697598
O       -2.13265626      -1.30738677      -0.71101958
H        1.18375002      -0.26653720      -1.49618541
H        2.50216408       0.02767469      -0.35216148
H        1.89683130       1.34742158      -1.34125237
H       -0.39667508      -1.56339933       1.13581817
H       -1.02462450      -0.09110227       1.93543388
H       -2.19205705       0.62037677      -0.16298160
12
Frame=12 idx=001408 GeodesicLength=0.8250879105944584 rxn_smarts="[C:1]([C:2](=[O:3])[C:4]([C:5](=[O:6])[H:12])([H:10])[H:11])([H:7])([H:8])[H:9]>>[C:1]([O+:3]=[C-:2][C:4]([C:5](=[O:6])[H:12])([H:10])[H:11])([H:7])([H:8])[H:9]"
C        1.61157626       0.46653280      -0.79513301
C        0.57943040       0.29359470       0.67495803
O        0.38193351       1.39488302       0.10948702
C       -0.66074858      -0.51563933       0.99269525
C       -1.77798242      -0.41022959      -0.01813794
O       -2.18520936      -1.34740665      -0.64586525
H        1.19208098      -0.20031741      -1.55247188
H        2.48060660      -0.02333841      -0.35958952
H        1.96718706       1.37292153      -1.28357121
H       -0.39261104      -1.56010490       1.14572854
H       -1.02389995      -0.07860246       1.93086822
H       -2.17236347       0.60770669      -0.19896825
12
Frame=13 idx=001408 GeodesicLength=0.8833388758189458 rxn_smarts="[C:1]([C:2](=[O:3])[C:4]([C:5](=[O:6])[H:12])([H:10])[H:11])([H:7])([H:8])[H:9]>>[C:1]([O+:3]=[C-:2][C:4]([C:5](=[O:6])[H:12])([H:10])[H:11])([H:7])([H:8])[H:9]"
C        1.62074204       0.47824653      -0.80063857
C        0.57024168       0.29681811       0.65819457
O        0.36563864       1.39388009       0.09330893
C       -0.66152873      -0.51493944       0.99268717
C       -1.78867724      -0.42861709      -0.00990736
O       -2.23821908      -1.38458066      -0.57700341
H        1.20436518      -0.12948232      -1.60768060
H        2.45615320      -0.07422125      -0.37203838
H        2.03585331       1.39336319      -1.22079889
H       -0.38842661      -1.55652241       1.15557185
H       -1.02341394      -0.06524754       1.92567223
H       -2.15272845       0.59130277      -0.23736753
12
Frame=14 idx=001408 GeodesicLength=0.9403087574153857 rxn_smarts="[C:1]([C:2](=[O:3])[C:4]([C:5](=[O:6])[H:12])([H:10])[H:11])([H:7])([H:8])[H:9]>>[C:1]([O+:3]=[C-:2][C:4]([C:5](=[O:6])[H:12])([H:10])[H:11])([H:7])([H:8])[H:9]"
C        1.62974975       0.49015451      -0.80634280
C        0.56103098       0.29952152       0.64093920
O        0.34948609       1.39228697       0.07654104
C       -0.66228176      -0.51420584       0.99250060
C       -1.79885427      -0.44718877      -0.00165560
O       -2.29088235      -1.41738921      -0.50480591
H        1.22104084      -0.05473658      -1.66044039
H        2.42874907      -0.12315645      -0.38930764
H        2.10143243       1.40804998      -1.15418463
H       -0.38458606      -1.55278993       1.16527841
H       -1.02296842      -0.05164643       1.91982214
H       -2.13191630       0.57110021      -0.27834442
12
Frame=15 idx=001408 GeodesicLength=0.996451006449508 rxn_smarts="[C:1]([C:2](=[O:3])[C:4]([C:5](=[O:6])[H:12])([H:10])[H:11])([H:7])([H:8])[H:9]>>[C:1]([O+:3]=[C-:2][C:4]([C:5](=[O:6])[H:12])([H:10])[H:11])([H:7])([H:8])[H:9]"
C        1.63894796       0.50235576      -0.81220229
C        0.55179472       0.30191824       0.62309619
O        0.33316377       1.39021764       0.05888017
C       -0.66296403      -0.51343949       0.99203571
C       -1.80874899      -0.46605918       0.00644799
O       -2.34384652      -1.44561206      -0.42920603
H        1.24291520       0.02368511      -1.71055792
H        2.39890396      -0.16984495      -0.41118005
H        2.16395138       1.41678505      -1.08408812
H       -0.38082809      -1.54899175       1.17453267
H       -1.02248480      -0.03776427       1.91338305
H       -2.11080457       0.54674990      -0.32114135
12
Frame=16 idx=001408 GeodesicLength=1.0516796282470982 rxn_smarts="[C:1]([C:2](=[O:3])[C:4]([C:5](=[O:6])[H:12])([H:10])[H:11])([H:7])([H:8])[H:9]>>[C:1]([O+:3]=[C-:2][C:4]([C:5](=[O:6])[H:12])([H:10])[H:11])([H:7])([H:8])[H:9]"
C        1.64832954       0.51490381      -0.81817575
C        0.54239904       0.30392633       0.60451019
O        0.31646770       1.38746824       0.03999746
C       -0.66360586      -0.51273442       0.99131148
C       -1.81858896      -0.48521079       0.01477638
O       -2.39684028      -1.46853048      -0.35056328
H        1.27039665       0.10541288      -1.75737349
H        2.36689192      -0.21355559      -0.43744877
H        2.22289813       1.41936619      -1.01124602
H       -0.37723849      -1.54524784       1.18322634
H       -1.02178658      -0.02378531       1.90643212
H       -2.08932281       0.51798697      -0.36544666
