16
Frame=0 idx=007627 GeodesicLength=0.0 rxn_smarts="[C:1]([C@:2]12[C:3]([H:11])([H:12])[C@@:4]1([H:13])[C@@:5]1([H:14])[N:6]([H:15])[C@@:7]21[H:16])([H:8])([H:9])[H:10]>>[C:1](=[C:2]1[C:3]([H:11])([H:12])[C:4][C@@:5]2([H:14])[N:6]([H:15])[C@@:7]12[H:16])([H:8])[H:10].[H:9][H:13]"
C        1.47722385      -0.77010673       0.75845616
C        0.38877227      -0.44709810      -0.02403443
C        0.54155604       0.63297509      -1.17416501
C       -0.19913350       1.02200157      -0.01412822
C       -1.63233927       0.50408540       0.05552881
N       -1.99403156      -0.52182140      -0.90594553
C       -1.08347426      -0.86854952       0.16335180
H        1.38716291      -1.54076385       1.51759464
H        1.45888734       0.93312983       1.64225738
H        2.48611755      -0.54019167       0.44768340
H        1.57982878       0.94598684      -1.19467505
H        0.12922938       0.44090249      -2.16442697
H        0.78404253       1.33925612       1.17531736
H       -2.40472356       0.94739037       0.66528799
H       -1.55811631      -0.43466398      -1.81511023
H       -1.36100225      -1.64253244       0.86700793
16
Frame=1 idx=007627 GeodesicLength=0.08359903965635462 rxn_smarts="[C:1]([C@:2]12[C:3]([H:11])([H:12])[C@@:4]1([H:13])[C@@:5]1([H:14])[N:6]([H:15])[C@@:7]21[H:16])([H:8])([H:9])[H:10]>>[C:1](=[C:2]1[C:3]([H:11])([H:12])[C:4][C@@:5]2([H:14])[N:6]([H:15])[C@@:7]12[H:16])([H:8])[H:10].[H:9][H:13]"
C        1.47726702      -0.77172810       0.76363026
C        0.39165783      -0.44954417      -0.02788440
C        0.54157946       0.62737336      -1.17360052
C       -0.20577291       1.03608664      -0.02083666
C       -1.63053720       0.50216637       0.06048209
N       -1.99275728      -0.52191932      -0.90279792
C       -1.07862789      -0.87111725       0.16194911
H        1.38142728      -1.54710697       1.51752902
H        1.45906131       0.94403292       1.64334423
H        2.48831156      -0.57374927       0.43666239
H        1.57418473       0.96073442      -1.18836016
H        0.14358297       0.43357372      -2.16881642
H        0.77159594       1.36511078       1.17428664
H       -2.40425770       0.94101879       0.67200242
H       -1.55982903      -0.42975507      -1.81290919
H       -1.35688608      -1.64517684       0.86531911
16
Frame=2 idx=007627 GeodesicLength=0.16717642497599128 rxn_smarts="[C:1]([C@:2]12[C:3]([H:11])([H:12])[C@@:4]1([H:13])[C@@:5]1([H:14])[N:6]([H:15])[C@@:7]21[H:16])([H:8])([H:9])[H:10]>>[C:1](=[C:2]1[C:3]([H:11])([H:12])[C:4][C@@:5]2([H:14])[N:6]([H:15])[C@@:7]12[H:16])([H:8])[H:10].[H:9][H:13]"
C        1.47763589      -0.77331039       0.76859873
C        0.39472069      -0.45209257      -0.03177292
C        0.54164421       0.62207983      -1.17280025
C       -0.21263071       1.05031447      -0.02776937
C       -1.62856996       0.50019500       0.06552438
N       -1.99129989      -0.52205714      -0.89959344
C       -1.07361126      -0.87369440       0.16059635
H        1.37579346      -1.55307280       1.51752973
H        1.45890017       0.95497526       1.64455934
H        2.48977402      -0.60864809       0.42527362
H        1.56829524       0.97531818      -1.18212310
H        0.15825395       0.42656110      -2.17286883
H        0.75862456       1.39159460       1.17300172
H       -2.40363865       0.93455943       0.67877653
H       -1.56134206      -0.42486990      -1.81060810
H       -1.35254965      -1.64785258       0.86367560
16
Frame=3 idx=007627 GeodesicLength=0.2507203114061175 rxn_smarts="[C:1]([C@:2]12[C:3]([H:11])([H:12])[C@@:4]1([H:13])[C@@:5]1([H:14])[N:6]([H:15])[C@@:7]21[H:16])([H:8])([H:9])[H:10]>>[C:1](=[C:2]1[C:3]([H:11])([H:12])[C:4][C@@:5]2([H:14])[N:6]([H:15])[C@@:7]12[H:16])([H:8])[H:10].[H:9][H:13]"
C        1.47836565      -0.77488978       0.77330025
C        0.39797207      -0.45475397      -0.03572496
C        0.54174739       0.61709600      -1.17177525
C       -0.21971047       1.06468016      -0.03493919
C       -1.62642000       0.49817261       0.07065982
N       -1.98966067      -0.52223564      -0.89631922
C       -1.06841271      -0.87628159       0.15929500
H        1.37026065      -1.55861745       1.51762042
H        1.45837388       0.96590347       1.64592315
H        2.49043941      -0.64487960       0.41357479
H        1.56217527       0.98974839      -1.17595926
H        0.17323311       0.41989688      -2.17658763
H        0.74512191       1.41871881       1.17142664
H       -2.40284276       0.92801719       0.68561942
H       -1.56266699      -0.42001983      -1.80820026
H       -1.34797573      -1.65055565       0.86208627
16
Frame=4 idx=007627 GeodesicLength=0.3342326484234607 rxn_smarts="[C:1]([C@:2]12[C:3]([H:11])([H:12])[C@@:4]1([H:13])[C@@:5]1([H:14])[N:6]([H:15])[C@@:7]21[H:16])([H:8])([H:9])[H:10]>>[C:1](=[C:2]1[C:3]([H:11])([H:12])[C:4][C@@:5]2([H:14])[N:6]([H:15])[C@@:7]12[H:16])([H:8])[H:10].[H:9][H:13]"
C        1.47949042      -0.77650832       0.77767270
C        0.40142196      -0.45754106      -0.03976677
C        0.54188627       0.61242270      -1.17053638
C       -0.22701611       1.07917788      -0.04235991
C       -1.62406969       0.49610008       0.07589300
N       -1.98784148      -0.52245554      -0.89296245
C       -1.06302151      -0.87888050       0.15804615
H        1.36482818      -1.56369364       1.51782338
H        1.45746188       0.97675907       1.64745350
H        2.49023840      -0.68242658       0.40163198
H        1.55584040       1.00403658      -1.16986162
H        0.18851168       0.41361549      -2.17997684
H        0.73108030       1.44649717       1.16952204
H       -2.40184606       0.92139632       0.69254137
H       -1.56381657      -0.41521581      -1.80567885
H       -1.34314807      -1.65328383       0.86055870
16
Frame=5 idx=007627 GeodesicLength=0.4177071354765203 rxn_smarts="[C:1]([C@:2]12[C:3]([H:11])([H:12])[C@@:4]1([H:13])[C@@:5]1([H:14])[N:6]([H:15])[C@@:7]21[H:16])([H:8])([H:9])[H:10]>>[C:1](=[C:2]1[C:3]([H:11])([H:12])[C:4][C@@:5]2([H:14])[N:6]([H:15])[C@@:7]12[H:16])([H:8])[H:10].[H:9][H:13]"
C        1.48104151      -0.77821093       0.78165213
C        0.40507824      -0.46046809      -0.04392689
C        0.54205708       0.60805849      -1.16909592
C       -0.23455103       1.09380037      -0.05004498
C       -1.62149999       0.49397975       0.08122753
N       -1.98584678      -0.52271591      -0.88950964
C       -1.05742921      -0.88149233       0.15684981
H        1.35949475      -1.56827171       1.51816140
H        1.45614668       0.98748165       1.64916643
H        2.48911380      -0.72124569       0.38952121
H        1.54930762       1.01819599      -1.16382134
H        0.20407711       0.40774648      -2.18304354
H        0.71649286       1.47494013       1.16724861
H       -2.40062223       0.91470392       0.69955206
H       -1.56480657      -0.41046880      -1.80303676
H       -1.33805384      -1.65603333       0.85909986
16
Frame=6 idx=007627 GeodesicLength=0.5011594613020083 rxn_smarts="[C:1]([C@:2]12[C:3]([H:11])([H:12])[C@@:4]1([H:13])[C@@:5]1([H:14])[N:6]([H:15])[C@@:7]21[H:16])([H:8])([H:9])[H:10]>>[C:1](=[C:2]1[C:3]([H:11])([H:12])[C:4][C@@:5]2([H:14])[N:6]([H:15])[C@@:7]12[H:16])([H:8])[H:10].[H:9][H:13]"
C        1.48304729      -0.78005308       0.78517837
C        0.40894851      -0.46355193      -0.04823320
C        0.54225770       0.60400095      -1.16746304
C       -0.24232026       1.10853859      -0.05800836
C       -1.61869264       0.49181436       0.08666759
N       -1.98368051      -0.52301506      -0.88594811
C       -1.05162810      -0.88411866       0.15570612
H        1.35426100      -1.57231482       1.51864922
H        1.45442428       0.99800312       1.65107004
H        2.48700601      -0.76128270       0.37732545
H        1.54258811       1.03223390      -1.15782610
H        0.21992166       0.40232345      -2.18579207
H        0.70134570       1.50406523       1.16456372
H       -2.39914525       0.90794651       0.70666261
H       -1.56565177      -0.40578762      -1.80026792
H       -1.33268174      -1.65880223       0.85771570
16
Frame=7 idx=007627 GeodesicLength=0.5846010787730327 rxn_smarts="[C:1]([C@:2]12[C:3]([H:11])([H:12])[C@@:4]1([H:13])[C@@:5]1([H:14])[N:6]([H:15])[C@@:7]21[H:16])([H:8])([H:9])[H:10]>>[C:1](=[C:2]1[C:3]([H:11])([H:12])[C:4][C@@:5]2([H:14])[N:6]([H:15])[C@@:7]12[H:16])([H:8])[H:10].[H:9][H:13]"
C        1.48553444      -0.78208904       0.78818954
C        0.41303923      -0.46680842      -0.05271573
C        0.54248411       0.60024505      -1.16564791
C       -0.25032964       1.12338390      -0.06626426
C       -1.61562980       0.48960734       0.09221684
N       -1.98134869      -0.52335027      -0.88226544
C       -1.04561163      -0.88676050       0.15461412
H        1.34912502      -1.57580479       1.51930391
H        1.45229923       1.00825497       1.65316732
H        2.48386775      -0.80246612       0.36513778
H        1.53569403       1.04615820      -1.15186166
H        0.23603495       0.39737722      -2.18822789
H        0.68562239       1.53388900       1.16142511
H       -2.39738911       0.90113157       0.71388468
H       -1.56636983      -0.40118038      -1.79736670
H       -1.32702244      -1.66158773       0.85641027
16
Frame=8 idx=007627 GeodesicLength=0.6680410282785683 rxn_smarts="[C:1]([C@:2]12[C:3]([H:11])([H:12])[C@@:4]1([H:13])[C@@:5]1([H:14])[N:6]([H:15])[C@@:7]21[H:16])([H:8])([H:9])[H:10]>>[C:1](=[C:2]1[C:3]([H:11])([H:12])[C:4][C@@:5]2([H:14])[N:6]([H:15])[C@@:7]12[H:16])([H:8])[H:10].[H:9][H:13]"
C        1.48852493      -0.78437627       0.79063192
C        0.41735558      -0.47025614      -0.05740289
C        0.54273266       0.59678365      -1.16365813
C       -0.25858653       1.13832455      -0.07482684
C       -1.61229275       0.48736329       0.09787837
N       -1.97885782      -0.52371837      -0.87844900
C       -1.03937591      -0.88941923       0.15357296
H        1.34408792      -1.57873047       1.52013258
H        1.44978124       1.01817124       1.65545806
H        2.47965782      -0.84471538       0.35305040
H        1.52863842       1.05997622      -1.14590975
H        0.25240799       0.39294060      -2.19035549
H        0.66930094       1.56443020       1.15778779
H       -2.39532613       0.89426902       0.72122932
H       -1.56697774      -0.39665593      -1.79432720
H       -1.32107063      -1.66438697       0.85518790
16
Frame=9 idx=007627 GeodesicLength=0.7516844359619306 rxn_smarts="[C:1]([C@:2]12[C:3]([H:11])([H:12])[C@@:4]1([H:13])[C@@:5]1([H:14])[N:6]([H:15])[C@@:7]21[H:16])([H:8])([H:9])[H:10]>>[C:1](=[C:2]1[C:3]([H:11])([H:12])[C:4][C@@:5]2([H:14])[N:6]([H:15])[C@@:7]12[H:16])([H:8])[H:10].[H:9][H:13]"
C        1.49197657      -0.78699227       0.79251606
C        0.42187888      -0.47390166      -0.06228982
C        0.54301798       0.59359779      -1.16146554
C       -0.26711113       1.15336370      -0.08371202
C       -1.60868863       0.48510057       0.10363433
N       -1.97620894      -0.52412647      -0.87449051
C       -1.03293229      -0.89207620       0.15261110
H        1.33921519      -1.58112879       1.52110366
H        1.44691388       1.02763334       1.65796670
H        2.47440786      -0.88792917       0.34094909
H        1.52145667       1.07370584      -1.13987797
H        0.26907712       0.38899196      -2.19214727
H        0.65228845       1.59578353       1.15359601
H       -2.39297640       0.88738996       0.72865664
H       -1.56746870      -0.39224614      -1.79114282
H       -1.31484649      -1.66716597       0.85409233
16
Frame=10 idx=007627 GeodesicLength=0.8353461647994962 rxn_smarts="[C:1]([C@:2]12[C:3]([H:11])([H:12])[C@@:4]1([H:13])[C@@:5]1([H:14])[N:6]([H:15])[C@@:7]21[H:16])([H:8])([H:9])[H:10]>>[C:1](=[C:2]1[C:3]([H:11])([H:12])[C:4][C@@:5]2([H:14])[N:6]([H:15])[C@@:7]12[H:16])([H:8])[H:10].[H:9][H:13]"
C        1.49594512      -0.78996316       0.79375980
C        0.42662744      -0.47777395      -0.06742483
C        0.54332486       0.59069514      -1.15909890
C       -0.27590378       1.16847936      -0.09293264
C       -1.60478120       0.48281355       0.10950276
N       -1.97341169      -0.52456277      -0.87037556
C       -1.02626776      -0.89474877       0.15170644
H        1.33447515      -1.58299381       1.52222223
H        1.44368989       1.03664097       1.66067003
H        2.46803259      -0.93206175       0.32908617
H        1.51413279       1.08734443      -1.13379968
H        0.28600842       0.38560596      -2.19362698
H        0.63460967       1.62792723       1.14880470
H       -2.39027923       0.88048718       0.73621528
H       -1.56787321      -0.38794307      -1.78780775
H       -1.30832905      -1.66994655       0.85309893
16
Frame=11 idx=007627 GeodesicLength=0.9190200278147771 rxn_smarts="[C:1]([C@:2]12[C:3]([H:11])([H:12])[C@@:4]1([H:13])[C@@:5]1([H:14])[N:6]([H:15])[C@@:7]21[H:16])([H:8])([H:9])[H:10]>>[C:1](=[C:2]1[C:3]([H:11])([H:12])[C:4][C@@:5]2([H:14])[N:6]([H:15])[C@@:7]12[H:16])([H:8])[H:10].[H:9][H:13]"
C        1.50043183      -0.79334075       0.79433110
C        0.43160136      -0.48188964      -0.07282872
C        0.54365300       0.58806440      -1.15655616
C       -0.28497388       1.18366158      -0.10250230
C       -1.60055573       0.48051128       0.11548261
N       -1.97047305      -0.52502425      -0.86609234
C       -1.01938316      -0.89743420       0.15086347
H        1.32987681      -1.58436775       1.52346440
H        1.44012864       1.04513247       1.66356495
H        2.46053157      -0.97700838       0.31752858
H        1.50667568       1.10089152      -1.12764297
H        0.30320212       0.38280319      -2.19478966
H        0.61622671       1.66090092       1.14336646
H       -2.38721440       0.87357670       0.74390799
H       -1.56820340      -0.38375953      -1.78431625
H       -1.30152411      -1.67271757       0.85221884
16
Frame=12 idx=007627 GeodesicLength=1.0027101243071477 rxn_smarts="[C:1]([C@:2]12[C:3]([H:11])([H:12])[C@@:4]1([H:13])[C@@:5]1([H:14])[N:6]([H:15])[C@@:7]21[H:16])([H:8])([H:9])[H:10]>>[C:1](=[C:2]1[C:3]([H:11])([H:12])[C:4][C@@:5]2([H:14])[N:6]([H:15])[C@@:7]12[H:16])([H:8])[H:10].[H:9][H:13]"
C        1.50543212      -0.79717378       0.79420918
C        0.43679730      -0.48626696      -0.07851730
C        0.54400402       0.58569926      -1.15383124
C       -0.29433440       1.19890064      -0.11243716
C       -1.59599928       0.47820344       0.12157081
N       -1.96739772      -0.52550948      -0.86162886
C       -1.01228132      -0.90012950       0.15008987
H        1.32544462      -1.58529636       1.52479400
H        1.43624884       1.05304963       1.66665800
H        2.45190078      -1.02268925       0.30632044
H        1.49909668       1.11435300      -1.12136485
H        0.32066644       0.38060414      -2.19562709
H        0.59708947       1.69475786       1.13722136
H       -2.38376235       0.86667731       0.75173452
H       -1.56846696      -0.37971286      -1.78066046
H       -1.29443824      -1.67546707       0.85146878
16
Frame=13 idx=007627 GeodesicLength=1.0863978907648755 rxn_smarts="[C:1]([C@:2]12[C:3]([H:11])([H:12])[C@@:4]1([H:13])[C@@:5]1([H:14])[N:6]([H:15])[C@@:7]21[H:16])([H:8])([H:9])[H:10]>>[C:1](=[C:2]1[C:3]([H:11])([H:12])[C:4][C@@:5]2([H:14])[N:6]([H:15])[C@@:7]12[H:16])([H:8])[H:10].[H:9][H:13]"
C        1.51094150      -0.80150860       0.79337371
C        0.44221401      -0.49092178      -0.08450742
C        0.54437938       0.58358836      -1.15091732
C       -0.30399802       1.21418598      -0.12275366
C       -1.59109903       0.47590103       0.12776522
N       -1.96419117      -0.52601594      -0.85697310
C       -1.00496326      -0.90283060       0.14939243
H        1.32119426      -1.58583533       1.52617764
H        1.43207380       1.06033728       1.66994943
H        2.44214394      -1.06901853       0.29550977
H        1.49140520       1.12773080      -1.11492242
H        0.33840768       0.37903163      -2.19613071
H        0.57714583       1.72954980       1.13031039
H       -2.37990566       0.85980642       0.75969705
H       -1.56867304      -0.37581720      -1.77683466
H       -1.28707541      -1.67818330       0.85086364
16
Frame=14 idx=007627 GeodesicLength=1.1700782543166837 rxn_smarts="[C:1]([C@:2]12[C:3]([H:11])([H:12])[C@@:4]1([H:13])[C@@:5]1([H:14])[N:6]([H:15])[C@@:7]21[H:16])([H:8])([H:9])[H:10]>>[C:1](=[C:2]1[C:3]([H:11])([H:12])[C:4][C@@:5]2([H:14])[N:6]([H:15])[C@@:7]12[H:16])([H:8])[H:10].[H:9][H:13]"
C        1.51695188      -0.80639662       0.79180804
C        0.44784799      -0.49587265      -0.09081437
C        0.54478229       0.58172418      -1.14780296
C       -0.31397995       1.22950604      -0.13346989
C       -1.58584076       0.47361689       0.13406187
N       -1.96085793      -0.52654166      -0.85211200
C       -0.99743227      -0.90553229       0.14878151
H        1.31715225      -1.58603698       1.52757008
H        1.42762756       1.06692896       1.67344782
H        2.43126841      -1.11591314       0.28512782
H        1.48361094       1.14102402      -1.10826272
H        0.35643905       0.37810741      -2.19628443
H        0.55632681       1.76534130       1.12256289
H       -2.37562402       0.85298651       0.76779393
H       -1.56882778      -0.37209177      -1.77283035
H       -1.27944447      -1.68085020       0.85042277
16
Frame=15 idx=007627 GeodesicLength=1.2537390416997956 rxn_smarts="[C:1]([C@:2]12[C:3]([H:11])([H:12])[C@@:4]1([H:13])[C@@:5]1([H:14])[N:6]([H:15])[C@@:7]21[H:16])([H:8])([H:9])[H:10]>>[C:1](=[C:2]1[C:3]([H:11])([H:12])[C:4][C@@:5]2([H:14])[N:6]([H:15])[C@@:7]12[H:16])([H:8])[H:10].[H:9][H:13]"
C        1.52345395      -0.81188895       0.78949706
C        0.45369557      -0.50113556      -0.09745276
C        0.54521692       0.58009606      -1.14447470
C       -0.32429561       1.24484883      -0.14460577
C       -1.58021173       0.47136561       0.14045645
N       -1.95740228      -0.52708461      -0.84703182
C       -0.98969073      -0.90822752       0.14826857
H        1.31334341      -1.58596518       1.52892544
H        1.42293979       1.07275346       1.67716353
H        2.41928639      -1.16328653       0.27520048
H        1.47572381       1.15423082      -1.10132868
H        0.37477501       0.37785333      -2.19607093
H        0.53455460       1.80220442       1.11390140
H       -2.37089964       0.84624117       0.77602369
H       -1.56893719      -0.36855534      -1.76863970
H       -1.27155225      -1.68345002       0.85016774
16
Frame=16 idx=007627 GeodesicLength=1.337359306060888 rxn_smarts="[C:1]([C@:2]12[C:3]([H:11])([H:12])[C@@:4]1([H:13])[C@@:5]1([H:14])[N:6]([H:15])[C@@:7]21[H:16])([H:8])([H:9])[H:10]>>[C:1](=[C:2]1[C:3]([H:11])([H:12])[C:4][C@@:5]2([H:14])[N:6]([H:15])[C@@:7]12[H:16])([H:8])[H:10].[H:9][H:13]"
C        1.53043990      -0.81803499       0.78642633
C        0.45975255      -0.50672710      -0.10443774
C        0.54568878       0.57869832      -1.14091733
C       -0.33496110       1.26020141      -0.15618238
C       -1.57419911       0.46916102       0.14694520
N       -1.95382693      -0.52764344      -0.84171878
C       -0.98173947      -0.91091042       0.14786572
H        1.30979808      -1.58566810       1.53019995
H        1.41804307       1.07773706       1.68111111
H        2.40619708      -1.21107996       0.26574603
H        1.46775382       1.16735368      -1.09405717
H        0.39343324       0.37829698      -2.19547022
H        0.51174151       1.84021794       1.10423678
H       -2.36571439       0.83959159       0.78438716
H       -1.56900515      -0.36522605      -1.76425512
H       -1.26340187      -1.68596792       0.85012048
