11
Frame=0 idx=001841 GeodesicLength=0.0 rxn_smarts="[N:1]([c:2]1[c:3]([H:9])[o:4][c:5]([H:10])[c:6]1[H:11])([H:7])[H:8]>>[N:1]([C:2]1=[C:6]([H:11])[C@:5]2([H:10])[C@@:3]1([H:9])[O:4]2)([H:7])[H:8]"
N        1.81686316      -0.27797058      -0.06112695
C        0.49918324      -0.15890116       0.08276396
C       -0.06470037       1.16112024       0.58245769
O       -1.44428284       0.74503947       1.12319598
C       -1.56410622       0.04031593       0.03842389
C       -0.54991416      -0.96538952      -0.21402111
H        2.40086570       0.44373663       0.32419683
H        2.23816013      -1.11818748      -0.41115849
H       -0.27382881       1.83354246      -0.25946626
H       -2.40676846       0.27023641      -0.62355710
H       -0.65147132      -1.97354235      -0.58170844
11
Frame=1 idx=001841 GeodesicLength=0.05146326438110926 rxn_smarts="[N:1]([c:2]1[c:3]([H:9])[o:4][c:5]([H:10])[c:6]1[H:11])([H:7])[H:8]>>[N:1]([C:2]1=[C:6]([H:11])[C@:5]2([H:10])[C@@:3]1([H:9])[O:4]2)([H:7])[H:8]"
N        1.82015547      -0.27303156      -0.07857574
C        0.50079446      -0.15577608       0.07633730
C       -0.07490355       1.15272177       0.57414187
O       -1.44001143       0.74182604       1.12473772
C       -1.56467018       0.04032557       0.03221955
C       -0.55027026      -0.96330847      -0.21963056
H        2.40433466       0.44637394       0.31072757
H        2.23875625      -1.13537103      -0.37426578
H       -0.26580243       1.85675202      -0.24383413
H       -2.41996911       0.26129023      -0.61453734
H       -0.64841388      -1.97180244      -0.58732047
11
Frame=2 idx=001841 GeodesicLength=0.10294723145141127 rxn_smarts="[N:1]([c:2]1[c:3]([H:9])[o:4][c:5]([H:10])[c:6]1[H:11])([H:7])[H:8]>>[N:1]([C:2]1=[C:6]([H:11])[C@:5]2([H:10])[C@@:3]1([H:9])[O:4]2)([H:7])[H:8]"
N        1.82333978      -0.26999605      -0.09334482
C        0.50223836      -0.15316795       0.07072933
C       -0.08503578       1.14441571       0.56509725
O       -1.43592814       0.73923726       1.12547563
C       -1.56533689       0.04039020       0.02555394
C       -0.55086222      -0.96158719      -0.22469845
H        2.40760626       0.44892291       0.29672965
H        2.23880998      -1.14926398      -0.34019411
H       -0.25630721       1.87965627      -0.22722914
H       -2.43288434       0.25188378      -0.60596034
H       -0.64563980      -1.97049096      -0.59215893
11
Frame=3 idx=001841 GeodesicLength=0.15444645357522296 rxn_smarts="[N:1]([c:2]1[c:3]([H:9])[o:4][c:5]([H:10])[c:6]1[H:11])([H:7])[H:8]>>[N:1]([C:2]1=[C:6]([H:11])[C@:5]2([H:10])[C@@:3]1([H:9])[O:4]2)([H:7])[H:8]"
N        1.82641414      -0.26820175      -0.10655514
C        0.50353428      -0.15086023       0.06556354
C       -0.09516196       1.13630168       0.55519125
O       -1.43189495       0.73712647       1.12557066
C       -1.56613351       0.04043563       0.01854838
C       -0.55162807      -0.96012494      -0.22943846
H        2.41071618       0.45132955       0.28236473
H        2.23843486      -1.16087547      -0.30767645
H       -0.24558286       1.90237430      -0.20950303
H       -2.44565832       0.24197039      -0.59752887
H       -0.64303979      -1.96947562      -0.59653662
11
Frame=4 idx=001841 GeodesicLength=0.20594491797958583 rxn_smarts="[N:1]([c:2]1[c:3]([H:9])[o:4][c:5]([H:10])[c:6]1[H:11])([H:7])[H:8]>>[N:1]([C:2]1=[C:6]([H:11])[C@:5]2([H:10])[C@@:3]1([H:9])[O:4]2)([H:7])[H:8]"
N        1.82940452      -0.26728643      -0.11841884
C        0.50468867      -0.14869933       0.06067789
C       -0.10534322       1.12855725       0.54413365
O       -1.42787205       0.73564426       1.12491879
C       -1.56707552       0.04044616       0.01119803
C       -0.55252283      -0.95887683      -0.23383923
H        2.41371168       0.45307305       0.26899829
H        2.23767474      -1.17029768      -0.27778688
H       -0.23371776       1.92496350      -0.19079407
H       -2.45840814       0.23136465      -0.58912841
H       -0.64054010      -1.96888861      -0.59995924
11
Frame=5 idx=001841 GeodesicLength=0.2574249854439586 rxn_smarts="[N:1]([c:2]1[c:3]([H:9])[o:4][c:5]([H:10])[c:6]1[H:11])([H:7])[H:8]>>[N:1]([C:2]1=[C:6]([H:11])[C@:5]2([H:10])[C@@:3]1([H:9])[O:4]2)([H:7])[H:8]"
N        1.83230050      -0.26704745      -0.12931947
C        0.50569800      -0.14660860       0.05593241
C       -0.11562236       1.12121938       0.53183755
O       -1.42376446       0.73472197       1.12362975
C       -1.56819591       0.04034754       0.00362197
C       -0.55353129      -0.95781970      -0.23796787
H        2.41658736       0.45441260       0.25612589
H        2.23657910      -1.17814932      -0.24938527
H       -0.22077226       1.94740134      -0.17094376
H       -2.47118418       0.22005276      -0.58054641
H       -0.63809451      -1.96853052      -0.60298478
11
Frame=6 idx=001841 GeodesicLength=0.3088510042650663 rxn_smarts="[N:1]([c:2]1[c:3]([H:9])[o:4][c:5]([H:10])[c:6]1[H:11])([H:7])[H:8]>>[N:1]([C:2]1=[C:6]([H:11])[C@:5]2([H:10])[C@@:3]1([H:9])[O:4]2)([H:7])[H:8]"
N        1.83512559      -0.26713039      -0.13925357
C        0.50656500      -0.14447462       0.05135167
C       -0.12607978       1.11450204       0.51793586
O       -1.41958058       0.73465684       1.12149468
C       -1.56951213       0.04011009      -0.00419413
C       -0.55460416      -0.95695737      -0.24163170
H        2.41938069       0.45467155       0.24565536
H        2.23512465      -1.18427030      -0.22450737
H       -0.20679228       1.96967493      -0.15022778
H       -2.48400474       0.20783307      -0.57178699
H       -0.63562226      -1.96861584      -0.60483602
11
Frame=7 idx=001841 GeodesicLength=0.36022449857920924 rxn_smarts="[N:1]([c:2]1[c:3]([H:9])[o:4][c:5]([H:10])[c:6]1[H:11])([H:7])[H:8]>>[N:1]([C:2]1=[C:6]([H:11])[C@:5]2([H:10])[C@@:3]1([H:9])[O:4]2)([H:7])[H:8]"
N        1.83782908      -0.26755889      -0.14859036
C        0.50726147      -0.14230254       0.04681114
C       -0.13675857       1.10828204       0.50254309
O       -1.41526113       0.73519209       1.11868815
C       -1.57107236       0.03964911      -0.01217292
C       -0.55576487      -0.95627376      -0.24504672
H        2.42203112       0.45465316       0.23569205
H        2.23335588      -1.18935486      -0.20076374
H       -0.19166724       1.99171557      -0.12803982
H       -2.49682398       0.19490371      -0.56277492
H       -0.63312938      -1.96890562      -0.60634596
11
Frame=8 idx=001841 GeodesicLength=0.41151151747662934 rxn_smarts="[N:1]([c:2]1[c:3]([H:9])[o:4][c:5]([H:10])[c:6]1[H:11])([H:7])[H:8]>>[N:1]([C:2]1=[C:6]([H:11])[C@:5]2([H:10])[C@@:3]1([H:9])[O:4]2)([H:7])[H:8]"
N        1.84041994      -0.26805891      -0.15732050
C        0.50777873      -0.14000263       0.04232258
C       -0.14774713       1.10271295       0.48532956
O       -1.41081870       0.73654881       1.11501049
C       -1.57290454       0.03892408      -0.02035500
C       -0.55697644      -0.95576641      -0.24811641
H        2.42454627       0.45392762       0.22756934
H        2.23124949      -1.19330366      -0.17968170
H       -0.17535938       2.01347838      -0.10439772
H       -2.50963442       0.18115921      -0.55357307
H       -0.63055381      -1.96961944      -0.60678758
11
Frame=9 idx=001841 GeodesicLength=0.46262508045795464 rxn_smarts="[N:1]([c:2]1[c:3]([H:9])[o:4][c:5]([H:10])[c:6]1[H:11])([H:7])[H:8]>>[N:1]([C:2]1=[C:6]([H:11])[C@:5]2([H:10])[C@@:3]1([H:9])[O:4]2)([H:7])[H:8]"
N        1.84289940      -0.26863790      -0.16539803
C        0.50810412      -0.13751404       0.03783485
C       -0.15907313       1.09793721       0.46588137
O       -1.40598384       0.73892744       1.11057963
C       -1.57506841       0.03776493      -0.02833591
C       -0.55823956      -0.95550570      -0.25056619
H        2.42689697       0.45264473       0.22107765
H        2.22880362      -1.19644721      -0.16028912
H       -0.15795362       2.03467462      -0.07965693
H       -2.52255961       0.16640877      -0.54360289
H       -0.62782594      -1.97025285      -0.60752443
11
Frame=10 idx=001841 GeodesicLength=0.5136148037119133 rxn_smarts="[N:1]([c:2]1[c:3]([H:9])[o:4][c:5]([H:10])[c:6]1[H:11])([H:7])[H:8]>>[N:1]([C:2]1=[C:6]([H:11])[C@:5]2([H:10])[C@@:3]1([H:9])[O:4]2)([H:7])[H:8]"
N        1.84522629      -0.26917242      -0.17298253
C        0.50818890      -0.13478059       0.03321228
C       -0.17086554       1.09391661       0.44404865
O       -1.40083471       0.74228596       1.10519804
C       -1.57761615       0.03614362      -0.03631536
C       -0.55955823      -0.95545249      -0.25263631
H        2.42901995       0.45099524       0.21595265
H        2.22600194      -1.19885655      -0.14256205
H       -0.13905311       2.05529348      -0.05298759
H       -2.53557356       0.15073304      -0.53309154
H       -0.62493579      -1.97110591      -0.60783625
11
Frame=11 idx=001841 GeodesicLength=0.5644521896137888 rxn_smarts="[N:1]([c:2]1[c:3]([H:9])[o:4][c:5]([H:10])[c:6]1[H:11])([H:7])[H:8]>>[N:1]([C:2]1=[C:6]([H:11])[C@:5]2([H:10])[C@@:3]1([H:9])[O:4]2)([H:7])[H:8]"
N        1.84753859      -0.26957209      -0.17990405
C        0.50804075      -0.13144078       0.02753441
C       -0.18315766       1.09091058       0.41892299
O       -1.39483782       0.74675659       1.09878734
C       -1.58060193       0.03396849      -0.04411075
C       -0.56088868      -0.95546086      -0.25470449
H        2.43089259       0.44865401       0.21334516
H        2.22272551      -1.20072334      -0.12642431
H       -0.11879131       2.07528894      -0.02442662
H       -2.54909831       0.13370890      -0.52109383
H       -0.62182173      -1.97209044      -0.60792586
11
Frame=12 idx=001841 GeodesicLength=0.6151096368216654 rxn_smarts="[N:1]([c:2]1[c:3]([H:9])[o:4][c:5]([H:10])[c:6]1[H:11])([H:7])[H:8]>>[N:1]([C:2]1=[C:6]([H:11])[C@:5]2([H:10])[C@@:3]1([H:9])[O:4]2)([H:7])[H:8]"
N        1.84985759      -0.26985725      -0.18612367
C        0.50760603      -0.12729991       0.02019051
C       -0.19608787       1.08902847       0.38981361
O       -1.38763460       0.75239989       1.09126780
C       -1.58412773       0.03110406      -0.05154535
C       -0.56224271      -0.95548236      -0.25704709
H        2.43238566       0.44588709       0.21293012
H        2.21886035      -1.20219106      -0.11068532
H       -0.09682448       2.09431272       0.00651212
H       -2.56334029       0.11516021      -0.50696690
H       -0.61845196      -1.97306187      -0.60834583
11
Frame=13 idx=001841 GeodesicLength=0.6655716730664885 rxn_smarts="[N:1]([c:2]1[c:3]([H:9])[o:4][c:5]([H:10])[c:6]1[H:11])([H:7])[H:8]>>[N:1]([C:2]1=[C:6]([H:11])[C@:5]2([H:10])[C@@:3]1([H:9])[O:4]2)([H:7])[H:8]"
N        1.85201345      -0.27004958      -0.19171082
C        0.50674881      -0.12237472       0.01131574
C       -0.20992917       1.08829927       0.35620624
O       -1.37918318       0.75948598       1.08242015
C       -1.58832010       0.02734918      -0.05841087
C       -0.56368072      -0.95565958      -0.25937149
H        2.43328742       0.44334029       0.21344571
H        2.21431646      -1.20318034      -0.09405039
H       -0.07228260       2.11149891       0.04068153
H       -2.57818786       0.09508066      -0.49062825
H       -0.61478249      -1.97379006      -0.60989756
11
Frame=14 idx=001841 GeodesicLength=0.7157599870699771 rxn_smarts="[N:1]([c:2]1[c:3]([H:9])[o:4][c:5]([H:10])[c:6]1[H:11])([H:7])[H:8]>>[N:1]([C:2]1=[C:6]([H:11])[C@:5]2([H:10])[C@@:3]1([H:9])[O:4]2)([H:7])[H:8]"
N        1.85429668      -0.26978670      -0.19625489
C        0.50549872      -0.11584974      -0.00117849
C       -0.22480844       1.08924267       0.31638849
O       -1.36837598       0.76813770       1.07191335
C       -1.59319491       0.02275103      -0.06461244
C       -0.56507586      -0.95551042      -0.26285429
H        2.43339782       0.44022863       0.21795794
H        2.20870697      -1.20371332      -0.07738638
H       -0.04541802       2.12610439       0.07807421
H       -2.59426540       0.07284446      -0.47022518
H       -0.61076160      -1.97444870      -0.61182231
11
Frame=15 idx=001841 GeodesicLength=0.7654742002191632 rxn_smarts="[N:1]([c:2]1[c:3]([H:9])[o:4][c:5]([H:10])[c:6]1[H:11])([H:7])[H:8]>>[N:1]([C:2]1=[C:6]([H:11])[C@:5]2([H:10])[C@@:3]1([H:9])[O:4]2)([H:7])[H:8]"
N        1.85676281      -0.26906857      -0.19961102
C        0.50383909      -0.10732573      -0.01845293
C       -0.24088035       1.09205013       0.26998476
O       -1.35459023       0.77817041       1.05983420
C       -1.59873149       0.01744038      -0.06993517
C       -0.56639252      -0.95475158      -0.26835159
H        2.43243528       0.43707737       0.22603171
H        2.20174777      -1.20374176      -0.05890156
H       -0.01628043       2.13628705       0.11878265
H       -2.61147722       0.04877571      -0.44481013
H       -0.60643270      -1.97491342      -0.61457092
11
Frame=16 idx=001841 GeodesicLength=0.8153803264236026 rxn_smarts="[N:1]([c:2]1[c:3]([H:9])[o:4][c:5]([H:10])[c:6]1[H:11])([H:7])[H:8]>>[N:1]([C:2]1=[C:6]([H:11])[C@:5]2([H:10])[C@@:3]1([H:9])[O:4]2)([H:7])[H:8]"
N        1.85883305      -0.26805658      -0.20129785
C        0.50164950      -0.09742097      -0.03822257
C       -0.25802355       1.09605066       0.21909793
O       -1.33786131       0.78978783       1.04695497
C       -1.60458738       0.01141901      -0.07306794
C       -0.56771733      -0.95363203      -0.27386780
H        2.43001475       0.43521744       0.23507441
H        2.19322502      -1.20269785      -0.03582017
H        0.01487229       2.13833800       0.15866810
H       -2.62865360       0.02382021      -0.41401802
H       -0.60175145      -1.97282573      -0.62350106
