13
Frame=0 idx=006006 GeodesicLength=0.0 rxn_smarts="[C:1]([N:2]1[C:3]([H:10])([H:11])[C@:4]1([C:5](=[O:6])[H:13])[H:12])([H:7])([H:8])[H:9]>>[C:1]([N-:2][C:4](=[C:5]([O+:6]=[C:3]([H:10])[H:11])[H:13])[H:12])([H:7])([H:8])[H:9]"
C        1.99831780       0.19544413      -0.55329650
N        0.57966826       0.41649028      -0.62182696
C       -1.55920690       0.51448332       0.74628005
C       -0.13644621      -0.26219604       0.26589997
C       -1.30933152      -0.97481015      -0.30821434
O       -2.37928904      -0.59243120       0.44993773
H        2.52903644       1.04938595      -0.97899426
H        2.30723137      -0.69119435      -1.12601167
H        2.35002206       0.03787700       0.48091176
H       -1.53225634       0.76347257       1.80442210
H       -1.70259723       1.34870748       0.06922196
H        0.32325906      -0.72097591       1.15650861
H       -1.46840772      -1.08425306      -1.38483843
13
Frame=1 idx=006006 GeodesicLength=0.10452505507785702 rxn_smarts="[C:1]([N:2]1[C:3]([H:10])([H:11])[C@:4]1([C:5](=[O:6])[H:13])[H:12])([H:7])([H:8])[H:9]>>[C:1]([N-:2][C:4](=[C:5]([O+:6]=[C:3]([H:10])[H:11])[H:13])[H:12])([H:7])([H:8])[H:9]"
C        1.99584516       0.20312840      -0.54649774
N        0.57317574       0.39290819      -0.63072199
C       -1.54028061       0.53069497       0.74769141
C       -0.13744441      -0.30213669       0.25032361
C       -1.32801733      -0.98990305      -0.31163526
O       -2.38254626      -0.59246808       0.44785029
H        2.51066897       1.06566313      -0.97451740
H        2.33004165      -0.67838493      -1.11200247
H        2.34077004       0.06183967       0.49206127
H       -1.51079106       0.78407399       1.80460466
H       -1.67783738       1.36769232       0.07343034
H        0.31945520      -0.74870148       1.14722348
H       -1.49303972      -1.09440644      -1.38781022
13
Frame=2 idx=006006 GeodesicLength=0.20904668329963905 rxn_smarts="[C:1]([N:2]1[C:3]([H:10])([H:11])[C@:4]1([C:5](=[O:6])[H:13])[H:12])([H:7])([H:8])[H:9]>>[C:1]([N-:2][C:4](=[C:5]([O+:6]=[C:3]([H:10])[H:11])[H:13])[H:12])([H:7])([H:8])[H:9]"
C        1.99259886       0.21076393      -0.53951692
N        0.56681839       0.36968154      -0.63954202
C       -1.52015643       0.54671828       0.74895424
C       -0.13874249      -0.34133767       0.23450712
C       -1.34605533      -1.00485839      -0.31504379
O       -2.38529259      -0.59329622       0.44564520
H        2.49183084       1.08124129      -0.97003689
H        2.35152059      -0.66531877      -1.09735994
H        2.32982656       0.08556817       0.50335188
H       -1.48851859       0.80448641       1.80463211
H       -1.65240318       1.38651169       0.07767902
H        0.31553497      -0.77575452       1.13745758
H       -1.51696159      -1.10440574      -1.39072760
13
Frame=3 idx=006006 GeodesicLength=0.31356758599743506 rxn_smarts="[C:1]([N:2]1[C:3]([H:10])([H:11])[C@:4]1([C:5](=[O:6])[H:13])[H:12])([H:7])([H:8])[H:9]>>[C:1]([N-:2][C:4](=[C:5]([O+:6]=[C:3]([H:10])[H:11])[H:13])[H:12])([H:7])([H:8])[H:9]"
C        1.98862266       0.21828442      -0.53243064
N        0.56061780       0.34707140      -0.64810006
C       -1.49901372       0.56257324       0.75008838
C       -0.14029054      -0.37960406       0.21861682
C       -1.36329055      -1.01967891      -0.31841430
O       -2.38754241      -0.59506385       0.44325821
H        2.47269496       1.09605469      -0.96555039
H        2.37145251      -0.65206404      -1.08238515
H        2.31740996       0.10872338       0.51461223
H       -1.46578376       0.82474030       1.80452940
H       -1.62648594       1.40517427       0.08196607
H        0.31151670      -0.80194374       1.12739223
H       -1.53990767      -1.11426709      -1.39358278
13
Frame=4 idx=006006 GeodesicLength=0.4180884040755543 rxn_smarts="[C:1]([N:2]1[C:3]([H:10])([H:11])[C@:4]1([C:5](=[O:6])[H:13])[H:12])([H:7])([H:8])[H:9]>>[C:1]([N-:2][C:4](=[C:5]([O+:6]=[C:3]([H:10])[H:11])[H:13])[H:12])([H:7])([H:8])[H:9]"
C        1.98398265       0.22562748      -0.52531295
N        0.55458183       0.32531485      -0.65622699
C       -1.47703768       0.57828957       0.75112528
C       -0.14203985      -0.41676952       0.20280130
C       -1.37959985      -1.03437686      -0.32173616
O       -2.38933280      -0.59790783       0.44063015
H        2.45343576       1.11005387      -0.96106635
H        2.38967783      -0.63871390      -1.06736175
H        2.30378195       0.13101679       0.52569328
H       -1.44292635       0.84486964       1.80433439
H       -1.60027845       1.42370451       0.08630876
H        0.30741323      -0.82710087       1.11719470
H       -1.56165825      -1.12400774      -1.39638367
13
Frame=5 idx=006006 GeodesicLength=0.5226077211434392 rxn_smarts="[C:1]([N:2]1[C:3]([H:10])([H:11])[C@:4]1([C:5](=[O:6])[H:13])[H:12])([H:7])([H:8])[H:9]>>[C:1]([N-:2][C:4](=[C:5]([O+:6]=[C:3]([H:10])[H:11])[H:13])[H:12])([H:7])([H:8])[H:9]"
C        1.97876187       0.23273520      -0.51823255
N        0.54870609       0.30461164      -0.66377641
C       -1.45441033       0.59390903       0.75210196
C       -0.14394457      -0.45270085       0.18719037
C       -1.39489345      -1.04897567      -0.32500749
O       -2.39071801      -0.60195158       0.43771391
H        2.43422009       1.12321683      -0.95657784
H        2.40609505      -0.62536336      -1.05257099
H        2.28923290       0.15219074       0.53646782
H       -1.42026852       0.86492288       1.80408870
H       -1.57396786       1.44213867       0.09072985
H        0.30323095      -0.85108064       1.10701893
H       -1.58204421      -1.13365289      -1.39914627
13
Frame=6 idx=006006 GeodesicLength=0.6271249136745064 rxn_smarts="[C:1]([N:2]1[C:3]([H:10])([H:11])[C@:4]1([C:5](=[O:6])[H:13])[H:12])([H:7])([H:8])[H:9]>>[C:1]([N-:2][C:4](=[C:5]([O+:6]=[C:3]([H:10])[H:11])[H:13])[H:12])([H:7])([H:8])[H:9]"
C        1.97305310       0.23955988      -0.51124854
N        0.54297426       0.28511237      -0.67063832
C       -1.43129647       0.60948257       0.75306119
C       -0.14596469      -0.48730546       0.17188553
C       -1.40911934      -1.06350698      -0.32823713
O       -2.39176583      -0.60729960       0.43447602
H        2.41519297       1.13554385      -0.95208131
H        2.42066879      -0.61211215      -1.03825579
H        2.27405605       0.17205271       0.54684371
H       -1.39809451       0.88495437       1.80383867
H       -1.54771827       1.46052579       0.09526059
H        0.29897017      -0.87377871       1.09699065
H       -1.60095626      -1.14322865      -1.40189526
13
Frame=7 idx=006006 GeodesicLength=0.7316327732968277 rxn_smarts="[C:1]([N:2]1[C:3]([H:10])([H:11])[C@:4]1([C:5](=[O:6])[H:13])[H:12])([H:7])([H:8])[H:9]>>[C:1]([N-:2][C:4](=[C:5]([O+:6]=[C:3]([H:10])[H:11])[H:13])[H:12])([H:7])([H:8])[H:9]"
C        1.96695029       0.24605924      -0.50441164
N        0.53737235       0.26691055      -0.67671339
C       -1.40784093       0.62507052       0.75404247
C       -0.14806174      -0.52052992       0.15697834
C       -1.42225352      -1.07800910      -0.33143734
O       -2.39255122      -0.61403803       0.43089474
H        2.39648053       1.14705929      -0.94754038
H        2.43339696      -0.59902001      -1.02465554
H        2.25853523       0.19042672       0.55672979
H       -1.37665484       0.90503829       1.80362133
H       -1.52166845       1.47891445       0.09992135
H        0.29462391      -0.89511447       1.08722932
H       -1.61832855      -1.15276754      -1.40465904
13
Frame=8 idx=006006 GeodesicLength=0.8361676060080029 rxn_smarts="[C:1]([N:2]1[C:3]([H:10])([H:11])[C@:4]1([C:5](=[O:6])[H:13])[H:12])([H:7])([H:8])[H:9]>>[C:1]([N-:2][C:4](=[C:5]([O+:6]=[C:3]([H:10])[H:11])[H:13])[H:12])([H:7])([H:8])[H:9]"
C        1.96048553       0.25230489      -0.49768066
N        0.53184088       0.24977271      -0.68222347
C       -1.38395257       0.64069472       0.75509547
C       -0.15025847      -0.55254539       0.14233096
C       -1.43448623      -1.09251028      -0.33467867
O       -2.39317450      -0.62211079       0.42703003
H        2.37799714       1.15782383      -0.94313244
H        2.44461647      -0.58619337      -1.01137354
H        2.24259182       0.20783887       0.56628296
H       -1.35574209       0.92515107       1.80348177
H       -1.49561982       1.49737542       0.10480532
H        0.29017527      -0.91536921       1.07754711
H       -1.63447342      -1.16223248      -1.40748485
13
Frame=9 idx=006006 GeodesicLength=0.940730088663946 rxn_smarts="[C:1]([N:2]1[C:3]([H:10])([H:11])[C@:4]1([C:5](=[O:6])[H:13])[H:12])([H:7])([H:8])[H:9]>>[C:1]([N-:2][C:4](=[C:5]([O+:6]=[C:3]([H:10])[H:11])[H:13])[H:12])([H:7])([H:8])[H:9]"
C        1.95373429       0.25826334      -0.49109618
N        0.52636519       0.23375408      -0.68709387
C       -1.35973652       0.65641976       0.75625717
C       -0.15252641      -0.58332907       0.12801609
C       -1.44580615      -1.10705275      -0.33797584
O       -2.39370153      -0.63159607       0.42287020
H        2.35983260       1.16787183      -0.93881016
H        2.45434228      -0.57366235      -0.99862523
H        2.22644991       0.22413509       0.57543323
H       -1.33555629       0.94537246       1.80345447
H       -1.46966398       1.51595733       0.10991896
H        0.28561339      -0.93447925       1.06805695
H       -1.64934678      -1.17165439      -1.41040580
13
Frame=10 idx=006006 GeodesicLength=1.0453100308151362 rxn_smarts="[C:1]([N:2]1[C:3]([H:10])([H:11])[C@:4]1([C:5](=[O:6])[H:13])[H:12])([H:7])([H:8])[H:9]>>[C:1]([N-:2][C:4](=[C:5]([O+:6]=[C:3]([H:10])[H:11])[H:13])[H:12])([H:7])([H:8])[H:9]"
C        1.94676325       0.26391573      -0.48468675
N        0.52091915       0.21887854      -0.69128820
C       -1.33526191       0.67230354       0.75756747
C       -0.15484970      -0.61287787       0.11407480
C       -1.45622781      -1.12167382      -0.34135008
O       -2.39419769      -0.64256152       0.41840589
H        2.34204669       1.17723600      -0.93456382
H        2.46262468      -0.56147752      -0.98653800
H        2.21029948       0.23925686       0.58414876
H       -1.31624455       0.96575586       1.80356799
H       -1.44384465       1.53470774       0.11528606
H        0.28091964      -0.95241457       1.05882379
H       -1.66294657      -1.18104896      -1.41344792
13
Frame=11 idx=006006 GeodesicLength=1.149901382920867 rxn_smarts="[C:1]([N:2]1[C:3]([H:10])([H:11])[C@:4]1([C:5](=[O:6])[H:13])[H:12])([H:7])([H:8])[H:9]>>[C:1]([N-:2][C:4](=[C:5]([O+:6]=[C:3]([H:10])[H:11])[H:13])[H:12])([H:7])([H:8])[H:9]"
C        1.93963552       0.26924745      -0.47847622
N        0.51547504       0.20515049      -0.69478022
C       -1.31058240       0.68840895       0.75906390
C       -0.15721725      -0.64120358       0.10054165
C       -1.46577462      -1.13641291      -0.34482428
O       -2.39472330      -0.65507719       0.41363711
H        2.32468486       1.18595477      -0.93037740
H        2.46952870      -0.54967600      -0.97523078
H        2.19431569       0.25315659       0.59241084
H       -1.29793390       0.98635990       1.80384386
H       -1.41819171       1.55367753       0.12092306
H        0.27607164      -0.96915973       1.04990598
H       -1.67528828      -1.19042627      -1.41663750
13
Frame=12 idx=006006 GeodesicLength=1.25449913730156 rxn_smarts="[C:1]([N:2]1[C:3]([H:10])([H:11])[C@:4]1([C:5](=[O:6])[H:13])[H:12])([H:7])([H:8])[H:9]>>[C:1]([N-:2][C:4](=[C:5]([O+:6]=[C:3]([H:10])[H:11])[H:13])[H:12])([H:7])([H:8])[H:9]"
C        1.93240481       0.27424214      -0.47248907
N        0.51001257       0.19256978      -0.69753644
C       -1.28574011       0.70480245       0.76078929
C       -0.15961485      -0.66831909       0.08745532
C       -1.47446334      -1.15130890      -0.34842402
O       -2.39533531      -0.66921454       0.40855336
H        2.30778405       1.19406152      -0.92623724
H        2.47509620      -0.53828623      -0.96481960
H        2.17865916       0.26578122       0.60019120
H       -1.28075488       1.00724412       1.80430639
H       -1.39272142       1.57291890       0.12684901
H        0.27104645      -0.98469372       1.04136810
H       -1.68637333      -1.19979765      -1.42000630
13
Frame=13 idx=006006 GeodesicLength=1.3591289087632896 rxn_smarts="[C:1]([N:2]1[C:3]([H:10])([H:11])[C@:4]1([C:5](=[O:6])[H:13])[H:12])([H:7])([H:8])[H:9]>>[C:1]([N-:2][C:4](=[C:5]([O+:6]=[C:3]([H:10])[H:11])[H:13])[H:12])([H:7])([H:8])[H:9]"
C        1.92507099       0.27895669      -0.46669013
N        0.50449270       0.18092081      -0.69971311
C       -1.26061629       0.72151711       0.76276922
C       -0.16207025      -0.69437842       0.07472816
C       -1.48243825      -1.16640149      -0.35220183
O       -2.39610120      -0.68497010       0.40321431
H        2.29123180       1.20163388      -0.92220496
H        2.47957095      -0.52730535      -0.95506155
H        2.16322485       0.27746306       0.60759649
H       -1.26451872       1.02843797       1.80496147
H       -1.36722598       1.59247479       0.13308500
H        0.26582295      -0.99920986       1.03311095
H       -1.69644356      -1.20913908      -1.42359402
13
Frame=14 idx=006006 GeodesicLength=1.4638144419365458 rxn_smarts="[C:1]([N:2]1[C:3]([H:10])([H:11])[C@:4]1([C:5](=[O:6])[H:13])[H:12])([H:7])([H:8])[H:9]>>[C:1]([N-:2][C:4](=[C:5]([O+:6]=[C:3]([H:10])[H:11])[H:13])[H:12])([H:7])([H:8])[H:9]"
C        1.91762523       0.28342232      -0.46105767
N        0.49887884       0.17008008      -0.70138969
C       -1.23512561       0.73859076       0.76503102
C       -0.16461139      -0.71947496       0.06231066
C       -1.48977624      -1.18171182      -0.35618640
O       -2.39704042      -0.70241082       0.39766025
H        2.27496287       1.20870446      -0.91832377
H        2.48308063      -0.51672919      -0.94580824
H        2.14793134       0.28841857       0.61467542
H       -1.24912527       1.04995760       1.80578508
H       -1.34152317       1.61237741       0.13964371
H        0.26034787      -1.01282083       1.02506434
H       -1.70562469      -1.21840356      -1.42740472
13
Frame=15 idx=006006 GeodesicLength=1.5685287899080105 rxn_smarts="[C:1]([N:2]1[C:3]([H:10])([H:11])[C@:4]1([C:5](=[O:6])[H:13])[H:12])([H:7])([H:8])[H:9]>>[C:1]([N-:2][C:4](=[C:5]([O+:6]=[C:3]([H:10])[H:11])[H:13])[H:12])([H:7])([H:8])[H:9]"
C        1.91014713       0.28757715      -0.45565730
N        0.49316234       0.16018677      -0.70240546
C       -1.20937689       0.75611942       0.76763148
C       -0.16720673      -0.74352490       0.05033760
C       -1.49641307      -1.19728712      -0.36040484
O       -2.39821037      -0.72167662       0.39181943
H        2.25908884       1.21527827      -0.91453860
H        2.48552907      -0.50660716      -0.93741582
H        2.13311394       0.29833204       0.62132771
H       -1.23490720       1.07188913       1.80682374
H       -1.31576628       1.63269434       0.14654351
H        0.25460955      -1.02535359       1.01743098
H       -1.71377035      -1.22762772      -1.43149242
13
Frame=16 idx=006006 GeodesicLength=1.6732286552204971 rxn_smarts="[C:1]([N:2]1[C:3]([H:10])([H:11])[C@:4]1([C:5](=[O:6])[H:13])[H:12])([H:7])([H:8])[H:9]>>[C:1]([N-:2][C:4](=[C:5]([O+:6]=[C:3]([H:10])[H:11])[H:13])[H:12])([H:7])([H:8])[H:9]"
C        1.90271129       0.29136538      -0.45054149
N        0.48731684       0.15133617      -0.70263695
C       -1.18344055       0.77420128       0.77062888
C       -0.16984138      -0.76646971       0.03891712
C       -1.50229899      -1.21315970      -0.36486245
O       -2.39964151      -0.74291506       0.38565181
H        2.24369252       1.22136956      -0.91077811
H        2.48686669      -0.49697808      -0.93020839
H        2.11907750       0.30694402       0.62748084
H       -1.22217924       1.09430776       1.80807632
H       -1.29006035       1.65348148       0.15378861
H        0.24856075      -1.03667808       1.01035286
H       -1.72076355      -1.23680502      -1.43586906
