12
Frame=0 idx=000049 GeodesicLength=0.0 rxn_smarts="[C:1](/[N:2]=[C:3](/[N:4]([C:5](=[O:6])[H:12])[H:11])[H:10])([H:7])([H:8])[H:9]>>[C:1](/[N:2]=[C:3](/[N:4]=[C:5](/[O:6][H:11])[H:12])[H:10])([H:7])([H:8])[H:9]"
C       -2.25526158      -0.16429679      -0.64533398
N       -1.01683362      -0.70844525      -0.14525358
C       -0.04096020       0.07407364      -0.03111191
N        1.18693227      -0.35571900       0.44161541
C        2.27541369       0.34349455       0.60981779
O        3.17781157      -0.42573328       1.06388975
H       -3.04219112      -0.32236661       0.09501932
H       -2.20458494       0.90801867      -0.88147592
H       -2.55050875      -0.70670558      -1.54589150
H       -0.09166553       1.14123490      -0.29425184
H        2.12714742      -1.18552071       0.92158532
H        2.43470075       1.40196542       0.41139111
12
Frame=1 idx=000049 GeodesicLength=0.03187455443443355 rxn_smarts="[C:1](/[N:2]=[C:3](/[N:4]([C:5](=[O:6])[H:12])[H:11])[H:10])([H:7])([H:8])[H:9]>>[C:1](/[N:2]=[C:3](/[N:4]=[C:5](/[O:6][H:11])[H:12])[H:10])([H:7])([H:8])[H:9]"
C       -2.25373949      -0.16202545      -0.64422742
N       -1.01401468      -0.71111153      -0.15263127
C       -0.03458372       0.06779297      -0.04476751
N        1.18385151      -0.35949477       0.45417533
C        2.26273308       0.35240433       0.63970474
O        3.18113341      -0.41976072       1.05581328
H       -3.03693873      -0.31936633       0.10020568
H       -2.20126330       0.91071268      -0.87799017
H       -2.55581956      -0.70118051      -1.54446706
H       -0.08429309       1.13657636      -0.30160409
H        2.13254518      -1.19674861       0.91831664
H        2.42038939       1.40220158       0.39747184
12
Frame=2 idx=000049 GeodesicLength=0.06391059844432449 rxn_smarts="[C:1](/[N:2]=[C:3](/[N:4]([C:5](=[O:6])[H:12])[H:11])[H:10])([H:7])([H:8])[H:9]>>[C:1](/[N:2]=[C:3](/[N:4]=[C:5](/[O:6][H:11])[H:12])[H:10])([H:7])([H:8])[H:9]"
C       -2.25189034      -0.15987564      -0.64355247
N       -1.01178436      -0.71322972      -0.15753275
C       -0.03004348       0.06299148      -0.05167385
N        1.17945168      -0.36206081       0.47068137
C        2.25256473       0.35949155       0.66145678
O        3.18372553      -0.41318157       1.04825395
H       -3.03343342      -0.31853624       0.10231973
H       -2.19808904       0.91368912      -0.87312933
H       -2.55743785      -0.69471861      -1.54518777
H       -0.07689317       1.13191480      -0.30864956
H        2.13771557      -1.20764486       0.91438917
H        2.40611417       1.40116050       0.38262472
12
Frame=3 idx=000049 GeodesicLength=0.09583708200737553 rxn_smarts="[C:1](/[N:2]=[C:3](/[N:4]([C:5](=[O:6])[H:12])[H:11])[H:10])([H:7])([H:8])[H:9]>>[C:1](/[N:2]=[C:3](/[N:4]=[C:5](/[O:6][H:11])[H:12])[H:10])([H:7])([H:8])[H:9]"
C       -2.24974036      -0.15800984      -0.64376382
N       -1.01072870      -0.71426460      -0.15807051
C       -0.02699485       0.05955205      -0.05346140
N        1.17570738      -0.36475423       0.48522663
C        2.24469522       0.36510314       0.67653834
O        3.18635267      -0.40701503       1.03948376
H       -3.03184509      -0.31583235       0.10167783
H       -2.19388859       0.91570538      -0.87208280
H       -2.55609808      -0.69112054      -1.54614364
H       -0.07156111       1.12894656      -0.30904197
H        2.14249965      -1.21837240       0.91033599
H        2.39160185       1.40006185       0.36930158
12
Frame=4 idx=000049 GeodesicLength=0.12767305475920526 rxn_smarts="[C:1](/[N:2]=[C:3](/[N:4]([C:5](=[O:6])[H:12])[H:11])[H:10])([H:7])([H:8])[H:9]>>[C:1](/[N:2]=[C:3](/[N:4]=[C:5](/[O:6][H:11])[H:12])[H:10])([H:7])([H:8])[H:9]"
C       -2.24752199      -0.15627404      -0.64415888
N       -1.00987719      -0.71498666      -0.15761219
C       -0.02453688       0.05677285      -0.05328666
N        1.17247375      -0.36749764       0.49825746
C        2.23798547       0.37009635       0.68829115
O        3.18826988      -0.40071153       1.03235117
H       -3.03083406      -0.31350405       0.10012055
H       -2.18977147       0.91759669      -0.87121111
H       -2.55365882      -0.68779541      -1.54754584
H       -0.06702231       1.12669447      -0.30717396
H        2.14686056      -1.22891502       0.90655315
H        2.37763306       1.39852399       0.35541516
12
Frame=5 idx=000049 GeodesicLength=0.15959833399192935 rxn_smarts="[C:1](/[N:2]=[C:3](/[N:4]([C:5](=[O:6])[H:12])[H:11])[H:10])([H:7])([H:8])[H:9]>>[C:1](/[N:2]=[C:3](/[N:4]=[C:5](/[O:6][H:11])[H:12])[H:10])([H:7])([H:8])[H:9]"
C       -2.24524333      -0.15465592      -0.64473219
N       -1.00921676      -0.71540707      -0.15623527
C       -0.02246897       0.05449434      -0.05184597
N        1.16963975      -0.37022467       0.51018626
C        2.23205150       0.37476003       0.69794423
O        3.18983569      -0.39443555       1.02584226
H       -3.03023448      -0.31103008       0.09793755
H       -2.18559242       0.91925787      -0.87102338
H       -2.55048262      -0.68509165      -1.54905507
H       -0.06317732       1.12507563      -0.30340929
H        2.15091473      -1.23941809       0.90279562
H        2.36397422       1.39667517       0.34159524
12
Frame=6 idx=000049 GeodesicLength=0.19150313045962988 rxn_smarts="[C:1](/[N:2]=[C:3](/[N:4]([C:5](=[O:6])[H:12])[H:11])[H:10])([H:7])([H:8])[H:9]>>[C:1](/[N:2]=[C:3](/[N:4]=[C:5](/[O:6][H:11])[H:12])[H:10])([H:7])([H:8])[H:9]"
C       -2.24296527      -0.15308171      -0.64525749
N       -1.00865609      -0.71566477      -0.15434741
C       -0.02054773       0.05243745      -0.04993994
N        1.16713723      -0.37296851       0.52118040
C        2.22652683       0.37925553       0.70649188
O        3.19103557      -0.38813408       1.02012639
H       -3.02977722      -0.30830469       0.09570645
H       -2.18137583       0.92078049      -0.87121121
H       -2.54712226      -0.68280449      -1.55035807
H       -0.05943666       1.12358034      -0.29955825
H        2.15486035      -1.24995173       0.89856913
H        2.35032108       1.39485617       0.32859813
12
Frame=7 idx=000049 GeodesicLength=0.22348735807311737 rxn_smarts="[C:1](/[N:2]=[C:3](/[N:4]([C:5](=[O:6])[H:12])[H:11])[H:10])([H:7])([H:8])[H:9]>>[C:1](/[N:2]=[C:3](/[N:4]=[C:5](/[O:6][H:11])[H:12])[H:10])([H:7])([H:8])[H:9]"
C       -2.24077516      -0.15149057      -0.64545710
N       -1.00780579      -0.71609529      -0.15329996
C       -0.01847801       0.05035191      -0.04854619
N        1.16484182      -0.37563784       0.53146741
C        2.22118038       0.38381834       0.71436260
O        3.19149366      -0.38145418       1.01671316
H       -3.02900638      -0.30650848       0.09402546
H       -2.17761838       0.92256747      -0.87002004
H       -2.54416043      -0.67966663      -1.55172409
H       -0.05529315       1.12181481      -0.29729632
H        2.15859592      -1.26038592       0.89428746
H        2.33702551       1.39268638       0.31548761
12
Frame=8 idx=000049 GeodesicLength=0.25535534027059065 rxn_smarts="[C:1](/[N:2]=[C:3](/[N:4]([C:5](=[O:6])[H:12])[H:11])[H:10])([H:7])([H:8])[H:9]>>[C:1](/[N:2]=[C:3](/[N:4]=[C:5](/[O:6][H:11])[H:12])[H:10])([H:7])([H:8])[H:9]"
C       -2.23849827      -0.14999105      -0.64600534
N       -1.00797483      -0.71572968      -0.14887445
C       -0.01698166       0.04867947      -0.04534626
N        1.16293012      -0.37854374       0.54099357
C        2.21601669       0.38817886       0.72201757
O        3.19218437      -0.37504943       1.01222614
H       -3.02922730      -0.30136991       0.09154106
H       -2.17263158       0.92334606      -0.87316207
H       -2.54035307      -0.67981620      -1.55181733
H       -0.05184664       1.12054537      -0.29281523
H        2.16331965      -1.27141198       0.88602368
H        2.32306253       1.39116224       0.30521865
12
Frame=9 idx=000049 GeodesicLength=0.28726541385369253 rxn_smarts="[C:1](/[N:2]=[C:3](/[N:4]([C:5](=[O:6])[H:12])[H:11])[H:10])([H:7])([H:8])[H:9]>>[C:1](/[N:2]=[C:3](/[N:4]=[C:5](/[O:6][H:11])[H:12])[H:10])([H:7])([H:8])[H:9]"
C       -2.23631811      -0.14845307      -0.64602406
N       -1.00702623      -0.71607253      -0.14783805
C       -0.01489008       0.04675747      -0.04410108
N        1.16111442      -0.38118783       0.54980124
C        2.21102276       0.39269891       0.72867260
O        3.19200622      -0.36831178       1.01016964
H       -3.02833780      -0.29970312       0.09014232
H       -2.16903250       0.92506534      -0.87179564
H       -2.53745536      -0.67676516      -1.55294444
H       -0.04777768       1.11888157      -0.29084490
H        2.16666403      -1.28173026       0.88179035
H        2.31003033       1.38882046       0.29297200
12
Frame=10 idx=000049 GeodesicLength=0.3191590223710649 rxn_smarts="[C:1](/[N:2]=[C:3](/[N:4]([C:5](=[O:6])[H:12])[H:11])[H:10])([H:7])([H:8])[H:9]>>[C:1](/[N:2]=[C:3](/[N:4]=[C:5](/[O:6][H:11])[H:12])[H:10])([H:7])([H:8])[H:9]"
C       -2.23418868      -0.14692154      -0.64593211
N       -1.00609279      -0.71638132      -0.14672465
C       -0.01272674       0.04481749      -0.04315295
N        1.15957058      -0.38390178       0.55778439
C        2.20612252       0.39721870       0.73503695
O        3.19167739      -0.36160076       1.00829799
H       -3.02738370      -0.29775954       0.08903373
H       -2.16542569       0.92670866      -0.87065837
H       -2.53480978      -0.67396973      -1.55375396
H       -0.04358975       1.11714115      -0.28944912
H        2.16992560      -1.29207435       0.87759912
H        2.29692105       1.38672303       0.28191897
12
Frame=11 idx=000049 GeodesicLength=0.351048515569081 rxn_smarts="[C:1](/[N:2]=[C:3](/[N:4]([C:5](=[O:6])[H:12])[H:11])[H:10])([H:7])([H:8])[H:9]>>[C:1](/[N:2]=[C:3](/[N:4]=[C:5](/[O:6][H:11])[H:12])[H:10])([H:7])([H:8])[H:9]"
C       -2.23206449      -0.14542581      -0.64583053
N       -1.00521342      -0.71659265      -0.14534207
C       -0.01058723       0.04296428      -0.04217777
N        1.15823305      -0.38661488       0.56518565
C        2.20134700       0.40173469       0.74103381
O        3.19121345      -0.35494832       1.00657839
H       -3.02646231      -0.29552845       0.08796703
H       -2.16176225       0.92822234      -0.86992768
H       -2.53216109      -0.67154457      -1.55436029
H       -0.03953326       1.11551886      -0.28786191
H        2.17311451      -1.30247200       0.87324498
H        2.28387603       1.38468650       0.27149039
12
Frame=12 idx=000049 GeodesicLength=0.3829402134847763 rxn_smarts="[C:1](/[N:2]=[C:3](/[N:4]([C:5](=[O:6])[H:12])[H:11])[H:10])([H:7])([H:8])[H:9]>>[C:1](/[N:2]=[C:3](/[N:4]=[C:5](/[O:6][H:11])[H:12])[H:10])([H:7])([H:8])[H:9]"
C       -2.22996216      -0.14394852      -0.64564431
N       -1.00427602      -0.71680142      -0.14405875
C       -0.00840613       0.04113997      -0.04137849
N        1.15704499      -0.38928254       0.57212853
C        2.19664603       0.40629443       0.74673818
O        3.19054677      -0.34829857       1.00523077
H       -3.02546582      -0.29340452       0.08706752
H       -2.15819361       0.92973438      -0.86904248
H       -2.52961088      -0.66908280      -1.55488673
H       -0.03543498       1.11388092      -0.28662775
H        2.17615105      -1.31287386       0.86902002
H        2.27096077       1.38264253       0.26145349
12
Frame=13 idx=000049 GeodesicLength=0.4148389210760821 rxn_smarts="[C:1](/[N:2]=[C:3](/[N:4]([C:5](=[O:6])[H:12])[H:11])[H:10])([H:7])([H:8])[H:9]>>[C:1](/[N:2]=[C:3](/[N:4]=[C:5](/[O:6][H:11])[H:12])[H:10])([H:7])([H:8])[H:9]"
C       -2.22786574      -0.14250393      -0.64544356
N       -1.00340664      -0.71691501      -0.14247463
C       -0.00629045       0.03942027      -0.04041589
N        1.15599981      -0.39191043       0.57871686
C        2.19202520       0.41089071       0.75219414
O        3.18972386      -0.34167283       1.00416532
H       -3.02454974      -0.29111030       0.08613886
H       -2.15460075       0.93115145      -0.86842103
H       -2.52696771      -0.66689135      -1.55529240
H       -0.03142073       1.11232128      -0.28532678
H        2.17917419      -1.32334508       0.86440808
H        2.25817870       1.38056522       0.25175105
12
Frame=14 idx=000049 GeodesicLength=0.4467450352363591 rxn_smarts="[C:1](/[N:2]=[C:3](/[N:4]([C:5](=[O:6])[H:12])[H:11])[H:10])([H:7])([H:8])[H:9]>>[C:1](/[N:2]=[C:3](/[N:4]=[C:5](/[O:6][H:11])[H:12])[H:10])([H:7])([H:8])[H:9]"
C       -2.22581527      -0.14105406      -0.64509040
N       -1.00245391      -0.71707797      -0.14112452
C       -0.00409628       0.03766096      -0.03976007
N        1.15507446      -0.39450594       0.58490350
C        2.18736866       0.41559539       0.75754360
O        3.18857843      -0.33491622       1.00403917
H       -3.02351448      -0.28901731       0.08549643
H       -2.15115216       0.93262741      -0.86741113
H       -2.52452977      -0.66449526      -1.55560660
H       -0.02723548       1.11061880      -0.28477712
H        2.18217898      -1.33381804       0.85956169
H        2.24559682       1.37838225       0.24222546
12
Frame=15 idx=000049 GeodesicLength=0.4787040907803823 rxn_smarts="[C:1](/[N:2]=[C:3](/[N:4]([C:5](=[O:6])[H:12])[H:11])[H:10])([H:7])([H:8])[H:9]>>[C:1](/[N:2]=[C:3](/[N:4]=[C:5](/[O:6][H:11])[H:12])[H:10])([H:7])([H:8])[H:9]"
C       -2.22385261      -0.13957397      -0.64441552
N       -1.00106326      -0.71757791      -0.14113870
C       -0.00164480       0.03574696      -0.03998508
N        1.15415571      -0.39692586       0.59083827
C        2.18263062       0.42054192       0.76267142
O        3.18685432      -0.32786519       1.00578359
H       -3.02204074      -0.28833613       0.08547021
H       -2.14831225       0.93452914      -0.86442248
H       -2.52257286      -0.66073635      -1.55625320
H       -0.02262120       1.10858909      -0.28589726
H        2.18487347      -1.34412165       0.85548658
H        2.23359360       1.37572994       0.23186216
12
Frame=16 idx=000049 GeodesicLength=0.5105964953891364 rxn_smarts="[C:1](/[N:2]=[C:3](/[N:4]([C:5](=[O:6])[H:12])[H:11])[H:10])([H:7])([H:8])[H:9]>>[C:1](/[N:2]=[C:3](/[N:4]=[C:5](/[O:6][H:11])[H:12])[H:10])([H:7])([H:8])[H:9]"
C       -2.22187464      -0.13811447      -0.64380727
N       -1.00003590      -0.71778062      -0.13997599
C        0.00065344       0.03391292      -0.03975808
N        1.15344028      -0.39947281       0.59634831
C        2.17783239       0.42547378       0.76793651
O        3.18509700      -0.32085328       1.00742524
H       -3.02085549      -0.28631205       0.08529118
H       -2.14500526       0.93601925      -0.86303849
H       -2.52046666      -0.65820000      -1.55627483
H       -0.01816348       1.10661158      -0.28658295
H        2.18801066      -1.35460854       0.84968376
H        2.22136767       1.37332425       0.22275261
