14
Frame=0 idx=002444 GeodesicLength=0.0 rxn_smarts="[C:1]([C:2]([N:3]([C:4]([C:5]#[N:6])([H:13])[H:14])[H:12])([H:10])[H:11])([H:7])([H:8])[H:9]>>[C:1](/[C:2](=[N:3]/[H:12])[H:10])([H:7])([H:8])[H:9].[C:4](=[C:5]=[N:6][H:11])([H:13])[H:14]"
C        1.77586822       0.35987437       0.28529146
C        0.59561201      -0.54001654       0.54834022
N       -0.04913364      -1.04612296      -0.50005404
C       -1.60865746       0.07776051      -1.11734961
C       -1.73229372       0.85681764      -0.01279344
N       -1.28396443       1.18133880       1.05045327
H        1.54138843       1.05752778      -0.52071631
H        2.64396533      -0.22673239      -0.02502742
H        2.04750816       0.93596215       1.17046168
H        0.59446878      -1.11533919       1.47631853
H       -0.34807462       0.44285227       1.14637667
H       -0.62559147      -1.82798011      -0.20178001
H       -2.34773369      -0.69526608      -1.29102316
H       -1.20336185       0.53932377      -2.00849783
14
Frame=1 idx=002444 GeodesicLength=0.09581969770351546 rxn_smarts="[C:1]([C:2]([N:3]([C:4]([C:5]#[N:6])([H:13])[H:14])[H:12])([H:10])[H:11])([H:7])([H:8])[H:9]>>[C:1](/[C:2](=[N:3]/[H:12])[H:10])([H:7])([H:8])[H:9].[C:4](=[C:5]=[N:6][H:11])([H:13])[H:14]"
C        1.78680163       0.35413313       0.28121367
C        0.60411772      -0.53674624       0.55973865
N       -0.05041641      -1.04415561      -0.48326979
C       -1.61412010       0.08248922      -1.12469647
C       -1.76360409       0.85241935      -0.01367068
N       -1.32382896       1.17731203       1.05212001
H        1.54855886       1.04825848      -0.52674622
H        2.64925346      -0.23998071      -0.03074835
H        2.06928055       0.93340307       1.16096998
H        0.61466146      -1.11364166       1.48706912
H       -0.35409003       0.44778175       1.14748324
H       -0.60818498      -1.83900071      -0.18450590
H       -2.35221105      -0.68627884      -1.32048556
H       -1.20621804       0.56400674      -2.00447170
14
Frame=2 idx=002444 GeodesicLength=0.191543272630796 rxn_smarts="[C:1]([C:2]([N:3]([C:4]([C:5]#[N:6])([H:13])[H:14])[H:12])([H:10])[H:11])([H:7])([H:8])[H:9]>>[C:1](/[C:2](=[N:3]/[H:12])[H:10])([H:7])([H:8])[H:9].[C:4](=[C:5]=[N:6][H:11])([H:13])[H:14]"
C        1.79787315       0.34806537       0.27668340
C        0.61264802      -0.53301776       0.57160248
N       -0.05203998      -1.04215485      -0.46550729
C       -1.61928406       0.08764168      -1.13211888
C       -1.79590032       0.84712408      -0.01458072
N       -1.36555237       1.17175583       1.05424613
H        1.55580119       1.03833743      -0.53345369
H        2.65427520      -0.25405108      -0.03681408
H        2.09172890       0.93079047       1.15048772
H        0.63513772      -1.11122738       1.49829935
H       -0.36010854       0.45347250       1.14838903
H       -0.59011055      -1.85015285      -0.16637991
H       -2.35574430      -0.67644422      -1.35139232
H       -1.20872405       0.58986079      -1.99946123
14
Frame=3 idx=002444 GeodesicLength=0.2871901266604511 rxn_smarts="[C:1]([C:2]([N:3]([C:4]([C:5]#[N:6])([H:13])[H:14])[H:12])([H:10])[H:11])([H:7])([H:8])[H:9]>>[C:1](/[C:2](=[N:3]/[H:12])[H:10])([H:7])([H:8])[H:9].[C:4](=[C:5]=[N:6][H:11])([H:13])[H:14]"
C        1.80908515       0.34163504       0.27169540
C        0.62118944      -0.52876684       0.58392951
N       -0.05400517      -1.04008271      -0.44674717
C       -1.62415313       0.09325390      -1.13958889
C       -1.82916855       0.84092250      -0.01558753
N       -1.40920888       1.16449198       1.05681795
H        1.56314918       1.02770495      -0.54086294
H        2.65899926      -0.26902296      -0.04316799
H        2.11486096       0.92808732       1.13897156
H        0.65585702      -1.10802229       1.51000659
H       -0.36614332       0.46002222       1.14903354
H       -0.57125383      -1.86141286      -0.14744814
H       -2.35824277      -0.66570458      -1.38365656
H       -1.21096537       0.61689434      -1.99339535
14
Frame=4 idx=002444 GeodesicLength=0.38276555610181484 rxn_smarts="[C:1]([C:2]([N:3]([C:4]([C:5]#[N:6])([H:13])[H:14])[H:12])([H:10])[H:11])([H:7])([H:8])[H:9]>>[C:1](/[C:2](=[N:3]/[H:12])[H:10])([H:7])([H:8])[H:9].[C:4](=[C:5]=[N:6][H:11])([H:13])[H:14]"
C        1.82044515       0.33479894       0.26625022
C        0.62972615      -0.52391888       0.59671295
N       -0.05631000      -1.03789267      -0.42697467
C       -1.62874717       0.09935778      -1.14706983
C       -1.86341004       0.83378929      -0.01674666
N       -1.45483978       1.15534894       1.05980480
H        1.57065388       1.01629352      -0.54899938
H        2.66339617      -0.28498728      -0.04973009
H        2.13868438       0.92524710       1.12638303
H        0.67676383      -1.10394031       1.52218751
H       -0.37221423       0.46753902       1.14934524
H       -0.55147289      -1.87274364      -0.12778319
H       -2.35961634      -0.65400709      -1.41718466
H       -1.21305911       0.64511530      -1.98619527
14
Frame=5 idx=002444 GeodesicLength=0.4782599856273836 rxn_smarts="[C:1]([C:2]([N:3]([C:4]([C:5]#[N:6])([H:13])[H:14])[H:12])([H:10])[H:11])([H:7])([H:8])[H:9]>>[C:1](/[C:2](=[N:3]/[H:12])[H:10])([H:7])([H:8])[H:9].[C:4](=[C:5]=[N:6][H:11])([H:13])[H:14]"
C        1.83197478       0.32750940       0.26039223
C        0.63823885      -0.51839508       0.60993771
N       -0.05893360      -1.03550532      -0.40621287
C       -1.63313268       0.10596400      -1.15451168
C       -1.89860443       0.82573096      -0.01812876
N       -1.50238977       1.14425130       1.06309458
H        1.57840195       1.00404584      -0.55783301
H        2.66744900      -0.30203913      -0.05637674
H        2.16320379       0.92220469       1.11275053
H        0.69776717      -1.09891950       1.53481645
H       -0.37835308       0.47611343       1.14925028
H       -0.53053643      -1.88407942      -0.10759180
H       -2.35985003      -0.64134581      -1.45176035
H       -1.21523553       0.67446463      -1.97782658
14
Frame=6 idx=002444 GeodesicLength=0.5736621983792878 rxn_smarts="[C:1]([C:2]([N:3]([C:4]([C:5]#[N:6])([H:13])[H:14])[H:12])([H:10])[H:11])([H:7])([H:8])[H:9]>>[C:1](/[C:2](=[N:3]/[H:12])[H:10])([H:7])([H:8])[H:9].[C:4](=[C:5]=[N:6][H:11])([H:13])[H:14]"
C        1.84367591       0.31972494       0.25414145
C        0.64671866      -0.51212444       0.62359090
N       -0.06186270      -1.03287253      -0.38445975
C       -1.63734582       0.11309207      -1.16187286
C       -1.93473358       0.81671395      -0.01978974
N       -1.55179036       1.13110976       1.06658858
H        1.58642992       0.99089993      -0.56736288
H        2.67112625      -0.32025192      -0.06299842
H        2.18840801       0.91889589       1.09806160
H        0.71881287      -1.09288671       1.54788286
H       -0.38460328       0.48580170       1.14869386
H       -0.50827666      -1.89535336      -0.08699637
H       -2.35889098      -0.62766792      -1.48724849
H       -1.21766824       0.70491863      -1.96823074
14
Frame=7 idx=002444 GeodesicLength=0.668970802123295 rxn_smarts="[C:1]([C:2]([N:3]([C:4]([C:5]#[N:6])([H:13])[H:14])[H:12])([H:10])[H:11])([H:7])([H:8])[H:9]>>[C:1](/[C:2](=[N:3]/[H:12])[H:10])([H:7])([H:8])[H:9].[C:4](=[C:5]=[N:6][H:11])([H:13])[H:14]"
C        1.85554010       0.31141255       0.24755061
C        0.65515910      -0.50505326       0.63765514
N       -0.06507802      -1.02994597      -0.36172814
C       -1.64144097       0.12074618      -1.16910613
C       -1.97172941       0.80675590      -0.02181105
N       -1.60288225       1.11596520       1.07011058
H        1.59475497       0.97682512      -0.57753511
H        2.67439542      -0.33966993      -0.06948512
H        2.21426778       0.91524951       1.08235854
H        0.73984370      -1.08581152       1.56136029
H       -0.39102216       0.49658807       1.14766139
H       -0.48447381      -1.90649980      -0.06621893
H       -2.35675776      -0.61294168      -1.52341104
H       -1.22057669       0.73637964      -1.95740102
14
Frame=8 idx=002444 GeodesicLength=0.7641456563904135 rxn_smarts="[C:1]([C:2]([N:3]([C:4]([C:5]#[N:6])([H:13])[H:14])[H:12])([H:10])[H:11])([H:7])([H:8])[H:9]>>[C:1](/[C:2](=[N:3]/[H:12])[H:10])([H:7])([H:8])[H:9].[C:4](=[C:5]=[N:6][H:11])([H:13])[H:14]"
C        1.86753328       0.30254804       0.24065597
C        0.66356323      -0.49714858       0.65211869
N       -0.06856801      -1.02670749      -0.33800780
C       -1.64544089       0.12893509      -1.17617550
C       -2.00949481       0.79587034      -0.02427912
N       -1.65548160       1.09888319       1.07348792
H        1.60332589       0.96178129      -0.58830510
H        2.67720820      -0.36029612      -0.07574547
H        2.24073057       0.91119953       1.06565857
H        0.76083924      -1.07767765       1.57522892
H       -0.39767940       0.50838943       1.14618211
H       -0.45894725      -1.91741885      -0.04543656
H       -2.35345940      -0.59710627      -1.56004199
H       -1.22412907       0.76874804      -1.94534064
14
Frame=9 idx=002444 GeodesicLength=0.8589385936028635 rxn_smarts="[C:1]([C:2]([N:3]([C:4]([C:5]#[N:6])([H:13])[H:14])[H:12])([H:10])[H:11])([H:7])([H:8])[H:9]>>[C:1](/[C:2](=[N:3]/[H:12])[H:10])([H:7])([H:8])[H:9].[C:4](=[C:5]=[N:6][H:11])([H:13])[H:14]"
C        1.87955934       0.29313761       0.23341920
C        0.67195877      -0.48838799       0.66694453
N       -0.07233370      -1.02317896      -0.31324483
C       -1.64925673       0.13771583      -1.18309975
C       -2.04789179       0.78401967      -0.02725575
N       -1.70938578       1.07973875       1.07664833
H        1.61195080       0.94574540      -0.59968924
H        2.67948052      -0.38203233      -0.08178269
H        2.26770643       0.90671384       1.04787337
H        0.78187301      -1.06842848       1.58947275
H       -0.40465558       0.52106019       1.14436526
H       -0.43190823      -1.92805997      -0.02450787
H       -2.34887842      -0.58008028      -1.59712026
H       -1.22821865       0.80203671      -1.93202305
14
Frame=10 idx=002444 GeodesicLength=0.9535248677900169 rxn_smarts="[C:1]([C:2]([N:3]([C:4]([C:5]#[N:6])([H:13])[H:14])[H:12])([H:10])[H:11])([H:7])([H:8])[H:9]>>[C:1](/[C:2](=[N:3]/[H:12])[H:10])([H:7])([H:8])[H:9].[C:4](=[C:5]=[N:6][H:11])([H:13])[H:14]"
C        1.89153380       0.28316513       0.22587350
C        0.68033617      -0.47881021       0.68216471
N       -0.07638654      -1.01942992      -0.28736379
C       -1.65287757       0.14707874      -1.18979630
C       -2.08676038       0.77133303      -0.03086894
N       -1.76445837       1.05884160       1.07932530
H        1.62047732       0.92868703      -0.61163312
H        2.68112111      -0.40487489      -0.08756762
H        2.29508420       0.90176900       1.02901991
H        0.80294251      -1.05813502       1.60409948
H       -0.41200687       0.53439495       1.14234683
H       -0.40297519      -1.93830307      -0.00378795
H       -2.34303735      -0.56176528      -1.63435383
H       -1.23299284       0.83604890      -1.91745817
14
Frame=11 idx=002444 GeodesicLength=1.0478456070088955 rxn_smarts="[C:1]([C:2]([N:3]([C:4]([C:5]#[N:6])([H:13])[H:14])[H:12])([H:10])[H:11])([H:7])([H:8])[H:9]>>[C:1](/[C:2](=[N:3]/[H:12])[H:10])([H:7])([H:8])[H:9].[C:4](=[C:5]=[N:6][H:11])([H:13])[H:14]"
C        1.90330907       0.27263788       0.21797650
C        0.68870157      -0.46845730       0.69780547
N       -0.08076848      -1.01556443      -0.26022209
C       -1.65618799       0.15705992      -1.19624249
C       -2.12590904       0.75792601      -0.03522076
N       -1.82058390       1.03627457       1.08138484
H        1.62861230       0.91057341      -0.62414891
H        2.68200397      -0.42872811      -0.09316750
H        2.32272204       0.89637549       1.00899205
H        0.82413577      -1.04682273       1.61913175
H       -0.41979294       0.54816251       1.14034397
H       -0.37210266      -1.94805924       0.01663689
H       -2.33585471      -0.54206000      -1.67163373
H       -1.23828501       0.87068202      -1.90163599
14
Frame=12 idx=002444 GeodesicLength=1.1418914087923273 rxn_smarts="[C:1]([C:2]([N:3]([C:4]([C:5]#[N:6])([H:13])[H:14])[H:12])([H:10])[H:11])([H:7])([H:8])[H:9]>>[C:1](/[C:2](=[N:3]/[H:12])[H:10])([H:7])([H:8])[H:9].[C:4](=[C:5]=[N:6][H:11])([H:13])[H:14]"
C        1.91472442       0.26156227       0.20963789
C        0.69707793      -0.45736941       0.71388054
N       -0.08552680      -1.01170832      -0.23164226
C       -1.65901136       0.16772413      -1.20240899
C       -2.16518188       0.74384193      -0.04041113
N       -1.87776908       1.01198935       1.08272118
H        1.63602420       0.89133567      -0.63730628
H        2.68198654      -0.45351160      -0.09868388
H        2.35047250       0.89056832       0.98759876
H        0.84558317      -1.03447233       1.63459676
H       -0.42804414       0.56214771       1.13857919
H       -0.33939038      -1.95722443       0.03685686
H       -2.32709562      -0.52081324      -1.70895719
H       -1.24384952       0.90592996      -1.88446145
14
Frame=13 idx=002444 GeodesicLength=1.2356348184020063 rxn_smarts="[C:1]([C:2]([N:3]([C:4]([C:5]#[N:6])([H:13])[H:14])[H:12])([H:10])[H:11])([H:7])([H:8])[H:9]>>[C:1](/[C:2](=[N:3]/[H:12])[H:10])([H:7])([H:8])[H:9].[C:4](=[C:5]=[N:6][H:11])([H:13])[H:14]"
C        1.92560780       0.24993839       0.20078168
C        0.70547702      -0.44559100       0.73042626
N       -0.09072124      -1.00797744      -0.20140948
C       -1.66118539       0.17910828      -1.20825709
C       -2.20439841       0.72920734      -0.04655913
N       -1.93601403       0.98599177       1.08321575
H        1.64237135       0.87090362      -0.65115423
H        2.68092349      -0.47914581      -0.10420383
H        2.37817515       0.88437403       0.96466159
H        0.86739623      -1.02108273       1.65053033
H       -0.43678261       0.57615274       1.13730763
H       -0.30482987      -1.96565610       0.05676498
H       -2.31658998      -0.49792495      -1.74622612
H       -1.24942951       0.94170187      -1.86587835
14
Frame=14 idx=002444 GeodesicLength=1.329086357519772 rxn_smarts="[C:1]([C:2]([N:3]([C:4]([C:5]#[N:6])([H:13])[H:14])[H:12])([H:10])[H:11])([H:7])([H:8])[H:9]>>[C:1](/[C:2](=[N:3]/[H:12])[H:10])([H:7])([H:8])[H:9].[C:4](=[C:5]=[N:6][H:11])([H:13])[H:14]"
C        1.93581116       0.23776829       0.19128707
C        0.71394229      -0.43314186       0.74742420
N       -0.09637397      -1.00447290      -0.16934328
C       -1.66250223       0.19128877      -1.21374026
C       -2.24344735       0.71400211      -0.05378120
N       -1.99542585       0.95808080       1.08273911
H        1.64733772       0.84918923      -0.66578106
H        2.67869274      -0.50555892      -0.10982503
H        2.40568454       0.87782209       0.93993216
H        0.88972565      -1.00657801       1.66693440
H       -0.44599387       0.59003346       1.13673925
H       -0.26869117      -1.97327524       0.07659081
H       -2.30399727      -0.47321879      -1.78346507
H       -1.25476240       0.97806099      -1.84571110
14
Frame=15 idx=002444 GeodesicLength=1.4222332075175035 rxn_smarts="[C:1]([C:2]([N:3]([C:4]([C:5]#[N:6])([H:13])[H:14])[H:12])([H:10])[H:11])([H:7])([H:8])[H:9]>>[C:1](/[C:2](=[N:3]/[H:12])[H:10])([H:7])([H:8])[H:9].[C:4](=[C:5]=[N:6][H:11])([H:13])[H:14]"
C        1.94521272       0.22504812       0.18109027
C        0.72251509      -0.42003977       0.76485670
N       -0.10248617      -1.00124910      -0.13528176
C       -1.66281127       0.20430367      -1.21880172
C       -2.28219181       0.69827193      -0.06221065
N       -2.05605785       0.92812549       1.08111749
H        1.65067655       0.82612083      -0.68121982
H        2.67520576      -0.53269562      -0.11558829
H        2.43286488       0.87091258       0.91324637
H        0.91267638      -0.99091205       1.68379538
H       -0.45564210       0.60368698       1.13707067
H       -0.23114470      -1.97993775       0.09634322
H       -2.28910596      -0.44659948      -1.82055158
H       -1.25971150       1.01496418      -1.82386628
14
Frame=16 idx=002444 GeodesicLength=1.5150780601544105 rxn_smarts="[C:1]([C:2]([N:3]([C:4]([C:5]#[N:6])([H:13])[H:14])[H:12])([H:10])[H:11])([H:7])([H:8])[H:9]>>[C:1](/[C:2](=[N:3]/[H:12])[H:10])([H:7])([H:8])[H:9].[C:4](=[C:5]=[N:6][H:11])([H:13])[H:14]"
C        1.95370672       0.21176504       0.17009981
C        0.73124798      -0.40628508       0.78267692
N       -0.10903264      -0.99834571      -0.09907595
C       -1.66193659       0.21821325      -1.22337447
C       -2.32054301       0.68195227      -0.07197453
N       -2.11799652       0.89585386       1.07816650
H        1.65216618       0.80158472      -0.69754817
H        2.67040219      -0.56051205      -0.12150942
H        2.45958324       0.86366497       0.88437940
H        0.93636833      -0.97398849       1.70108262
H       -0.46567651       0.61705872       1.13845820
H       -0.19253506      -1.98551502       0.11620858
H       -2.27159978      -0.41791992      -1.85743955
H       -1.26415453       1.05247344      -1.80014995
