13
Frame=0 idx=000305 GeodesicLength=0.0 rxn_smarts="[C:1]([C@:2]1([H:9])[O:3][C@@:4]1([C:5]([H:11])([H:12])[H:13])[H:10])([H:6])([H:7])[H:8]>>[C:1]([C@@:2]1([H:9])[O:3][C:4]1=[C:5]([H:12])[H:13])([H:6])([H:7])[H:8].[H:10][H:11]"
C       -1.65591307       0.60723436       0.20383223
C       -0.69832461      -0.54120637       0.27526569
O       -0.24195222      -1.09356938      -0.99055733
C        0.65730309      -0.42375159      -0.21928229
C        1.64700513       0.55110875      -0.42533283
H       -1.72245482       1.09138730       1.17998648
H       -2.65058647       0.24925419      -0.06648254
H       -1.33353743       1.34026498      -0.53331899
H       -0.90171470      -1.30716295       1.01705049
H        1.28497766      -1.66630891       0.44432798
H        1.80932660      -0.78225652       0.33733673
H        1.54183645       1.49642225       0.08689039
H        2.26403435       0.47858393      -1.30971598
13
Frame=1 idx=000305 GeodesicLength=0.0956595091822637 rxn_smarts="[C:1]([C@:2]1([H:9])[O:3][C@@:4]1([C:5]([H:11])([H:12])[H:13])[H:10])([H:6])([H:7])[H:8]>>[C:1]([C@@:2]1([H:9])[O:3][C:4]1=[C:5]([H:12])[H:13])([H:6])([H:7])[H:8].[H:10][H:11]"
C       -1.66342167       0.61066504       0.20373562
C       -0.70411876      -0.53600304       0.28457859
O       -0.24740568      -1.09052711      -0.97934406
C        0.65340896      -0.42322664      -0.20405966
C        1.63786822       0.55368854      -0.42078664
H       -1.72995105       1.10480467       1.17486096
H       -2.65812825       0.24911096      -0.06184870
H       -1.34383225       1.33705665      -0.54127355
H       -0.91145227      -1.29996536       1.02750161
H        1.29264187      -1.68654282       0.43170213
H        1.85556610      -0.81481157       0.28898427
H        1.51608831       1.51108489       0.06560496
H        2.30273647       0.48466578      -1.26965552
13
Frame=2 idx=000305 GeodesicLength=0.1911368217737744 rxn_smarts="[C:1]([C@:2]1([H:9])[O:3][C@@:4]1([C:5]([H:11])([H:12])[H:13])[H:10])([H:6])([H:7])[H:8]>>[C:1]([C@@:2]1([H:9])[O:3][C:4]1=[C:5]([H:12])[H:13])([H:6])([H:7])[H:8].[H:10][H:11]"
C       -1.67068454       0.61423396       0.20300284
C       -0.71004659      -0.53078619       0.29453688
O       -0.25240243      -1.08863776      -0.96672194
C        0.64967365      -0.42325231      -0.18754098
C        1.62968443       0.55487899      -0.41494458
H       -1.73766995       1.11885311       1.16868104
H       -2.66534241       0.24924366      -0.05821829
H       -1.35317109       1.33336769      -0.55000364
H       -0.92160701      -1.29209014       1.03917089
H        1.30142085      -1.70546503       0.42132913
H        1.90058047      -0.84878943       0.23348629
H        1.49138782       1.52345267       0.04535209
H        2.33817680       0.49499080      -1.22812972
13
Frame=3 idx=000305 GeodesicLength=0.28642934599530234 rxn_smarts="[C:1]([C@:2]1([H:9])[O:3][C@@:4]1([C:5]([H:11])([H:12])[H:13])[H:10])([H:6])([H:7])[H:8]>>[C:1]([C@@:2]1([H:9])[O:3][C:4]1=[C:5]([H:12])[H:13])([H:6])([H:7])[H:8].[H:10][H:11]"
C       -1.67774751       0.61789729       0.20170614
C       -0.71613067      -0.52555666       0.30511569
O       -0.25702648      -1.08786037      -0.95274452
C        0.64600563      -0.42370078      -0.16985630
C        1.62249358       0.55472885      -0.40774197
H       -1.74559811       1.13344792       1.16152255
H       -2.67229087       0.24960093      -0.05546963
H       -1.36166727       1.32918709      -0.55941920
H       -0.93210642      -1.28356585       1.05201660
H        1.31192583      -1.72274476       0.41289714
H        1.94330080      -0.88372763       0.17070503
H        1.46769021       1.53364593       0.02604693
H        2.37115127       0.50864803      -1.18477848
13
Frame=4 idx=000305 GeodesicLength=0.38154014783826395 rxn_smarts="[C:1]([C@:2]1([H:9])[O:3][C@@:4]1([C:5]([H:11])([H:12])[H:13])[H:10])([H:6])([H:7])[H:8]>>[C:1]([C@@:2]1([H:9])[O:3][C:4]1=[C:5]([H:12])[H:13])([H:6])([H:7])[H:8].[H:10][H:11]"
C       -1.68474218       0.62158035       0.19998609
C       -0.72239043      -0.52027485       0.31629027
O       -0.26144017      -1.08804958      -0.93752065
C        0.64227407      -0.42434829      -0.15123118
C        1.61628452       0.55333153      -0.39944874
H       -1.75382917       1.14842218       1.15355399
H       -2.67909945       0.25002249      -0.05338396
H       -1.36959725       1.32451589      -0.56935118
H       -0.94279563      -1.27441481       1.06598574
H        1.32475307      -1.73806293       0.40563098
H        1.98260056      -0.91884971       0.10100891
H        1.44509196       1.54185465       0.00720362
H        2.40289010       0.52427308      -1.13872390
13
Frame=5 idx=000305 GeodesicLength=0.4765033861322072 rxn_smarts="[C:1]([C@:2]1([H:9])[O:3][C@@:4]1([C:5]([H:11])([H:12])[H:13])[H:10])([H:6])([H:7])[H:8]>>[C:1]([C@@:2]1([H:9])[O:3][C:4]1=[C:5]([H:12])[H:13])([H:6])([H:7])[H:8].[H:10][H:11]"
C       -1.69169763       0.62524524       0.19805636
C       -0.72882254      -0.51494724       0.32802629
O       -0.26578498      -1.08900021      -0.92122318
C        0.63840376      -0.42508516      -0.13183628
C        1.61103294       0.55074970      -0.39028077
H       -1.76226062       1.16365930       1.14502178
H       -2.68583210       0.25048065      -0.05163872
H       -1.37716446       1.31937983      -0.57958237
H       -0.95359440      -1.26478109       1.08091388
H        1.34038422      -1.75146051       0.39828571
H        2.01760977      -0.95325220       0.02542341
H        1.42310472       1.54848907      -0.01261407
H        2.43462135       0.54052262      -1.08855204
13
Frame=6 idx=000305 GeodesicLength=0.571336460679138 rxn_smarts="[C:1]([C@:2]1([H:9])[O:3][C@@:4]1([C:5]([H:11])([H:12])[H:13])[H:10])([H:6])([H:7])[H:8]>>[C:1]([C@@:2]1([H:9])[O:3][C:4]1=[C:5]([H:12])[H:13])([H:6])([H:7])[H:8].[H:10][H:11]"
C       -1.69866415       0.62885532       0.19604996
C       -0.73541156      -0.50954552       0.34035719
O       -0.27021858      -1.09062044      -0.90390203
C        0.63433965      -0.42584705      -0.11180581
C        1.60656679       0.54709428      -0.38068621
H       -1.77085100       1.17914999       1.13603170
H       -2.69255875       0.25090004      -0.04998275
H       -1.38456329       1.31373392      -0.59003003
H       -0.96438558      -1.25466341       1.09682797
H        1.35912004      -1.76304113       0.38960136
H        2.04787090      -0.98607302      -0.05519633
H        1.40156785       1.55370719      -0.03447975
H        2.46718768       0.55634982      -1.03278528
13
Frame=7 idx=000305 GeodesicLength=0.6659267949651868 rxn_smarts="[C:1]([C@:2]1([H:9])[O:3][C@@:4]1([C:5]([H:11])([H:12])[H:13])[H:10])([H:6])([H:7])[H:8]>>[C:1]([C@@:2]1([H:9])[O:3][C:4]1=[C:5]([H:12])[H:13])([H:6])([H:7])[H:8].[H:10][H:11]"
C       -1.70594330       0.63228101       0.19420759
C       -0.74208965      -0.50387607       0.35332451
O       -0.27498044      -1.09267552      -0.88564612
C        0.62997689      -0.42625786      -0.09148834
C        1.60246258       0.54267160      -0.37237777
H       -1.78011262       1.19446245       1.12696561
H       -2.69945593       0.25085796      -0.04821464
H       -1.39224555       1.30767633      -0.60029487
H       -0.97486354      -1.24397604       1.11373018
H        1.38079971      -1.77256019       0.37848535
H        2.07315779      -1.01613132      -0.13990297
H        1.38123318       1.55765269      -0.05962787
H        2.50206089       0.56987495      -0.96916067
13
Frame=8 idx=000305 GeodesicLength=0.7603473624444164 rxn_smarts="[C:1]([C@:2]1([H:9])[O:3][C@@:4]1([C:5]([H:11])([H:12])[H:13])[H:10])([H:6])([H:7])[H:8]>>[C:1]([C@@:2]1([H:9])[O:3][C:4]1=[C:5]([H:12])[H:13])([H:6])([H:7])[H:8].[H:10][H:11]"
C       -1.71313343       0.63564892       0.19245190
C       -0.74879184      -0.49804987       0.36707938
O       -0.28016531      -1.09553488      -0.86620295
C        0.62543366      -0.42685039      -0.07071329
C        1.59848650       0.53732206      -0.36497093
H       -1.78893477       1.21049427       1.11731289
H       -2.70637323       0.25073898      -0.04576085
H       -1.40006018       1.30070191      -0.61106561
H       -0.98503069      -1.23249836       1.13204879
H        1.40576331      -1.78069802       0.36341995
H        2.09367314      -1.04331429      -0.22928054
H        1.36052757       1.56022693      -0.08961771
H        2.53860526       0.58181275      -0.89470103
13
Frame=9 idx=000305 GeodesicLength=0.8545479450667192 rxn_smarts="[C:1]([C@:2]1([H:9])[O:3][C@@:4]1([C:5]([H:11])([H:12])[H:13])[H:10])([H:6])([H:7])[H:8]>>[C:1]([C@@:2]1([H:9])[O:3][C:4]1=[C:5]([H:12])[H:13])([H:6])([H:7])[H:8].[H:10][H:11]"
C       -1.72061803       0.63881432       0.19102207
C       -0.75530927      -0.49171718       0.38179792
O       -0.28626162      -1.09937708      -0.84544294
C        0.62063048      -0.42719921      -0.05027784
C        1.59393843       0.53136784      -0.36180594
H       -1.79776165       1.22713166       1.10726892
H       -2.71359957       0.24988207      -0.04196342
H       -1.40878367       1.29264143      -0.62225295
H       -0.99406936      -1.21964437       1.15238912
H        1.43377686      -1.78687182       0.34311342
H        2.10927877      -1.06667065      -0.32426248
H        1.34045869       1.56146232      -0.12660546
H        2.57831994       0.59018066      -0.80298043
13
Frame=10 idx=000305 GeodesicLength=0.9485177811026694 rxn_smarts="[C:1]([C@:2]1([H:9])[O:3][C@@:4]1([C:5]([H:11])([H:12])[H:13])[H:10])([H:6])([H:7])[H:8]>>[C:1]([C@@:2]1([H:9])[O:3][C:4]1=[C:5]([H:12])[H:13])([H:6])([H:7])[H:8].[H:10][H:11]"
C       -1.72772589       0.64197385       0.18975405
C       -0.76130441      -0.48492562       0.39767085
O       -0.29357179      -1.10497968      -0.82290507
C        0.61587384      -0.42793015      -0.03043220
C        1.58846107       0.52454598      -0.36415005
H       -1.80490083       1.24543102       1.09608072
H       -2.72088448       0.24884518      -0.03600545
H       -1.41814703       1.28285853      -0.63483419
H       -1.00139786      -1.20477704       1.17568504
H        1.46551420      -1.79165161       0.31517683
H        2.12064330      -1.08530199      -0.42609374
H        1.32012860       1.56083973      -0.17302803
H        2.61731128       0.59507180      -0.68691877
13
Frame=11 idx=000305 GeodesicLength=1.0412595144282293 rxn_smarts="[C:1]([C@:2]1([H:9])[O:3][C@@:4]1([C:5]([H:11])([H:12])[H:13])[H:10])([H:6])([H:7])[H:8]>>[C:1]([C@@:2]1([H:9])[O:3][C:4]1=[C:5]([H:12])[H:13])([H:6])([H:7])[H:8].[H:10][H:11]"
C       -1.73435425       0.64489715       0.18932403
C       -0.76572462      -0.47695407       0.41428144
O       -0.30090238      -1.11118501      -0.79920626
C        0.61177697      -0.42751527      -0.01197531
C        1.58293855       0.51704968      -0.37414491
H       -1.81239210       1.26317038       1.08550372
H       -2.72709545       0.24677653      -0.02917593
H       -1.42739639       1.27272744      -0.64617063
H       -1.00551162      -1.18758579       1.20086459
H        1.49932128      -1.79362694       0.27971188
H        2.12891746      -1.09829382      -0.53202283
H        1.30227648       1.55876876      -0.23371741
H        2.64814608       0.59177098      -0.54327238
13
Frame=12 idx=000305 GeodesicLength=1.1356109446110318 rxn_smarts="[C:1]([C@:2]1([H:9])[O:3][C@@:4]1([C:5]([H:11])([H:12])[H:13])[H:10])([H:6])([H:7])[H:8]>>[C:1]([C@@:2]1([H:9])[O:3][C:4]1=[C:5]([H:12])[H:13])([H:6])([H:7])[H:8].[H:10][H:11]"
C       -1.73941658       0.64797535       0.18749678
C       -0.76950481      -0.46899572       0.43158345
O       -0.30630917      -1.11892515      -0.77329884
C        0.60895406      -0.42778269       0.00882808
C        1.57815926       0.50882128      -0.38327165
H       -1.81894021       1.28170097       1.07270972
H       -2.73178948       0.24538791      -0.02474262
H       -1.43320686       1.26197291      -0.65861350
H       -1.00980166      -1.16920971       1.22747319
H        1.53587010      -1.79444574       0.23961770
H        2.13809003      -1.10393371      -0.63602976
H        1.29064871       1.55405865      -0.28697252
H        2.65724661       0.58337565      -0.40478005
13
Frame=13 idx=000305 GeodesicLength=1.2313703299679233 rxn_smarts="[C:1]([C@:2]1([H:9])[O:3][C@@:4]1([C:5]([H:11])([H:12])[H:13])[H:10])([H:6])([H:7])[H:8]>>[C:1]([C@@:2]1([H:9])[O:3][C:4]1=[C:5]([H:12])[H:13])([H:6])([H:7])[H:8].[H:10][H:11]"
C       -1.74389269       0.65065117       0.18313487
C       -0.77342931      -0.46092158       0.44986839
O       -0.30869900      -1.12754882      -0.74431291
C        0.60709919      -0.42817265       0.03434427
C        1.57402500       0.50047851      -0.38739312
H       -1.82755735       1.29995935       1.05656945
H       -2.73520454       0.24357595      -0.02556413
H       -1.43526688       1.25037363      -0.67240588
H       -1.01612501      -1.14980693       1.25502443
H        1.57374431      -1.79293075       0.19955268
H        2.14721586      -1.10317347      -0.73599289
H        1.28726366       1.54819896      -0.31658979
H        2.65082676       0.56931665      -0.29623537
13
Frame=14 idx=000305 GeodesicLength=1.3275890815562428 rxn_smarts="[C:1]([C@:2]1([H:9])[O:3][C@@:4]1([C:5]([H:11])([H:12])[H:13])[H:10])([H:6])([H:7])[H:8]>>[C:1]([C@@:2]1([H:9])[O:3][C:4]1=[C:5]([H:12])[H:13])([H:6])([H:7])[H:8].[H:10][H:11]"
C       -1.74804733       0.65284529       0.17702312
C       -0.77792800      -0.45295823       0.46911694
O       -0.30866778      -1.13677060      -0.71257031
C        0.60581441      -0.42889502       0.06460006
C        1.57007352       0.49173389      -0.38644498
H       -1.83833739       1.31743073       1.03819546
H       -2.73767666       0.24142798      -0.03121969
H       -1.43394432       1.23826194      -0.68650243
H       -1.02521376      -1.12995896       1.28305813
H        1.61171974      -1.78938961       0.15994881
H        2.15536070      -1.09696177      -0.83264027
H        1.28841114       1.54183261      -0.32899883
H        2.63843574       0.55140175      -0.21356601
13
Frame=15 idx=000305 GeodesicLength=1.424017105895209 rxn_smarts="[C:1]([C@:2]1([H:9])[O:3][C@@:4]1([C:5]([H:11])([H:12])[H:13])[H:10])([H:6])([H:7])[H:8]>>[C:1]([C@@:2]1([H:9])[O:3][C:4]1=[C:5]([H:12])[H:13])([H:6])([H:7])[H:8].[H:10][H:11]"
C       -1.75166903       0.65453669       0.16975117
C       -0.78283264      -0.44509074       0.48926389
O       -0.30707494      -1.14665702      -0.67840799
C        0.60486964      -0.43010857       0.09853988
C        1.56597830       0.48211717      -0.38223388
H       -1.85006939       1.33443201       1.01797360
H       -2.73924500       0.23891403      -0.03989374
H       -1.42998113       1.22531741      -0.70087093
H       -1.03642225      -1.10951853       1.31173501
H        1.64879058      -1.78412101       0.11954527
H        2.16212039      -1.08551359      -0.92768615
H        1.29176848       1.53469072      -0.33168537
H        2.62376697       0.53100144      -0.14603075
13
Frame=16 idx=000305 GeodesicLength=1.5206719257615477 rxn_smarts="[C:1]([C@:2]1([H:9])[O:3][C@@:4]1([C:5]([H:11])([H:12])[H:13])[H:10])([H:6])([H:7])[H:8]>>[C:1]([C@@:2]1([H:9])[O:3][C:4]1=[C:5]([H:12])[H:13])([H:6])([H:7])[H:8].[H:10][H:11]"
C       -1.75495561       0.65554059       0.16140362
C       -0.78794621      -0.43705099       0.51037038
O       -0.30422296      -1.15705767      -0.64178865
C        0.60422122      -0.43141333       0.13569133
C        1.56184202       0.47173898      -0.37547327
H       -1.86257638       1.35105357       0.99572237
H       -2.74009984       0.23540102      -0.05069223
H       -1.42416984       1.21102163      -0.71581219
H       -1.04917444      -1.08809565       1.34127636
H        1.68436478      -1.77683765       0.07799646
H        2.16666158      -1.06870687      -1.02260389
H        1.29729429       1.52706533      -0.32722008
H        2.60876141       0.50734104      -0.08887022
