19
Frame=0 idx=011360 GeodesicLength=0.0 rxn_smarts="[C:1]([C:2]([C:3]([C:4]([C:5]([H:16])([H:17])[H:18])([H:14])[H:15])([C:6](=[O:7])[H:19])[H:13])([H:11])[H:12])([H:8])([H:9])[H:10]>>[C-:6]#[O+:7].[C:1]([C:2]([C:3]([C:4]([C:5]([H:16])([H:17])[H:18])([H:14])[H:19])([H:13])[H:15])([H:11])[H:12])([H:8])([H:9])[H:10]"
C       -2.47922591      -0.82061888       0.35921707
C       -1.14216756      -0.98917051      -0.34679276
C       -0.04448428      -0.15984778       0.29002069
C        1.26769077      -0.05483336      -0.40298436
C        2.43699465       0.64277648       0.24803469
C       -0.30143985       1.67050259      -0.51727145
O       -0.21398203       2.73149592      -0.04813188
H       -3.26000231      -1.39466103      -0.14143918
H       -2.42508109      -1.16498383       1.39463394
H       -2.78187625       0.22791099       0.36770677
H       -0.87039028      -2.05049105      -0.36245292
H       -1.23201241      -0.68057063      -1.39355970
H       -0.13882625       0.15769989       1.32493620
H        1.44780469      -0.75147323      -1.21568439
H        0.89934643      -1.00640733       0.50662339
H        3.25331838       0.73732544      -0.46682793
H        2.82345774       0.11426407       1.12287427
H        2.15441218       1.64993657       0.56718792
H        0.60646341       1.14114564      -1.28609036
19
Frame=1 idx=011360 GeodesicLength=0.07106780400056131 rxn_smarts="[C:1]([C:2]([C:3]([C:4]([C:5]([H:16])([H:17])[H:18])([H:14])[H:15])([C:6](=[O:7])[H:19])[H:13])([H:11])[H:12])([H:8])([H:9])[H:10]>>[C-:6]#[O+:7].[C:1]([C:2]([C:3]([C:4]([C:5]([H:16])([H:17])[H:18])([H:14])[H:19])([H:13])[H:15])([H:11])[H:12])([H:8])([H:9])[H:10]"
C       -2.47815306      -0.82445495       0.36242081
C       -1.14256138      -0.98310959      -0.34859045
C       -0.04433319      -0.15291396       0.28676676
C        1.27079708      -0.05660737      -0.40393816
C        2.44248689       0.63579395       0.24944133
C       -0.31447817       1.68515142      -0.52748585
O       -0.23817944       2.73914315      -0.04175219
H       -3.25747774      -1.40217584      -0.13636847
H       -2.41809012      -1.17040471       1.39698430
H       -2.78858534       0.22183048       0.37449903
H       -0.86638336      -2.04316952      -0.36990269
H       -1.23683424      -0.67441971      -1.39495373
H       -0.14001490       0.17261990       1.31914354
H        1.45018397      -0.74875752      -1.22081004
H        0.90042496      -1.01173650       0.50973140
H        3.26768795       0.71444389      -0.45726511
H        2.81411626       0.11316233       1.13417376
H        2.16857512       1.64856704       0.55790785
H        0.61081871       1.13703749      -1.29000208
19
Frame=2 idx=011360 GeodesicLength=0.14207308855050635 rxn_smarts="[C:1]([C:2]([C:3]([C:4]([C:5]([H:16])([H:17])[H:18])([H:14])[H:15])([C:6](=[O:7])[H:19])[H:13])([H:11])[H:12])([H:8])([H:9])[H:10]>>[C-:6]#[O+:7].[C:1]([C:2]([C:3]([C:4]([C:5]([H:16])([H:17])[H:18])([H:14])[H:19])([H:13])[H:15])([H:11])[H:12])([H:8])([H:9])[H:10]"
C       -2.47691463      -0.82807808       0.36558985
C       -1.14288175      -0.97697273      -0.35037854
C       -0.04405952      -0.14594254       0.28344861
C        1.27399592      -0.05848657      -0.40489837
C        2.44803860       0.62866085       0.25087268
C       -0.32775585       1.69988561      -0.53779487
O       -0.26362114       2.74637473      -0.03519516
H       -3.25479328      -1.40944007      -0.13130608
H       -2.41094470      -1.17551190       1.39928512
H       -2.79503270       0.21590986       0.38122468
H       -0.86240460      -2.03574281      -0.37727757
H       -1.24156703      -0.66825942      -1.39632928
H       -0.14102858       0.18754202       1.31321660
H        1.45268080      -0.74604578      -1.22595838
H        0.90155890      -1.01719963       0.51283833
H        3.28184852       0.69135137      -0.44741894
H        2.80479402       0.11220348       1.14527984
H        2.18292491       1.64686974       0.54861079
H        0.61516211       1.13288186      -1.29380932
19
Frame=3 idx=011360 GeodesicLength=0.21308226955498685 rxn_smarts="[C:1]([C:2]([C:3]([C:4]([C:5]([H:16])([H:17])[H:18])([H:14])[H:15])([C:6](=[O:7])[H:19])[H:13])([H:11])[H:12])([H:8])([H:9])[H:10]>>[C-:6]#[O+:7].[C:1]([C:2]([C:3]([C:4]([C:5]([H:16])([H:17])[H:18])([H:14])[H:19])([H:13])[H:15])([H:11])[H:12])([H:8])([H:9])[H:10]"
C       -2.47553267      -0.83150646       0.36873661
C       -1.14314180      -0.97076851      -0.35216484
C       -0.04366499      -0.13892826       0.28007337
C        1.27729441      -0.06046693      -0.40587082
C        2.45367279       0.62138205       0.25233662
C       -0.34125760       1.71473723      -0.54818972
O       -0.29032324       2.75321131      -0.02850652
H       -3.25197776      -1.41648321      -0.12625079
H       -2.40367314      -1.18033521       1.40156407
H       -2.80123334       0.21014646       0.38790541
H       -0.85847667      -2.02823613      -0.38459826
H       -1.24621797      -0.66208692      -1.39770938
H       -0.14186902       0.20247984       1.30718185
H        1.45529764      -0.74334004      -1.23115394
H        0.90273421      -1.02280969       0.51594998
H        3.29582361       0.66804658      -0.43730095
H        2.79550821       0.11138706       1.15621207
H        2.19750510       1.64486289       0.53931631
H        0.61953223       1.12870796      -1.29753106
19
Frame=4 idx=011360 GeodesicLength=0.28408451124413886 rxn_smarts="[C:1]([C:2]([C:3]([C:4]([C:5]([H:16])([H:17])[H:18])([H:14])[H:15])([C:6](=[O:7])[H:19])[H:13])([H:11])[H:12])([H:8])([H:9])[H:10]>>[C-:6]#[O+:7].[C:1]([C:2]([C:3]([C:4]([C:5]([H:16])([H:17])[H:18])([H:14])[H:19])([H:13])[H:15])([H:11])[H:12])([H:8])([H:9])[H:10]"
C       -2.47399703      -0.83473644       0.37186653
C       -1.14333567      -0.96447896      -0.35395033
C       -0.04314698      -0.13185940       0.27663609
C        1.28069147      -0.06254618      -0.40685242
C        2.45938937       0.61393993       0.25383899
C       -0.35499607       1.72970916      -0.55866585
O       -0.31835421       2.75961593      -0.02173413
H       -3.24901795      -1.42329987      -0.12119326
H       -2.39625320      -1.18488033       1.40381763
H       -2.80718774       0.20453913       0.39455780
H       -0.85458614      -2.02062766      -0.39187677
H       -1.25079097      -0.65587554      -1.39908621
H       -0.14253274       0.21744792       1.30102712
H        1.45803470      -0.74063145      -1.23638939
H        0.90394953      -1.02856067       0.51906324
H        3.30960967       0.64450978      -0.42689813
H        2.78625853       0.11068924       1.16696699
H        2.21232338       1.64252244       0.53003605
H        0.62394203       1.12452298      -1.30116394
19
Frame=5 idx=011360 GeodesicLength=0.35508404345311817 rxn_smarts="[C:1]([C:2]([C:3]([C:4]([C:5]([H:16])([H:17])[H:18])([H:14])[H:15])([C:6](=[O:7])[H:19])[H:13])([H:11])[H:12])([H:8])([H:9])[H:10]>>[C-:6]#[O+:7].[C:1]([C:2]([C:3]([C:4]([C:5]([H:16])([H:17])[H:18])([H:14])[H:19])([H:13])[H:15])([H:11])[H:12])([H:8])([H:9])[H:10]"
C       -2.47230503      -0.83776476       0.37498432
C       -1.14346106      -0.95809452      -0.35573574
C       -0.04250231      -0.12472732       0.27313531
C        1.28418844      -0.06472150      -0.40784240
C        2.46519420       0.60632294       0.25538504
C       -0.36898081       1.74480822      -0.56921624
O       -0.34777809       2.76555454      -0.01492109
H       -3.24591120      -1.42988780      -0.11612788
H       -2.38867808      -1.18914900       1.40604863
H       -2.81289606       0.19909157       0.40119212
H       -0.85072955      -2.01290886      -0.39911947
H       -1.25528707      -0.64961088      -1.40045858
H       -0.14301497       0.23245866       1.29474977
H        1.46089318      -0.73791324      -1.24166485
H        0.90520247      -1.03445158       0.52217650
H        3.32320544       0.62073686      -0.41620893
H        2.77705608       0.11008604       1.17753929
H        2.22739396       1.63983156       0.52079265
H        0.62841046       1.12033907      -1.30470846
19
Frame=6 idx=011360 GeodesicLength=0.42608701991816916 rxn_smarts="[C:1]([C:2]([C:3]([C:4]([C:5]([H:16])([H:17])[H:18])([H:14])[H:15])([C:6](=[O:7])[H:19])[H:13])([H:11])[H:12])([H:8])([H:9])[H:10]>>[C-:6]#[O+:7].[C:1]([C:2]([C:3]([C:4]([C:5]([H:16])([H:17])[H:18])([H:14])[H:19])([H:13])[H:15])([H:11])[H:12])([H:8])([H:9])[H:10]"
C       -2.47045351      -0.84058660       0.37809437
C       -1.14351510      -0.95160577      -0.35752150
C       -0.04172712      -0.11752348       0.26956964
C        1.28778694      -0.06698970      -0.40884044
C        2.47109343       0.59851917       0.25697971
C       -0.38322381       1.76004140      -0.57983244
O       -0.37866511       2.77098730      -0.00810860
H       -3.24265457      -1.43624318      -0.11104921
H       -2.38094121      -1.19314027       1.40826010
H       -2.81835727       0.19380943       0.40781701
H       -0.84690343      -2.00507166      -0.40633139
H       -1.25970620      -0.64327948      -1.40182552
H       -0.14330996       0.24752452       1.28834735
H        1.46387456      -0.73517802      -1.24698129
H        0.90649120      -1.04048194       0.52528742
H        3.33661023       0.59672148      -0.40523263
H        2.76791184       0.10955325       1.18792450
H        2.24273228       1.63677389       0.51160773
H        0.63295682       1.11616966      -1.30816481
19
Frame=7 idx=011360 GeodesicLength=0.49710015887049247 rxn_smarts="[C:1]([C:2]([C:3]([C:4]([C:5]([H:16])([H:17])[H:18])([H:14])[H:15])([C:6](=[O:7])[H:19])[H:13])([H:11])[H:12])([H:8])([H:9])[H:10]>>[C-:6]#[O+:7].[C:1]([C:2]([C:3]([C:4]([C:5]([H:16])([H:17])[H:18])([H:14])[H:19])([H:13])[H:15])([H:11])[H:12])([H:8])([H:9])[H:10]"
C       -2.46843899      -0.84319501       0.38120035
C       -1.14349433      -0.94500349      -0.35930752
C       -0.04081678      -0.11023947       0.26593802
C        1.29148890      -0.06934733      -0.40984634
C        2.47709359       0.59051640       0.25862759
C       -0.39773950       1.77541537      -0.59050426
O       -0.41109153       2.77586654      -0.00133683
H       -3.23924492      -1.44236000      -0.10595228
H       -2.37303682      -1.19684950       1.41045496
H       -2.82356898       0.18870081       0.41443857
H       -0.84310447      -1.99710832      -0.41351542
H       -1.26404677      -0.63686925      -1.40318595
H       -0.14341087       0.26265798       1.28181757
H        1.46698063      -0.73241783      -1.25233993
H        0.90781469      -1.04665168       0.52839316
H        3.34982273       0.57245811      -0.39397076
H        2.75883862       0.10906504       1.19811737
H        2.25835418       1.63333276       0.50250417
H        0.63760061       1.11202886      -1.31153248
19
Frame=8 idx=011360 GeodesicLength=0.5681308151830333 rxn_smarts="[C:1]([C:2]([C:3]([C:4]([C:5]([H:16])([H:17])[H:18])([H:14])[H:15])([C:6](=[O:7])[H:19])[H:13])([H:11])[H:12])([H:8])([H:9])[H:10]>>[C-:6]#[O+:7].[C:1]([C:2]([C:3]([C:4]([C:5]([H:16])([H:17])[H:18])([H:14])[H:19])([H:13])[H:15])([H:11])[H:12])([H:8])([H:9])[H:10]"
C       -2.46625735      -0.84558113       0.38430578
C       -1.14339471      -0.93827799      -0.36109350
C       -0.03976573      -0.10286692       0.26223927
C        1.29529677      -0.07179059      -0.41086032
C        2.48320162       0.58230192       0.26033294
C       -0.41254435       1.79093660      -0.60121931
O       -0.44514158       2.78013584       0.00535523
H       -3.23567895      -1.44822978      -0.10083207
H       -2.36495904      -1.20026963       1.41263590
H       -2.82852727       0.18377580       0.42106215
H       -0.83932948      -1.98901065      -0.42067381
H       -1.26830631      -0.63036807      -1.40453857
H       -0.14330955       0.27787157       1.27515776
H        1.47021359      -0.72962378      -1.25774254
H        0.90917251      -1.05296105       0.53148968
H        3.36284275       0.54793776      -0.38242459
H        2.74984818       0.10859677       1.20811412
H        2.27427709       1.62949180       0.49350220
H        0.64236181       1.10793154      -1.31481033
19
Frame=9 idx=011360 GeodesicLength=0.6391879882553407 rxn_smarts="[C:1]([C:2]([C:3]([C:4]([C:5]([H:16])([H:17])[H:18])([H:14])[H:15])([C:6](=[O:7])[H:19])[H:13])([H:11])[H:12])([H:8])([H:9])[H:10]>>[C-:6]#[O+:7].[C:1]([C:2]([C:3]([C:4]([C:5]([H:16])([H:17])[H:18])([H:14])[H:19])([H:13])[H:15])([H:11])[H:12])([H:8])([H:9])[H:10]"
C       -2.46390444      -0.84773192       0.38741253
C       -1.14321103      -0.93142075      -0.36287810
C       -0.03856695      -0.09539849       0.25847298
C        1.29921371      -0.07431564      -0.41188285
C        2.48942494       0.57386379       0.26209900
C       -0.42765850       1.80661078      -0.61196254
O       -0.48090748       2.78372482       0.01193268
H       -3.23195429      -1.45383834      -0.09568586
H       -2.35670490      -1.20338777       1.41480507
H       -2.83322536       0.17905003       0.42768881
H       -0.83557560      -1.98077243      -0.42780396
H       -1.27247919      -0.62376747      -1.40588229
H       -0.14299571       0.29317661       1.26836623
H        1.47357635      -0.72678682      -1.26319126
H        0.91056629      -1.05941131       0.53457255
H        3.37566918       0.52315479      -0.37059929
H        2.74095548       0.10812230       1.21790914
H        2.29051801       1.62523516       0.48462368
H        0.64725951       1.10389269      -1.31799650
19
Frame=10 idx=011360 GeodesicLength=0.7102819574998551 rxn_smarts="[C:1]([C:2]([C:3]([C:4]([C:5]([H:16])([H:17])[H:18])([H:14])[H:15])([C:6](=[O:7])[H:19])[H:13])([H:11])[H:12])([H:8])([H:9])[H:10]>>[C-:6]#[O+:7].[C:1]([C:2]([C:3]([C:4]([C:5]([H:16])([H:17])[H:18])([H:14])[H:19])([H:13])[H:15])([H:11])[H:12])([H:8])([H:9])[H:10]"
C       -2.46137564      -0.84963198       0.39052228
C       -1.14293746      -0.92442235      -0.36465977
C       -0.03721230      -0.08782687       0.25463886
C        1.30324364      -0.07691846      -0.41291466
C        2.49577162       0.56518945       0.26392867
C       -0.44310358       1.82244355      -0.62271551
O       -0.51849119       2.78655140       0.01836021
H       -3.22806862      -1.45916830      -0.09051101
H       -2.34827170      -1.20618848       1.41696434
H       -2.83765502       0.17454174       0.43431895
H       -0.83184015      -1.97238656      -0.43490290
H       -1.27655864      -0.61705820      -1.40721564
H       -0.14245767       0.30858459       1.26144100
H        1.47707243      -0.72389715      -1.26868850
H        0.91199832      -1.06600416       0.53763619
H        3.38830204       0.49810070      -0.35850003
H        2.73217517       0.10761652       1.22749798
H        2.30709533       1.62054687       0.47588792
H        0.65231342       1.09992769      -1.32108839
19
Frame=11 idx=011360 GeodesicLength=0.7814256368461674 rxn_smarts="[C:1]([C:2]([C:3]([C:4]([C:5]([H:16])([H:17])[H:18])([H:14])[H:15])([C:6](=[O:7])[H:19])[H:13])([H:11])[H:12])([H:8])([H:9])[H:10]>>[C-:6]#[O+:7].[C:1]([C:2]([C:3]([C:4]([C:5]([H:16])([H:17])[H:18])([H:14])[H:19])([H:13])[H:15])([H:11])[H:12])([H:8])([H:9])[H:10]"
C       -2.45866637      -0.85126206       0.39363555
C       -1.14256711      -0.91727353      -0.36643623
C       -0.03569230      -0.08014514       0.25073733
C        1.30739121      -0.07959482      -0.41395664
C        2.50225029       0.55626680       0.26582404
C       -0.45890460       1.83844082      -0.63345613
O       -0.55800187       2.78851612       0.02460390
H       -3.22402027      -1.46419777      -0.08530624
H       -2.33965892      -1.20865096       1.41911541
H       -2.84180618       0.17027412       0.44094936
H       -0.82812054      -1.96384691      -0.44196436
H       -1.28053541      -0.61023261      -1.40853729
H       -0.14168188       0.32410680       1.25438081
H        1.48070597      -0.72094450      -1.27423699
H        0.91347256      -1.07274198       0.54067467
H        3.40074095       0.47276878      -0.34613521
H        2.72352430       0.10705319       1.23687528
H        2.32402752       1.61541126       0.46731536
H        0.65754264       1.09605240      -1.32408261
19
Frame=12 idx=011360 GeodesicLength=0.852635328179142 rxn_smarts="[C:1]([C:2]([C:3]([C:4]([C:5]([H:16])([H:17])[H:18])([H:14])[H:15])([C:6](=[O:7])[H:19])[H:13])([H:11])[H:12])([H:8])([H:9])[H:10]>>[C-:6]#[O+:7].[C:1]([C:2]([C:3]([C:4]([C:5]([H:16])([H:17])[H:18])([H:14])[H:19])([H:13])[H:15])([H:11])[H:12])([H:8])([H:9])[H:10]"
C       -2.45577143      -0.85260014       0.39675323
C       -1.14209260      -0.90996342      -0.36820530
C       -0.03399615      -0.07234605       0.24676864
C        1.31166221      -0.08234042      -0.41501000
C        2.50887040       0.54708295       0.26778731
C       -0.47508723       1.85460915      -0.64415875
O       -0.59956115       2.78950319       0.03062694
H       -3.21980801      -1.46890082      -0.08006978
H       -2.33086561      -1.21075220       1.42126011
H       -2.84566709       0.16627360       0.44757770
H       -0.82441465      -1.95514588      -0.44898267
H       -1.28439961      -0.60328093      -1.40984576
H       -0.14065321       0.33975561       1.24718364
H        1.48448209      -0.71791808      -1.27983972
H        0.91499338      -1.07962768       0.54368067
H        3.41298703       0.44714991      -0.33351267
H        2.71501966       0.10640620       1.24603701
H        2.34133425       1.60981220       0.45892501
H        0.66296771       1.09228282      -1.32697561
19
Frame=13 idx=011360 GeodesicLength=0.9239323000764975 rxn_smarts="[C:1]([C:2]([C:3]([C:4]([C:5]([H:16])([H:17])[H:18])([H:14])[H:15])([C:6](=[O:7])[H:19])[H:13])([H:11])[H:12])([H:8])([H:9])[H:10]>>[C-:6]#[O+:7].[C:1]([C:2]([C:3]([C:4]([C:5]([H:16])([H:17])[H:18])([H:14])[H:19])([H:13])[H:15])([H:11])[H:12])([H:8])([H:9])[H:10]"
C       -2.45268584      -0.85361932       0.39987482
C       -1.14150526      -0.90248126      -0.36996390
C       -0.03211131      -0.06442310       0.24273434
C        1.31606331      -0.08515083      -0.41607613
C        2.51564216       0.53762570       0.26981966
C       -0.49168111       1.87095588      -0.65479181
O       -0.64329804       2.78937334       0.03639179
H       -3.21543178      -1.47324536      -0.07480186
H       -2.32189392      -1.21246316       1.42340009
H       -2.84922382       0.16257318       0.45419760
H       -0.82072054      -1.94627709      -0.45594851
H       -1.28813831      -0.59619472      -1.41113969
H       -0.13935417       0.35554297       1.23984886
H        1.48840653      -0.71480662      -1.28550025
H        0.91656743      -1.08666543       0.54664646
H        3.42504106       0.42123761      -0.32064414
H        2.70668084       0.10564855       1.25497823
H        2.35903491       1.60373404       0.45073721
H        0.66860785       1.08863563      -1.32976277
19
Frame=14 idx=011360 GeodesicLength=0.9953457456641852 rxn_smarts="[C:1]([C:2]([C:3]([C:4]([C:5]([H:16])([H:17])[H:18])([H:14])[H:15])([C:6](=[O:7])[H:19])[H:13])([H:11])[H:12])([H:8])([H:9])[H:10]>>[C-:6]#[O+:7].[C:1]([C:2]([C:3]([C:4]([C:5]([H:16])([H:17])[H:18])([H:14])[H:19])([H:13])[H:15])([H:11])[H:12])([H:8])([H:9])[H:10]"
C       -2.44940460      -0.85428698       0.40300025
C       -1.14079540      -0.89481401      -0.37170841
C       -0.03002266      -0.05637012       0.23863631
C        1.32060404      -0.08802247      -0.41715657
C        2.52257809       0.52788138       0.27192192
C       -0.50871314       1.88748883      -0.66531811
O       -0.68937089       2.78796283       0.04185513
H       -3.21089330      -1.47719133      -0.06950200
H       -2.31274797      -1.21374924       1.42553729
H       -2.85245973       0.15921265       0.46080272
H       -0.81703756      -1.93723246      -0.46285182
H       -1.29173586      -0.58896292      -1.41241685
H       -0.13776483       0.37148156       1.23237505
H        1.49248801      -0.71159909      -1.29122200
H        0.91820204      -1.09386103       0.54956240
H        3.43690639       0.39502833      -0.30754408
H        2.69853153       0.10474861       1.26369229
H        2.37714871       1.59715864       0.44277514
H        0.67448712       1.08512682      -1.33243864
19
Frame=15 idx=011360 GeodesicLength=1.0669427242228486 rxn_smarts="[C:1]([C:2]([C:3]([C:4]([C:5]([H:16])([H:17])[H:18])([H:14])[H:15])([C:6](=[O:7])[H:19])[H:13])([H:11])[H:12])([H:8])([H:9])[H:10]>>[C-:6]#[O+:7].[C:1]([C:2]([C:3]([C:4]([C:5]([H:16])([H:17])[H:18])([H:14])[H:19])([H:13])[H:15])([H:11])[H:12])([H:8])([H:9])[H:10]"
C       -2.44594354      -0.85458580       0.40614017
C       -1.13996763      -0.88695095      -0.37344290
C       -0.02771815      -0.04817330       0.23447415
C        1.32530379      -0.09095001      -0.41825897
C        2.52970858       0.51784469       0.27409848
C       -0.52619383       1.90423456      -0.67570385
O       -0.73792140       2.78510323       0.04696861
H       -3.20622274      -1.48072262      -0.06416304
H       -2.30344914      -1.21459969       1.42768714
H       -2.85538044       0.15622063       0.46741546
H       -0.81338094      -1.92801172      -0.46970668
H       -1.29519274      -0.58157078      -1.41368717
H       -0.13587231       0.38760434       1.22476558
H        1.49674733      -0.70829151      -1.29702296
H        0.91989436      -1.10122000       0.55241959
H        3.44861732       0.36851190      -0.29421863
H        2.69059432       0.10369317       1.27219019
H        2.39572563       1.59008733       0.43505733
H        0.68065152       1.08177654      -1.33501249
19
Frame=16 idx=011360 GeodesicLength=1.1386527382935647 rxn_smarts="[C:1]([C:2]([C:3]([C:4]([C:5]([H:16])([H:17])[H:18])([H:14])[H:15])([C:6](=[O:7])[H:19])[H:13])([H:11])[H:12])([H:8])([H:9])[H:10]>>[C-:6]#[O+:7].[C:1]([C:2]([C:3]([C:4]([C:5]([H:16])([H:17])[H:18])([H:14])[H:19])([H:13])[H:15])([H:11])[H:12])([H:8])([H:9])[H:10]"
C       -2.44222366      -0.85445938       0.40927986
C       -1.13897879      -0.87883955      -0.37515209
C       -0.02518160      -0.03982334       0.23024985
C        1.33013203      -0.09392293      -0.41936146
C        2.53698387       0.50746992       0.27635450
C       -0.54421932       1.92117243      -0.68588207
O       -0.78905490       2.78052664       0.05160071
H       -3.20132518      -1.48374506      -0.05879281
H       -2.29390051      -1.21497388       1.42980808
H       -2.85791253       0.15363549       0.47401565
H       -0.80969855      -1.91854056      -0.47649091
H       -1.29848736      -0.57395199      -1.41490811
H       -0.13364522       0.40390600       1.21698683
H        1.50114429      -0.70483312      -1.30285760
H        0.92166460      -1.10872889       0.55520767
H        3.46008346       0.34162557      -0.28066001
H        2.68284612       0.10243346       1.28045743
H        2.41472185       1.58244750       0.42757810
H        0.68705140       1.07860168      -1.33743362
