10
Frame=0 idx=000149 GeodesicLength=0.0 rxn_smarts="[O:1]=[C:2]1[C:3]([H:7])([H:8])[C@@:4]2([H:9])[O:5][C@@:6]12[H:10]>>[O-:1][C:2](=[C+:3][H:8])[C@@:6]1([H:10])[C:4]([H:7])([H:9])[O:5]1"
O       -0.14913285       2.35405527       0.32381804
C       -0.16088885       1.14906531       0.26713628
C       -1.23425432       0.26174884       0.66756569
C        0.30063877      -1.05967951      -0.12574790
O        0.48762743      -0.52450864      -1.36075578
C        0.94643522       0.22875909      -0.20127756
H       -0.77842461      -0.97733341       0.45314635
H       -2.08844513       0.19552888      -0.01290598
H        0.66632139      -2.04575518       0.14313597
H        2.01012295       0.41811935      -0.15411510
10
Frame=1 idx=000149 GeodesicLength=0.06097070089624697 rxn_smarts="[O:1]=[C:2]1[C:3]([H:7])([H:8])[C@@:4]2([H:9])[O:5][C@@:6]12[H:10]>>[O-:1][C:2](=[C+:3][H:8])[C@@:6]1([H:10])[C:4]([H:7])([H:9])[O:5]1"
O       -0.15395158       2.34956056       0.33907357
C       -0.15982162       1.14649309       0.25006359
C       -1.22919849       0.26043187       0.66159078
C        0.30589100      -1.06248731      -0.11849431
O        0.49544327      -0.53515858      -1.35982258
C        0.95023802       0.22751143      -0.20800922
H       -0.80457147      -0.99792262       0.42648455
H       -2.10594254       0.22780493       0.00890220
H        0.68927974      -2.03949998       0.15839061
H        2.01263367       0.42326661      -0.15817917
10
Frame=2 idx=000149 GeodesicLength=0.12189747272383386 rxn_smarts="[O:1]=[C:2]1[C:3]([H:7])([H:8])[C@@:4]2([H:9])[O:5][C@@:6]12[H:10]>>[O-:1][C:2](=[C+:3][H:8])[C@@:6]1([H:10])[C:4]([H:7])([H:9])[O:5]1"
O       -0.15874006       2.34420573       0.35465008
C       -0.15937070       1.14406977       0.23150209
C       -1.22402313       0.25864447       0.65496371
C        0.31101520      -1.06506050      -0.11114058
O        0.50429585      -0.54630948      -1.35888195
C        0.95406575       0.22637782      -0.21489552
H       -0.83042581      -1.01777573       0.39736255
H       -2.12310802       0.25999930       0.03361867
H        0.71121070      -2.03269173       0.17445946
H        2.01508020       0.42854037      -0.16163851
10
Frame=3 idx=000149 GeodesicLength=0.1827752849330716 rxn_smarts="[O:1]=[C:2]1[C:3]([H:7])([H:8])[C@@:4]2([H:9])[O:5][C@@:6]12[H:10]>>[O-:1][C:2](=[C+:3][H:8])[C@@:6]1([H:10])[C:4]([H:7])([H:9])[O:5]1"
O       -0.16356631       2.33793569       0.37016779
C       -0.15948299       1.14180543       0.21161273
C       -1.21883742       0.25649587       0.64755444
C        0.31588022      -1.06739216      -0.10383001
O        0.51415584      -0.55777512      -1.35795257
C        0.95788649       0.22533127      -0.22183713
H       -0.85573155      -1.03678768       0.36620131
H       -2.13977173       0.29193511       0.06128654
H        0.73203102      -2.02536444       0.19107075
H        2.01743643       0.43381602      -0.16427385
10
Frame=4 idx=000149 GeodesicLength=0.24358739244572325 rxn_smarts="[O:1]=[C:2]1[C:3]([H:7])([H:8])[C@@:4]2([H:9])[O:5][C@@:6]12[H:10]>>[O-:1][C:2](=[C+:3][H:8])[C@@:6]1([H:10])[C:4]([H:7])([H:9])[O:5]1"
O       -0.16862315       2.33077362       0.38495181
C       -0.15999545       1.13963427       0.19096968
C       -1.21378510       0.25401999       0.63932428
C        0.32039963      -1.06950850      -0.09665683
O        0.52490797      -0.56930379      -1.35699268
C        0.96168815       0.22433327      -0.22865047
H       -0.88031502      -1.05496330       0.33339243
H       -2.15563940       0.32360556       0.09178193
H        0.75167162      -2.01763757       0.20787814
H        2.01969075       0.43904644      -0.16599828
10
Frame=5 idx=000149 GeodesicLength=0.30430910875184347 rxn_smarts="[O:1]=[C:2]1[C:3]([H:7])([H:8])[C@@:4]2([H:9])[O:5][C@@:6]12[H:10]>>[O-:1][C:2](=[C+:3][H:8])[C@@:6]1([H:10])[C:4]([H:7])([H:9])[O:5]1"
O       -0.17399796       2.32282956       0.39861161
C       -0.16078826       1.13754070       0.16989418
C       -1.20900487       0.25133493       0.63015615
C        0.32449530      -1.07141771      -0.08972247
O        0.53642738      -0.58069847      -1.35600274
C        0.96545524       0.22336428      -0.23523856
H       -0.90403512      -1.07231712       0.29940248
H       -2.17048554       0.35483185       0.12498163
H        0.77009903      -2.00958828       0.22459597
H        2.02183481       0.44412024      -0.16667825
10
Frame=6 idx=000149 GeodesicLength=0.36492302346369054 rxn_smarts="[O:1]=[C:2]1[C:3]([H:7])([H:8])[C@@:4]2([H:9])[O:5][C@@:6]12[H:10]>>[O-:1][C:2](=[C+:3][H:8])[C@@:6]1([H:10])[C:4]([H:7])([H:9])[O:5]1"
O       -0.17983925       2.31424807       0.41074949
C       -0.16168990       1.13541954       0.14901189
C       -1.20468523       0.24842197       0.62001336
C        0.32814570      -1.07317852      -0.08302112
O        0.54851129      -0.59181503      -1.35491198
C        0.96917095       0.22238281      -0.24146833
H       -0.92686075      -1.08898697       0.26451317
H       -2.18397413       0.38574543       0.16054479
H        0.78737822      -2.00132344       0.24104642
H        2.02384309       0.44908614      -0.16647770
10
Frame=7 idx=000149 GeodesicLength=0.42540678717026664 rxn_smarts="[O:1]=[C:2]1[C:3]([H:7])([H:8])[C@@:4]2([H:9])[O:5][C@@:6]12[H:10]>>[O-:1][C:2](=[C+:3][H:8])[C@@:6]1([H:10])[C:4]([H:7])([H:9])[O:5]1"
O       -0.18610250       2.30522122       0.42130467
C       -0.16266414       1.13333694       0.12822590
C       -1.20090351       0.24546951       0.60872686
C        0.33131243      -1.07477172      -0.07663414
O        0.56110757      -0.60256389      -1.35375950
C        0.97283754       0.22140368      -0.24734315
H       -0.94877431      -1.10501371       0.22902950
H       -2.19601832       0.41599240       0.19854248
H        0.80347646      -1.99288216       0.25709102
H        2.02572878       0.45380773      -0.16518363
10
Frame=8 idx=000149 GeodesicLength=0.48569896494748865 rxn_smarts="[O:1]=[C:2]1[C:3]([H:7])([H:8])[C@@:4]2([H:9])[O:5][C@@:6]12[H:10]>>[O-:1][C:2](=[C+:3][H:8])[C@@:6]1([H:10])[C:4]([H:7])([H:9])[O:5]1"
O       -0.19280241       2.29577122       0.43052364
C       -0.16362939       1.13117657       0.10801770
C       -1.19790299       0.24241153       0.59618517
C        0.33403348      -1.07624264      -0.07040341
O        0.57395406      -0.61301110      -1.35242670
C        0.97638045       0.22039175      -0.25284355
H       -0.96978578      -1.12061480       0.19314796
H       -2.20620930       0.44590100       0.23830998
H        0.81857728      -1.98425733       0.27283738
H        2.02738461       0.45847381      -0.16334816
10
Frame=9 idx=000149 GeodesicLength=0.5458933940723635 rxn_smarts="[O:1]=[C:2]1[C:3]([H:7])([H:8])[C@@:4]2([H:9])[O:5][C@@:6]12[H:10]>>[O-:1][C:2](=[C+:3][H:8])[C@@:6]1([H:10])[C:4]([H:7])([H:9])[O:5]1"
O       -0.19981706       2.28605607       0.43849706
C       -0.16459185       1.12905383       0.08808967
C       -1.19573854       0.23939811       0.58221612
C        0.33627696      -1.07757687      -0.06436579
O        0.58707387      -0.62314917      -1.35096559
C        0.97982805       0.21938553      -0.25802249
H       -0.99002298      -1.13586544       0.15683257
H       -2.21455485       0.47512724       0.28013663
H        0.83267040      -1.97544095       0.28837265
H        2.02887602       0.46301166      -0.16079084
10
Frame=10 idx=000149 GeodesicLength=0.6059260144121618 rxn_smarts="[O:1]=[C:2]1[C:3]([H:7])([H:8])[C@@:4]2([H:9])[O:5][C@@:6]12[H:10]>>[O-:1][C:2](=[C+:3][H:8])[C@@:6]1([H:10])[C:4]([H:7])([H:9])[O:5]1"
O       -0.20720162       2.27617794       0.44498623
C       -0.16558138       1.12700028       0.06817875
C       -1.19438947       0.23654325       0.56660987
C        0.33801557      -1.07874089      -0.05860368
O        0.60062965      -0.63299493      -1.34937654
C        0.98317262       0.21838117      -0.26284972
H       -1.00956059      -1.15076544       0.11976337
H       -2.22086418       0.50345190       0.32472522
H        0.84563881      -1.96638391       0.30373671
H        2.03014060       0.46733063      -0.15717021
10
Frame=11 idx=000149 GeodesicLength=0.6658476253086953 rxn_smarts="[O:1]=[C:2]1[C:3]([H:7])([H:8])[C@@:4]2([H:9])[O:5][C@@:6]12[H:10]>>[O-:1][C:2](=[C+:3][H:8])[C@@:6]1([H:10])[C:4]([H:7])([H:9])[O:5]1"
O       -0.21486935       2.26618432       0.45033703
C       -0.16655868       1.12502897       0.04846024
C       -1.19408639       0.23385480       0.54924380
C        0.33923085      -1.07974201      -0.05296419
O        0.61443816      -0.64260199      -1.34758991
C        0.98638936       0.21739723      -0.26735417
H       -1.02849547      -1.16548074       0.08200285
H       -2.22478761       0.53085283       0.37164186
H        0.85755361      -1.95707934       0.31912117
H        2.03118552       0.47158594      -0.15289867
10
Frame=12 idx=000149 GeodesicLength=0.7254859639212728 rxn_smarts="[O:1]=[C:2]1[C:3]([H:7])([H:8])[C@@:4]2([H:9])[O:5][C@@:6]12[H:10]>>[O-:1][C:2](=[C+:3][H:8])[C@@:6]1([H:10])[C:4]([H:7])([H:9])[O:5]1"
O       -0.22277472       2.25605421       0.45490105
C       -0.16750914       1.12313359       0.02909065
C       -1.19495888       0.23140697       0.52997303
C        0.33988774      -1.08052037      -0.04732767
O        0.62830226      -0.65205399      -1.34550983
C        0.98937943       0.21643670      -0.27156149
H       -1.04680728      -1.18012143       0.04366932
H       -2.22579805       0.55722482       0.42041506
H        0.86840251      -1.94741725       0.33464407
H        2.03187613       0.47585676      -0.14829420
10
Frame=13 idx=000149 GeodesicLength=0.7850993001105669 rxn_smarts="[O:1]=[C:2]1[C:3]([H:7])([H:8])[C@@:4]2([H:9])[O:5][C@@:6]12[H:10]>>[O-:1][C:2](=[C+:3][H:8])[C@@:6]1([H:10])[C:4]([H:7])([H:9])[O:5]1"
O       -0.23100166       2.24597385       0.45815491
C       -0.16850536       1.12145247       0.00945615
C       -1.19711769       0.22931800       0.50827954
C        0.33989120      -1.08107366      -0.04181717
O        0.64265808      -0.66135146      -1.34317748
C        0.99223877       0.21552975      -0.27542255
H       -1.06471226      -1.19465899       0.00401234
H       -2.22371212       0.58216920       0.47271501
H        0.87793683      -1.93741709       0.35052810
H        2.03232422       0.48005794      -0.14272885
10
Frame=14 idx=000149 GeodesicLength=0.8444361822285418 rxn_smarts="[O:1]=[C:2]1[C:3]([H:7])([H:8])[C@@:4]2([H:9])[O:5][C@@:6]12[H:10]>>[O-:1][C:2](=[C+:3][H:8])[C@@:6]1([H:10])[C:4]([H:7])([H:9])[O:5]1"
O       -0.23970214       2.23610525       0.45945214
C       -0.16955307       1.12010883      -0.01102729
C       -1.20051998       0.22794724       0.48355487
C        0.33901301      -1.08122334      -0.03655974
O        0.65782329      -0.67054844      -1.34052556
C        0.99490642       0.21469320      -0.27883399
H       -1.08227745      -1.20879397      -0.03770153
H       -2.21757230       0.60458988       0.53015721
H        0.88555018      -1.92687798       0.36695516
H        2.03233204       0.48399931      -0.13547128
10
Frame=15 idx=000149 GeodesicLength=0.9037731404885191 rxn_smarts="[O:1]=[C:2]1[C:3]([H:7])([H:8])[C@@:4]2([H:9])[O:5][C@@:6]12[H:10]>>[O-:1][C:2](=[C+:3][H:8])[C@@:6]1([H:10])[C:4]([H:7])([H:9])[O:5]1"
O       -0.24898038       2.22675311       0.45865017
C       -0.17067429       1.11927376      -0.03244930
C       -1.20565185       0.22746441       0.45525695
C        0.33706676      -1.08098402      -0.03147644
O        0.67386856      -0.67966163      -1.33744663
C        0.99741238       0.21398092      -0.28174206
H       -1.09972877      -1.22261228      -0.08178149
H       -2.20631121       0.62388671       0.59330333
H        0.89099678      -1.91591015       0.38419940
H        2.03200202       0.48780916      -0.12651393
10
Frame=16 idx=000149 GeodesicLength=0.9625440661300874 rxn_smarts="[O:1]=[C:2]1[C:3]([H:7])([H:8])[C@@:4]2([H:9])[O:5][C@@:6]12[H:10]>>[O-:1][C:2](=[C+:3][H:8])[C@@:6]1([H:10])[C:4]([H:7])([H:9])[O:5]1"
O       -0.25889972       2.21773081       0.45595565
C       -0.17187502       1.11881018      -0.05450856
C       -1.21263306       0.22804575       0.42333164
C        0.33373477      -1.08009426      -0.02637377
O        0.69031869      -0.68869321      -1.33370262
C        0.99940489       0.21337626      -0.28403707
H       -1.11697053      -1.23592227      -0.12812100
H       -2.18781359       0.63922667       0.66114863
H        0.89392890      -1.90405784       0.40242581
H        2.03080468       0.49157792      -0.11611871
