11
Frame=0 idx=009944 GeodesicLength=0.0 rxn_smarts="[C:1]([C:2](=[O:3])[C:4](=[O:5])[C:6](=[O:7])[H:11])([H:8])([H:9])[H:10]>>[C:1]([C:2]([O-:3])=[C:4]=[O+:5][C:6](=[O:7])[H:11])([H:8])([H:9])[H:10]"
C       -1.71543620       0.25694942      -0.55116145
C       -0.71752426      -0.81670311      -0.24377403
O       -0.91685529      -2.00364079      -0.29662000
C        0.67092640      -0.36982471       0.08430766
O        0.99571215      -0.22538494       1.29930493
C        2.23076629       0.40517518       0.56934239
O        2.37731538       1.57643323       0.56608740
H       -1.88684771       0.86214985       0.34252753
H       -2.64861435      -0.19418707      -0.88191679
H       -1.32219783       0.92128570      -1.32357862
H        2.93275543      -0.41225281       0.43548102
11
Frame=1 idx=009944 GeodesicLength=0.035840511343502766 rxn_smarts="[C:1]([C:2](=[O:3])[C:4](=[O:5])[C:6](=[O:7])[H:11])([H:8])([H:9])[H:10]>>[C:1]([C:2]([O-:3])=[C:4]=[O+:5][C:6](=[O:7])[H:11])([H:8])([H:9])[H:10]"
C       -1.71777752       0.25552888      -0.54809526
C       -0.71394668      -0.81546768      -0.25220552
O       -0.90570780      -2.00304618      -0.31813773
C        0.67033776      -0.37091497       0.09357726
O        0.97791055      -0.20632481       1.30889480
C        2.23203935       0.40475343       0.56829027
O        2.39684289       1.57359444       0.54404127
H       -1.88869012       0.85488876       0.34954274
H       -2.65023624      -0.19766513      -0.87809124
H       -1.32960820       0.92562066      -1.31816682
H        2.92883601      -0.42096740       0.45035024
11
Frame=2 idx=009944 GeodesicLength=0.07166839278796096 rxn_smarts="[C:1]([C:2](=[O:3])[C:4](=[O:5])[C:6](=[O:7])[H:11])([H:8])([H:9])[H:10]>>[C:1]([C:2]([O-:3])=[C:4]=[O+:5][C:6](=[O:7])[H:11])([H:8])([H:9])[H:10]"
C       -1.72016128       0.25405732      -0.54508877
C       -0.71031516      -0.81395304      -0.26039557
O       -0.89438228      -2.00200362      -0.33937390
C        0.66963610      -0.37187935       0.10305695
O        0.96024448      -0.18728628       1.31808472
C        2.23333661       0.40427293       0.56715644
O        2.41641827       1.57005487       0.52264309
H       -1.89067372       0.84773557       0.35631509
H       -2.65180629      -0.20140603      -0.87428250
H       -1.33715612       0.92975998      -1.31290065
H        2.92485939      -0.42935235       0.46478511
11
Frame=3 idx=009944 GeodesicLength=0.10749585279556922 rxn_smarts="[C:1]([C:2](=[O:3])[C:4](=[O:5])[C:6](=[O:7])[H:11])([H:8])([H:9])[H:10]>>[C:1]([C:2]([O-:3])=[C:4]=[O+:5][C:6](=[O:7])[H:11])([H:8])([H:9])[H:10]"
C       -1.72263392       0.25251436      -0.54212029
C       -0.70660389      -0.81212951      -0.26838919
O       -0.88277208      -2.00048320      -0.36043686
C        0.66880845      -0.37262473       0.11275966
O        0.94265128      -0.16806960       1.32689091
C        2.23470869       0.40369535       0.56593904
O        2.43621135       1.56576852       0.50170334
H       -1.89292795       0.84056351       0.36292386
H       -2.65331991      -0.20547183      -0.87055011
H       -1.34491626       0.93379175      -1.30767485
H        2.92079425      -0.43755463       0.47895448
11
Frame=4 idx=009944 GeodesicLength=0.14333590775783583 rxn_smarts="[C:1]([C:2](=[O:3])[C:4](=[O:5])[C:6](=[O:7])[H:11])([H:8])([H:9])[H:10]>>[C:1]([C:2]([O-:3])=[C:4]=[O+:5][C:6](=[O:7])[H:11])([H:8])([H:9])[H:10]"
C       -1.72514156       0.25092782      -0.53920288
C       -0.70283020      -0.81004558      -0.27615631
O       -0.87097504      -1.99853546      -0.38124118
C        0.66786526      -0.37326824       0.12269383
O        0.92517550      -0.14885788       1.33534684
C        2.23609920       0.40305375       0.56461524
O        2.45601587       1.56083759       0.48132897
H       -1.89533829       0.83347617       0.36933534
H       -2.65476094      -0.20978485      -0.86686664
H       -1.35279489       0.93767386      -1.30256227
H        2.91668511      -0.44547717       0.49270906
11
Frame=5 idx=009944 GeodesicLength=0.17914209580904975 rxn_smarts="[C:1]([C:2](=[O:3])[C:4](=[O:5])[C:6](=[O:7])[H:11])([H:8])([H:9])[H:10]>>[C:1]([C:2]([O-:3])=[C:4]=[O+:5][C:6](=[O:7])[H:11])([H:8])([H:9])[H:10]"
C       -1.72760684       0.24932587      -0.53635272
C       -0.69901904      -0.80775115      -0.28366587
O       -0.85913446      -1.99619613      -0.40168000
C        0.66681758      -0.37396145       0.13287592
O        0.90787548      -0.12988195       1.34348973
C        2.23742994       0.40239147       0.56315944
O        2.47555846       1.55538128       0.46164147
H       -1.89773970       0.82658161       0.37549089
H       -2.65610462      -0.21423977      -0.86319710
H       -1.36065970       0.94133499      -1.29763064
H        2.91258290      -0.45298478       0.50586889
11
Frame=6 idx=009944 GeodesicLength=0.2149418499419094 rxn_smarts="[C:1]([C:2](=[O:3])[C:4](=[O:5])[C:6](=[O:7])[H:11])([H:8])([H:9])[H:10]>>[C:1]([C:2]([O-:3])=[C:4]=[O+:5][C:6](=[O:7])[H:11])([H:8])([H:9])[H:10]"
C       -1.73010445       0.24767969      -0.53354121
C       -0.69513512      -0.80519720      -0.29096096
O       -0.84707830      -1.99342029      -0.42191409
C        0.66564633      -0.37455370       0.14332167
O        0.89066910      -0.11087088       1.35132741
C        2.23877770       0.40164972       0.56157658
O        2.49509712       1.54931173       0.44240693
H       -1.90031751       0.81972933       0.38148526
H       -2.65735765      -0.21893756      -0.85960439
H       -1.36863778       0.94488177      -1.29276130
H        2.90844055      -0.46027260       0.51866410
11
Frame=7 idx=009944 GeodesicLength=0.25072734576395694 rxn_smarts="[C:1]([C:2](=[O:3])[C:4](=[O:5])[C:6](=[O:7])[H:11])([H:8])([H:9])[H:10]>>[C:1]([C:2]([O-:3])=[C:4]=[O+:5][C:6](=[O:7])[H:11])([H:8])([H:9])[H:10]"
C       -1.73256976       0.24601634      -0.53078977
C       -0.69119778      -0.80243179      -0.29801759
O       -0.83492944      -1.99025945      -0.44182643
C        0.66435727      -0.37516840       0.15403943
O        0.87360248      -0.09203652       1.35890932
C        2.24007615       0.40086741       0.55983678
O        2.51441426       1.54276163       0.42378293
H       -1.90292962       0.81303648       0.38726234
H       -2.65850189      -0.22379248      -0.85604798
H       -1.37662306       0.94824773      -1.28804676
H        2.90430139      -0.46724095       0.53089773
11
Frame=8 idx=009944 GeodesicLength=0.28649203044872085 rxn_smarts="[C:1]([C:2](=[O:3])[C:4](=[O:5])[C:6](=[O:7])[H:11])([H:8])([H:9])[H:10]>>[C:1]([C:2]([O-:3])=[C:4]=[O+:5][C:6](=[O:7])[H:11])([H:8])([H:9])[H:10]"
C       -1.73507297       0.24430281      -0.52807072
C       -0.68717332      -0.79939392      -0.30487584
O       -0.82252914      -1.98664168      -0.46155527
C        0.66293293      -0.37565371       0.16504091
O        0.85660944      -0.07311661       1.36621538
C        2.24139622       0.39998564       0.55794903
O        2.53374572       1.53561330       0.40555605
H       -1.90574831       0.80634048       0.39290317
H       -2.65954244      -0.22890203      -0.85259295
H       -1.38473405       0.95152155      -1.28335818
H        2.90011591      -0.47405583       0.54278842
11
Frame=9 idx=009944 GeodesicLength=0.32223453554892123 rxn_smarts="[C:1]([C:2](=[O:3])[C:4](=[O:5])[C:6](=[O:7])[H:11])([H:8])([H:9])[H:10]>>[C:1]([C:2]([O-:3])=[C:4]=[O+:5][C:6](=[O:7])[H:11])([H:8])([H:9])[H:10]"
C       -1.73753225       0.24257800      -0.52540442
C       -0.68308348      -0.79615002      -0.31150050
O       -0.81001740      -1.98263776      -0.48098589
C        0.66138417      -0.37617875       0.17635305
O        0.83973403      -0.05436549       1.37331202
C        2.24265420       0.39905048       0.55588339
O        2.55280550       1.52801839       0.38783731
H       -1.90861140       0.79977424       0.39835638
H       -2.66045122      -0.23415083      -0.84920950
H       -1.39282459       0.95465018      -1.27878426
H        2.89594242      -0.48058843       0.55414242
11
Frame=10 idx=009944 GeodesicLength=0.3579733084150862 rxn_smarts="[C:1]([C:2](=[O:3])[C:4](=[O:5])[C:6](=[O:7])[H:11])([H:8])([H:9])[H:10]>>[C:1]([C:2]([O-:3])=[C:4]=[O+:5][C:6](=[O:7])[H:11])([H:8])([H:9])[H:10]"
C       -1.74003232       0.24080121      -0.52276686
C       -0.67889125      -0.79262718      -0.31793711
O       -0.79721748      -1.97817625      -0.50024480
C        0.65968814      -0.37655677       0.18796238
O        0.82291282      -0.03549164       1.38017162
C        2.24393361       0.39799809       0.55364216
O        2.57189185       1.51985867       0.37047764
H       -1.91170696       0.79318025       0.40369788
H       -2.66124088      -0.23966373      -0.84594602
H       -1.40105078       0.95771227      -1.27421698
H        2.89171324      -0.48703492       0.56516009
11
Frame=11 idx=009944 GeodesicLength=0.3936880471185194 rxn_smarts="[C:1]([C:2](=[O:3])[C:4](=[O:5])[C:6](=[O:7])[H:11])([H:8])([H:9])[H:10]>>[C:1]([C:2]([O-:3])=[C:4]=[O+:5][C:6](=[O:7])[H:11])([H:8])([H:9])[H:10]"
C       -1.74249281       0.23901003      -0.52018034
C       -0.67461914      -0.78888531      -0.32415011
O       -0.78426860      -1.97331474      -0.51921689
C        0.65785418      -0.37694577       0.19989715
O        0.80619036      -0.01676096       1.38685338
C        2.24515282       0.39687119       0.55120247
O        2.59071966       1.51128146       0.35360445
H       -1.91486006       0.78670169       0.40886099
H       -2.66189218      -0.24532951      -0.84275449
H       -1.40927564       0.96063554      -1.26975966
H        2.88749141      -0.49326362       0.57564305
11
Frame=12 idx=009944 GeodesicLength=0.4293420036151493 rxn_smarts="[C:1]([C:2](=[O:3])[C:4](=[O:5])[C:6](=[O:7])[H:11])([H:8])([H:9])[H:10]>>[C:1]([C:2]([O-:3])=[C:4]=[O+:5][C:6](=[O:7])[H:11])([H:8])([H:9])[H:10]"
C       -1.74481071       0.23724900      -0.51766854
C       -0.67028810      -0.78499960      -0.33008792
O       -0.77132583      -1.96812649      -0.53778009
C        0.65589152      -0.37752806       0.21220928
O        0.78960374       0.00152082       1.39345247
C        2.24620342       0.39572385       0.54854160
O        2.60895290       1.50245248       0.33730912
H       -1.91788060       0.78049218       0.41377834
H       -2.66236528      -0.25101511      -0.83960755
H       -1.41731280       0.96335601      -1.26550657
H        2.88333173      -0.49912508       0.58535987
11
Frame=13 idx=009944 GeodesicLength=0.4649718155653325 rxn_smarts="[C:1]([C:2](=[O:3])[C:4](=[O:5])[C:6](=[O:7])[H:11])([H:8])([H:9])[H:10]>>[C:1]([C:2]([O-:3])=[C:4]=[O+:5][C:6](=[O:7])[H:11])([H:8])([H:9])[H:10]"
C       -1.74709024       0.23547344      -0.51520827
C       -0.66585811      -0.78088017      -0.33581550
O       -0.75819445      -1.96252859      -0.55605958
C        0.65377673      -0.37808523       0.22485340
O        0.77309019       0.01965409       1.39992086
C        2.24718972       0.39448241       0.54566264
O        2.62693970       1.49325567       0.32149328
H       -1.92095809       0.77440570       0.41851682
H       -2.66269539      -0.25686803      -0.83650950
H       -1.42537237       0.96593061      -1.26138279
H        2.87917232      -0.50483993       0.59452864
11
Frame=14 idx=009944 GeodesicLength=0.5005995346134202 rxn_smarts="[C:1]([C:2](=[O:3])[C:4](=[O:5])[C:6](=[O:7])[H:11])([H:8])([H:9])[H:10]>>[C:1]([C:2]([O-:3])=[C:4]=[O+:5][C:6](=[O:7])[H:11])([H:8])([H:9])[H:10]"
C       -1.74940564       0.23364997      -0.51277003
C       -0.66129370      -0.77645941      -0.34136510
O       -0.74469831      -1.95644207      -0.57420133
C        0.65149854      -0.37845848       0.23782511
O        0.75659634       0.03789935       1.40622624
C        2.24818137       0.39308824       0.54257888
O        2.64491568       1.48354497       0.30596749
H       -1.92425565       0.76829678       0.42315999
H       -2.66289055      -0.26299798      -0.83350613
H       -1.43359845       0.96843916      -1.25728360
H        2.87495036      -0.51056054       0.60336848
11
Frame=15 idx=009944 GeodesicLength=0.5362627691060788 rxn_smarts="[C:1]([C:2](=[O:3])[C:4](=[O:5])[C:6](=[O:7])[H:11])([H:8])([H:9])[H:10]>>[C:1]([C:2]([O-:3])=[C:4]=[O+:5][C:6](=[O:7])[H:11])([H:8])([H:9])[H:10]"
C       -1.75184571       0.23173475      -0.51032888
C       -0.65655884      -0.77165157      -0.34678475
O       -0.73066053      -1.94976772      -0.59232143
C        0.64904457      -0.37845997       0.25108096
O        0.74007582       0.05653362       1.41230008
C        2.24926383       0.39147466       0.53929665
O        2.66316627       1.47316913       0.29063945
H       -1.92793712       0.76202537       0.42777305
H       -2.66297270      -0.26953661      -0.83060586
H       -1.44217625       0.97092990      -1.25312767
H        2.87060066      -0.51645156       0.61207840
11
Frame=16 idx=009944 GeodesicLength=0.5719528967231917 rxn_smarts="[C:1]([C:2](=[O:3])[C:4](=[O:5])[C:6](=[O:7])[H:11])([H:8])([H:9])[H:10]>>[C:1]([C:2]([O-:3])=[C:4]=[O+:5][C:6](=[O:7])[H:11])([H:8])([H:9])[H:10]"
C       -1.75447726       0.22968640      -0.50785555
C       -0.65162138      -0.76637434      -0.35211575
O       -0.71592890      -1.94239877      -0.61053558
C        0.64640618      -0.37792591       0.26458741
O        0.72350141       0.07581719       1.41806230
C        2.25050461       0.38958015       0.53583654
O        2.68191253       1.46195877       0.27538990
H       -1.93213479       0.75544449       0.43242606
H       -2.66294197      -0.27660265      -0.82783052
H       -1.45126014       0.97345241      -1.24881766
H        2.86603972      -0.52263774       0.62085286
