11
Frame=0 idx=001450 GeodesicLength=0.0 rxn_smarts="[O:1]([C@@:2]1([H:8])[C:3]([H:9])([H:10])[N:4]([H:11])[C:5]1=[O:6])[H:7]>>[C+:2]1=[C:5]([O-:6])[N:4]([H:11])[C:3]1([H:9])[H:10].[O:1]([H:7])[H:8]"
O        0.53546894       1.79574831      -0.46575413
C       -0.00111852       0.54649718       0.57778080
C       -1.16948165      -0.25579061      -0.00786030
N       -0.25251153      -1.39740391      -0.00702004
C        0.85922215      -0.63800614       0.24849196
O        2.04463045      -0.83759343       0.16601956
H        1.46186890       1.55024427      -0.62090782
H        0.42393452       1.92084236       0.58107099
H       -2.03528155      -0.35168940       0.64880629
H       -1.47961540       0.05662296      -1.00722492
H       -0.38711628      -2.38947158      -0.11340236
11
Frame=1 idx=001450 GeodesicLength=0.05695551951987778 rxn_smarts="[O:1]([C@@:2]1([H:8])[C:3]([H:9])([H:10])[N:4]([H:11])[C:5]1=[O:6])[H:7]>>[C+:2]1=[C:5]([O-:6])[N:4]([H:11])[C:3]1([H:9])[H:10].[O:1]([H:7])[H:8]"
O        0.53303744       1.79102095      -0.46145728
C        0.00180134       0.54878222       0.56671894
C       -1.16848213      -0.25504054      -0.01255817
N       -0.25209793      -1.39720906      -0.01037345
C        0.86032641      -0.63797943       0.24499963
O        2.04583465      -0.83685944       0.15934922
H        1.45978514       1.54956566      -0.62111853
H        0.42233817       1.92212020       0.59808626
H       -2.03292996      -0.34779556       0.64633500
H       -1.47981545       0.05404856      -1.01258112
H       -0.38979769      -2.39065356      -0.09740050
11
Frame=2 idx=001450 GeodesicLength=0.11391314415867129 rxn_smarts="[O:1]([C@@:2]1([H:8])[C:3]([H:9])([H:10])[N:4]([H:11])[C:5]1=[O:6])[H:7]>>[C+:2]1=[C:5]([O-:6])[N:4]([H:11])[C:3]1([H:9])[H:10].[O:1]([H:7])[H:8]"
O        0.53068096       1.78632162      -0.45738793
C        0.00473262       0.55103744       0.55572763
C       -1.16745689      -0.25427266      -0.01722859
N       -0.25168590      -1.39703012      -0.01361869
C        0.86143888      -0.63792294       0.24149610
O        2.04703322      -0.83610984       0.15261243
H        1.45777133       1.54890628      -0.62134475
H        0.42046436       1.92291567       0.61520306
H       -2.03057693      -0.34384467       0.64383962
H       -1.47995825       0.05146994      -1.01791347
H       -0.39244341      -2.39147070      -0.08138541
11
Frame=3 idx=001450 GeodesicLength=0.17087079418032658 rxn_smarts="[O:1]([C@@:2]1([H:8])[C:3]([H:9])([H:10])[N:4]([H:11])[C:5]1=[O:6])[H:7]>>[C+:2]1=[C:5]([O-:6])[N:4]([H:11])[C:3]1([H:9])[H:10].[O:1]([H:7])[H:8]"
O        0.52841241       1.78160622      -0.45362950
C        0.00767255       0.55329824       0.54480971
C       -1.16641724      -0.25348063      -0.02180856
N       -0.25128301      -1.39685598      -0.01667400
C        0.86255180      -0.63782900       0.23806372
O        2.04822054      -0.83535150       0.14594766
H        1.45585253       1.54821825      -0.62161808
H        0.41829186       1.92326677       0.63234573
H       -2.02821629      -0.33982817       0.64140763
H       -1.48008294       0.04886488      -1.02315925
H       -0.39500220      -2.39190907      -0.06568507
11
Frame=4 idx=001450 GeodesicLength=0.2278246539246354 rxn_smarts="[O:1]([C@@:2]1([H:8])[C:3]([H:9])([H:10])[N:4]([H:11])[C:5]1=[O:6])[H:7]>>[C+:2]1=[C:5]([O-:6])[N:4]([H:11])[C:3]1([H:9])[H:10].[O:1]([H:7])[H:8]"
O        0.52622716       1.77686022      -0.45022032
C        0.01061942       0.55558419       0.53396501
C       -1.16536603      -0.25266045      -0.02626984
N       -0.25088825      -1.39667590      -0.01950813
C        0.86366030      -0.63768874       0.23474362
O        2.04939326      -0.83457938       0.13944153
H        1.45402404       1.54747504      -0.62197735
H        0.41584000       1.92318617       0.64949356
H       -2.02584218      -0.33574967       0.63907512
H       -1.48020642       0.04622584      -1.02828710
H       -0.39746132      -2.39197732      -0.05045611
11
Frame=5 idx=001450 GeodesicLength=0.2847783791593338 rxn_smarts="[O:1]([C@@:2]1([H:8])[C:3]([H:9])([H:10])[N:4]([H:11])[C:5]1=[O:6])[H:7]>>[C+:2]1=[C:5]([O-:6])[N:4]([H:11])[C:3]1([H:9])[H:10].[O:1]([H:7])[H:8]"
O        0.52412408       1.77210426      -0.44712939
C        0.01357707       0.55788386       0.52318318
C       -1.16430026      -0.25180923      -0.03064546
N       -0.25050277      -1.39648960      -0.02214971
C        0.86477082      -0.63750395       0.23149006
O        2.05055559      -0.83379532       0.13300182
H        1.45229074       1.54670816      -0.62239444
H        0.41309650       1.92265654       0.66670242
H       -2.02346039      -0.33159713       0.63680035
H       -1.48031230       0.04355961      -1.03333421
H       -0.39983908      -2.39171719      -0.03552462
11
Frame=6 idx=001450 GeodesicLength=0.3417261590032576 rxn_smarts="[O:1]([C@@:2]1([H:8])[C:3]([H:9])([H:10])[N:4]([H:11])[C:5]1=[O:6])[H:7]>>[C+:2]1=[C:5]([O-:6])[N:4]([H:11])[C:3]1([H:9])[H:10].[O:1]([H:7])[H:8]"
O        0.52210424       1.76732072      -0.44440219
C        0.01654382       0.56021786       0.51246274
C       -1.16322542      -0.25092175      -0.03490405
N       -0.25012469      -1.39628343      -0.02458405
C        0.86587916      -0.63726666       0.22834755
O        2.05170704      -0.83299693       0.12672804
H        1.45065635       1.54588857      -0.62290428
H        0.41006790       1.92169186       0.68394125
H       -2.02106265      -0.32737556       0.63463083
H       -1.48042867       0.04086609      -1.03826262
H       -0.40211707      -2.39114079      -0.02105321
11
Frame=7 idx=001450 GeodesicLength=0.398675044210768 rxn_smarts="[O:1]([C@@:2]1([H:8])[C:3]([H:9])([H:10])[N:4]([H:11])[C:5]1=[O:6])[H:7]>>[C+:2]1=[C:5]([O-:6])[N:4]([H:11])[C:3]1([H:9])[H:10].[O:1]([H:7])[H:8]"
O        0.52017530       1.76248766      -0.44208687
C        0.01951946       0.56260555       0.50179966
C       -1.16214789      -0.24999091      -0.03901453
N       -0.24975327      -1.39604076      -0.02680295
C        0.86698161      -0.63696949       0.22535732
O        2.05284769      -0.83218403       0.12071247
H        1.44913501       1.54498921      -0.62353017
H        0.40674465       1.92031713       0.70117622
H       -2.01863859      -0.32308906       0.63261717
H       -1.48058853       0.03815004      -1.04303274
H       -0.40427544      -2.39027535      -0.00719559
11
Frame=8 idx=001450 GeodesicLength=0.4556162151900696 rxn_smarts="[O:1]([C@@:2]1([H:8])[C:3]([H:9])([H:10])[N:4]([H:11])[C:5]1=[O:6])[H:7]>>[C+:2]1=[C:5]([O-:6])[N:4]([H:11])[C:3]1([H:9])[H:10].[O:1]([H:7])[H:8]"
O        0.51832171       1.75764162      -0.44013113
C        0.02250717       0.56502992       0.49118406
C       -1.16105850      -0.24901793      -0.04302480
N       -0.24938581      -1.39576781      -0.02884063
C        0.86808422      -0.63661276       0.22245770
O        2.05397960      -0.83135131       0.11484140
H        1.44770830       1.54405242      -0.62425603
H        0.40314697       1.91848619       0.71849022
H       -2.01619613      -0.31873178       0.63068907
H       -1.48075515       0.03541484      -1.04769822
H       -0.40635238      -2.38914341       0.00628835
11
Frame=9 idx=001450 GeodesicLength=0.5125567632122584 rxn_smarts="[O:1]([C@@:2]1([H:8])[C:3]([H:9])([H:10])[N:4]([H:11])[C:5]1=[O:6])[H:7]>>[C+:2]1=[C:5]([O-:6])[N:4]([H:11])[C:3]1([H:9])[H:10].[O:1]([H:7])[H:8]"
O        0.51653664       1.75279635      -0.43851454
C        0.02550901       0.56748658       0.48060908
C       -1.15995315      -0.24799837      -0.04695698
N       -0.24902300      -1.39546388      -0.03069482
C        0.86919166      -0.63619588       0.21961843
O        2.05510518      -0.83049932       0.10904918
H        1.44637052       1.54309658      -0.62507193
H        0.39927156       1.91617448       0.73593080
H       -2.01374222      -0.31428510       0.62881165
H       -1.48090947       0.03266002      -1.05228720
H       -0.40835675      -2.38777146       0.01950633
11
Frame=10 idx=001450 GeodesicLength=0.5694971417606085 rxn_smarts="[O:1]([C@@:2]1([H:8])[C:3]([H:9])([H:10])[N:4]([H:11])[C:5]1=[O:6])[H:7]>>[C+:2]1=[C:5]([O-:6])[N:4]([H:11])[C:3]1([H:9])[H:10].[O:1]([H:7])[H:8]"
O        0.51482946       1.74794162      -0.43726756
C        0.02852720       0.56998515       0.47006568
C       -1.15883552      -0.24692967      -0.05079964
N       -0.24866232      -1.39511993      -0.03238858
C        0.87030335      -0.63571482       0.21685001
O        2.05622670      -0.82962822       0.10337779
H        1.44514289       1.54211859      -0.62597595
H        0.39510280       1.91338444       0.75348561
H       -2.01126857      -0.30976058       0.62701146
H       -1.48107942       0.02989222      -1.05677930
H       -0.41028657      -2.38616880       0.03242048
11
Frame=11 idx=001450 GeodesicLength=0.6264294719639125 rxn_smarts="[O:1]([C@@:2]1([H:8])[C:3]([H:9])([H:10])[N:4]([H:11])[C:5]1=[O:6])[H:7]>>[C+:2]1=[C:5]([O-:6])[N:4]([H:11])[C:3]1([H:9])[H:10].[O:1]([H:7])[H:8]"
O        0.51320800       1.74306722      -0.43641765
C        0.03156394       0.57253321       0.45954325
C       -1.15770532      -0.24580733      -0.05454298
N       -0.24830010      -1.39472645      -0.03394187
C        0.87141776      -0.63516648       0.21416065
O        2.05734343      -0.82873983       0.09786029
H        1.44404190       1.54111588      -0.62696094
H        0.39061867       1.91011343       0.77114018
H       -2.00876148      -0.30516559       0.62531079
H       -1.48128610       0.02712144      -1.06115386
H       -0.41214071      -2.38434549       0.04500214
11
Frame=12 idx=001450 GeodesicLength=0.6833616597885526 rxn_smarts="[O:1]([C@@:2]1([H:8])[C:3]([H:9])([H:10])[N:4]([H:11])[C:5]1=[O:6])[H:7]>>[C+:2]1=[C:5]([O-:6])[N:4]([H:11])[C:3]1([H:9])[H:10].[O:1]([H:7])[H:8]"
O        0.51166272       1.73819304      -0.43593447
C        0.03462325       0.57512219       0.44903627
C       -1.15655692      -0.24463064      -0.05821900
N       -0.24793791      -1.39428972      -0.03535139
C        0.87254168      -0.63455187       0.21150909
O        2.05845837      -0.82783213       0.09239424
H        1.44306172       1.54011883      -0.62800750
H        0.38581663       1.90632081       0.78895832
H       -2.00623355      -0.30047892       0.62365841
H       -1.48149717       0.02433899      -1.06545453
H       -0.41393882      -2.38231058       0.05741057
11
Frame=13 idx=001450 GeodesicLength=0.7402953854277838 rxn_smarts="[O:1]([C@@:2]1([H:8])[C:3]([H:9])([H:10])[N:4]([H:11])[C:5]1=[O:6])[H:7]>>[C+:2]1=[C:5]([O-:6])[N:4]([H:11])[C:3]1([H:9])[H:10].[O:1]([H:7])[H:8]"
O        0.51018824       1.73333019      -0.43580293
C        0.03770837       0.57774903       0.43853848
C       -1.15538524      -0.24339708      -0.06184746
N       -0.24757733      -1.39381092      -0.03661266
C        0.87367845      -0.63386927       0.20886656
O        2.05957150      -0.82690203       0.08692209
H        1.44219734       1.53914614      -0.62910769
H        0.38069190       1.90196807       0.80698308
H       -2.00368851      -0.29568637       0.62202358
H       -1.48169199       0.02154047      -1.06970679
H       -0.41569273      -2.38006824       0.06974373
11
Frame=14 idx=001450 GeodesicLength=0.7972293554284069 rxn_smarts="[O:1]([C@@:2]1([H:8])[C:3]([H:9])([H:10])[N:4]([H:11])[C:5]1=[O:6])[H:7]>>[C+:2]1=[C:5]([O-:6])[N:4]([H:11])[C:3]1([H:9])[H:10].[O:1]([H:7])[H:8]"
O        0.50877645       1.72849600      -0.43600091
C        0.04082073       0.58040761       0.42804283
C       -1.15418491      -0.24210645      -0.06545736
N       -0.24721758      -1.39329289      -0.03773775
C        0.87483213      -0.63311781       0.20619644
O        2.06068324      -0.82594781       0.08137172
H        1.44144098       1.53822215      -0.63025061
H        0.37524827       1.89700188       0.82526953
H       -2.00113164      -0.29078381       0.62036328
H       -1.48184884       0.01872420      -1.07394443
H       -0.41741885      -2.37760308       0.08214726
11
Frame=15 idx=001450 GeodesicLength=0.8541728530930618 rxn_smarts="[O:1]([C@@:2]1([H:8])[C:3]([H:9])([H:10])[N:4]([H:11])[C:5]1=[O:6])[H:7]>>[C+:2]1=[C:5]([O-:6])[N:4]([H:11])[C:3]1([H:9])[H:10].[O:1]([H:7])[H:8]"
O        0.50742108       1.72369531      -0.43652285
C        0.04396142       0.58310103       0.41754611
C       -1.15295295      -0.24075366      -0.06906137
N       -0.24686113      -1.39273365      -0.03870474
C        0.87600546      -0.63229366       0.20348357
O        2.06179268      -0.82496755       0.07570002
H        1.44078622       1.53735628      -0.63143727
H        0.36948229       1.89138080       0.84385462
H       -1.99856959      -0.28574996       0.61865408
H       -1.48194951       0.01588156      -1.07818734
H       -0.41911597      -2.37491650       0.09467515
11
Frame=16 idx=001450 GeodesicLength=0.9111170592036358 rxn_smarts="[O:1]([C@@:2]1([H:8])[C:3]([H:9])([H:10])[N:4]([H:11])[C:5]1=[O:6])[H:7]>>[C+:2]1=[C:5]([O-:6])[N:4]([H:11])[C:3]1([H:9])[H:10].[O:1]([H:7])[H:8]"
O        0.50612803       1.71891567      -0.43740990
C        0.04713135       0.58584482       0.40704373
C       -1.15169284      -0.23933366      -0.07263990
N       -0.24650551      -1.39212172      -0.03952098
C        0.87719610      -0.63138989       0.20075174
O        2.06290097      -0.82395935       0.06997412
H        1.44024463       1.53653567      -0.63268343
H        0.36338366       1.88508946       0.86271766
H       -1.99599296      -0.28059197       0.61693071
H       -1.48201987       0.01301863      -1.08240789
H       -0.42077355      -2.37200766       0.10724413
