21
Frame=0 idx=009780 GeodesicLength=0.0 rxn_smarts="[C:1]([C@@:2]1([H:11])[C@:3]([C:4]([H:13])([H:14])[H:15])([H:12])[C:5]1([C:6]([H:16])([H:17])[H:18])[C:7]([H:19])([H:20])[H:21])([H:8])([H:9])[H:10]>>[C:1]([C@@:2]([C:3][C:4]([H:13])([H:14])[H:15])([C:5]([C:6]([H:16])([H:17])[H:18])([C:7]([H:19])([H:20])[H:21])[H:12])[H:11])([H:8])([H:9])[H:10]"
C       -1.57448639      -1.10099389      -0.27636219
C       -0.56566682      -0.12090582      -0.84948326
C       -0.54393539       1.32868099      -0.52283618
C       -1.26631645       1.71771413       0.73783823
C        0.80920947       0.00875744      -0.16872629
C        0.98685784      -0.68716936       1.16480404
C        1.95727697      -0.17885951      -1.14509454
H       -1.25519944      -2.13117345      -0.45152388
H       -2.53710876      -0.97249363      -0.77540549
H       -1.74136361      -0.98329693       0.79334433
H       -0.43850096      -0.31234672      -1.91615367
H        0.84925492       1.17305325      -0.00657146
H       -2.27602712       1.95450904       0.38077738
H       -0.87010195       2.63848207       1.16654460
H       -1.38456434       0.97270817       1.53422378
H        1.96742550      -0.45388324       1.58334883
H        0.92257493      -1.77135769       1.04366484
H        0.23431426      -0.39133589       1.89519262
H        1.81933193       0.46765489      -2.01248416
H        2.91907240       0.05789756      -0.68503403
H        1.98795296      -1.21564140      -1.49006350
21
Frame=1 idx=009780 GeodesicLength=0.07094201296820445 rxn_smarts="[C:1]([C@@:2]1([H:11])[C@:3]([C:4]([H:13])([H:14])[H:15])([H:12])[C:5]1([C:6]([H:16])([H:17])[H:18])[C:7]([H:19])([H:20])[H:21])([H:8])([H:9])[H:10]>>[C:1]([C@@:2]([C:3][C:4]([H:13])([H:14])[H:15])([C:5]([C:6]([H:16])([H:17])[H:18])([C:7]([H:19])([H:20])[H:21])[H:12])[H:11])([H:8])([H:9])[H:10]"
C       -1.56822063      -1.10245450      -0.28189481
C       -0.56226530      -0.11342185      -0.84289956
C       -0.54073130       1.33179163      -0.50145590
C       -1.28461886       1.71927067       0.74495217
C        0.81486252       0.01259642      -0.16923402
C        0.99563033      -0.67902260       1.16657140
C        1.95688010      -0.19933044      -1.14814850
H       -1.24572230      -2.12851969      -0.47419612
H       -2.53401785      -0.96424430      -0.77206949
H       -1.73160067      -1.00208958       0.79018477
H       -0.44752290      -0.27759818      -1.91598602
H        0.86610993       1.19363248      -0.02268405
H       -2.28666642       1.96424598       0.37184846
H       -0.89131168       2.63472322       1.18764797
H       -1.42013968       0.96876453       1.53301792
H        1.97638065      -0.44405607       1.58404057
H        0.93374582      -1.76403216       1.05100426
H        0.24429528      -0.38369000       1.89833381
H        1.82305930       0.43812145      -2.02301910
H        2.92284918       0.03590411      -0.69595017
H        1.97900446      -1.24059113      -1.48006359
21
Frame=2 idx=009780 GeodesicLength=0.14189929803902918 rxn_smarts="[C:1]([C@@:2]1([H:11])[C@:3]([C:4]([H:13])([H:14])[H:15])([H:12])[C:5]1([C:6]([H:16])([H:17])[H:18])[C:7]([H:19])([H:20])[H:21])([H:8])([H:9])[H:10]>>[C:1]([C@@:2]([C:3][C:4]([H:13])([H:14])[H:15])([C:5]([C:6]([H:16])([H:17])[H:18])([C:7]([H:19])([H:20])[H:21])[H:12])[H:11])([H:8])([H:9])[H:10]"
C       -1.56177552      -1.10375776      -0.28760142
C       -0.55877680      -0.10574562      -0.83622877
C       -0.53713877       1.33478258      -0.47919436
C       -1.30312360       1.72060841       0.75212531
C        0.82068377       0.01634199      -0.16975929
C        1.00459288      -0.67072204       1.16841282
C        1.95617474      -0.21999614      -1.15109164
H       -1.23609563      -2.12537103      -0.49723047
H       -2.53073549      -0.95596267      -0.76859654
H       -1.72143468      -1.02096924       0.78661364
H       -0.45633271      -0.24237737      -1.91493185
H        0.88288689       1.21429899      -0.04015263
H       -2.29675813       1.97450849       0.36249347
H       -0.91282450       2.63019369       1.20950173
H       -1.45660380       0.96442424       1.53106968
H        1.98556869      -0.43395248       1.58462202
H        0.94501583      -1.75653078       1.05857151
H        0.25447492      -0.37585017       1.90154124
H        1.82614482       0.40791601      -2.03355661
H        2.92632885       0.01374411      -0.70697439
H        1.96972825      -1.26558320      -1.46963346
21
Frame=3 idx=009780 GeodesicLength=0.2128754458089229 rxn_smarts="[C:1]([C@@:2]1([H:11])[C@:3]([C:4]([H:13])([H:14])[H:15])([H:12])[C:5]1([C:6]([H:16])([H:17])[H:18])[C:7]([H:19])([H:20])[H:21])([H:8])([H:9])[H:10]>>[C:1]([C@@:2]([C:3][C:4]([H:13])([H:14])[H:15])([C:5]([C:6]([H:16])([H:17])[H:18])([C:7]([H:19])([H:20])[H:21])[H:12])[H:11])([H:8])([H:9])[H:10]"
C       -1.55515807      -1.10488778      -0.29346705
C       -0.55519731      -0.09787881      -0.82944382
C       -0.53312564       1.33762069      -0.45599628
C       -1.32182568       1.72173779       0.75932533
C        0.82667830       0.01997862      -0.17028289
C        1.01376530      -0.66231429       1.17032706
C        1.95515750      -0.24082903      -1.15390939
H       -1.22634028      -2.12169835      -0.52060461
H       -2.52726131      -0.94763994      -0.76497512
H       -1.71087022      -1.03990624       0.78263159
H       -0.46491615      -0.20669217      -1.91293000
H        0.89949360       1.23502477      -0.05903196
H       -2.30622541       1.98529985       0.35267480
H       -0.93471256       2.62489631       1.23207140
H       -1.49394620       0.95973336       1.52829840
H        1.99501427      -0.42362666       1.58508111
H        0.95639755      -1.74889498       1.06633934
H        0.26488085      -0.36786857       1.90482529
H        1.82853499       0.37705175      -2.04407112
H        2.92950070      -0.00852695      -0.71810499
H        1.96015580      -1.29057936      -1.45875708
21
Frame=4 idx=009780 GeodesicLength=0.2838843475740013 rxn_smarts="[C:1]([C@@:2]1([H:11])[C@:3]([C:4]([H:13])([H:14])[H:15])([H:12])[C:5]1([C:6]([H:16])([H:17])[H:18])[C:7]([H:19])([H:20])[H:21])([H:8])([H:9])[H:10]>>[C:1]([C@@:2]([C:3][C:4]([H:13])([H:14])[H:15])([C:5]([C:6]([H:16])([H:17])[H:18])([C:7]([H:19])([H:20])[H:21])[H:12])[H:11])([H:8])([H:9])[H:10]"
C       -1.54837989      -1.10582515      -0.29947047
C       -0.55152261      -0.08982510      -0.82251172
C       -0.52865195       1.34026927      -0.43180184
C       -1.34071150       1.72267402       0.76651735
C        0.83285185       0.02348397      -0.17078375
C        1.02317069      -0.65385759       1.17231251
C        1.95382826      -0.26179526      -1.15658751
H       -1.21648499      -2.11747331      -0.54428744
H       -2.52359770      -0.93926174      -0.76119239
H       -1.69991781      -1.05886352       0.77824593
H       -0.47325112      -0.17056037      -1.90992634
H        0.91581344       1.25578016      -0.07937229
H       -2.31498871       1.99661981       0.34235114
H       -0.95707277       2.61884832       1.25529982
H       -1.53214335       0.95474669       1.52462556
H        2.00474558      -0.41314607       1.58540541
H        0.96790598      -1.74117833       1.07427476
H        0.27554629      -0.35981069       1.90819885
H        1.83017341       0.34555575      -2.05453132
H        2.93235844      -0.03084567      -0.72934107
H        1.95032846      -1.31553518      -1.44742520
21
Frame=5 idx=009780 GeodesicLength=0.35494408222725754 rxn_smarts="[C:1]([C@@:2]1([H:11])[C@:3]([C:4]([H:13])([H:14])[H:15])([H:12])[C:5]1([C:6]([H:16])([H:17])[H:18])[C:7]([H:19])([H:20])[H:21])([H:8])([H:9])[H:10]>>[C:1]([C@@:2]([C:3][C:4]([H:13])([H:14])[H:15])([C:5]([C:6]([H:16])([H:17])[H:18])([C:7]([H:19])([H:20])[H:21])[H:12])[H:11])([H:8])([H:9])[H:10]"
C       -1.54145736      -1.10655469      -0.30558581
C       -0.54775038      -0.08159523      -0.81539996
C       -0.52367896       1.34268166      -0.40655279
C       -1.35976697       1.72343788       0.77364826
C        0.83920673       0.02682986      -0.17123729
C        1.03283059      -0.64542376       1.17436801
C        1.95218981      -0.28284878      -1.15911087
H       -1.20655998      -2.11267615      -0.56823717
H       -2.51974941      -0.93082009      -0.75723301
H       -1.68859660      -1.07780316       0.77346802
H       -0.48131750      -0.13401222      -1.90585624
H        0.93169650       1.27653356      -0.10122071
H       -2.32294538       2.00847709       0.33149193
H       -0.97998315       2.61207698       1.27911313
H       -1.57116535       0.94953722       1.51995954
H        2.01478831      -0.40259103       1.58558414
H        0.97955731      -1.73344815       1.08233809
H        0.28650308      -0.35175772       1.91167577
H        1.83100400       0.31347359      -2.06490077
H        2.93489191      -0.05312395      -0.74067721
H        1.94030279      -1.34039291      -1.43563506
21
Frame=6 idx=009780 GeodesicLength=0.42605241550950157 rxn_smarts="[C:1]([C@@:2]1([H:11])[C@:3]([C:4]([H:13])([H:14])[H:15])([H:12])[C:5]1([C:6]([H:16])([H:17])[H:18])[C:7]([H:19])([H:20])[H:21])([H:8])([H:9])[H:10]>>[C:1]([C@@:2]([C:3][C:4]([H:13])([H:14])[H:15])([C:5]([C:6]([H:16])([H:17])[H:18])([C:7]([H:19])([H:20])[H:21])[H:12])[H:11])([H:8])([H:9])[H:10]"
C       -1.53440745      -1.10706538      -0.31177644
C       -0.54387675      -0.07320715      -0.80806256
C       -0.51817523       1.34480432      -0.38019281
C       -1.37896700       1.72405701       0.78066113
C        0.84574623       0.02999380      -0.17161123
C        1.04277201      -0.63709720       1.17649134
C        1.95024591      -0.30393322      -1.16146578
H       -1.19660164      -2.10729058      -0.59239646
H       -2.51572301      -0.92231009      -0.75307755
H       -1.67693140      -1.09668412       0.76832237
H       -0.48910271      -0.09706898      -1.90066519
H        0.94698989       1.29724336      -0.12458029
H       -2.32999073       2.02087640       0.32003718
H       -1.00354504       2.60462889       1.30339775
H       -1.61097485       0.94419113       1.51420835
H        2.02517480      -0.39206297       1.58560803
H        0.99137355      -1.72578363       1.09047896
H        0.29779187      -0.34380761       1.91527404
H        1.83097022       0.28087870      -2.07513302
H        2.93709904      -0.07527831      -0.75211582
H        1.93013230      -1.36508437      -1.42340199
21
Frame=7 idx=009780 GeodesicLength=0.4971821471590574 rxn_smarts="[C:1]([C@@:2]1([H:11])[C@:3]([C:4]([H:13])([H:14])[H:15])([H:12])[C:5]1([C:6]([H:16])([H:17])[H:18])[C:7]([H:19])([H:20])[H:21])([H:8])([H:9])[H:10]>>[C:1]([C@@:2]([C:3][C:4]([H:13])([H:14])[H:15])([C:5]([C:6]([H:16])([H:17])[H:18])([C:7]([H:19])([H:20])[H:21])[H:12])[H:11])([H:8])([H:9])[H:10]"
C       -1.52725322      -1.10734891      -0.31799623
C       -0.53990094      -0.06468523      -0.80045605
C       -0.51211335       1.34657796      -0.35267576
C       -1.39827809       1.72456613       0.78748431
C        0.85247003       0.03295270      -0.17187109
C        1.05301897      -0.62897634       1.17867754
C        1.94800402      -0.32497710      -1.16363773
H       -1.18664669      -2.10131077      -0.61669088
H       -2.51152876      -0.91373215      -0.74870419
H       -1.66495799      -1.11545981       0.76284295
H       -0.49659369      -0.05977781      -1.89429546
H        0.96151109       1.31785816      -0.14943824
H       -2.33602187       2.03382327       0.30792828
H       -1.02783096       2.59656740       1.32802336
H       -1.65152200       0.93881400       1.50727381
H        2.03593362      -0.38168023       1.58546808
H        1.00337687      -1.71827918       1.09863390
H        0.30945200      -0.33607685       1.91901150
H        1.83002017       0.24787027      -2.08517533
H        2.93897446      -0.09720151      -0.76365212
H        1.91988634      -1.38952400      -1.41075064
21
Frame=8 idx=009780 GeodesicLength=0.5683419848045071 rxn_smarts="[C:1]([C@@:2]1([H:11])[C@:3]([C:4]([H:13])([H:14])[H:15])([H:12])[C:5]1([C:6]([H:16])([H:17])[H:18])[C:7]([H:19])([H:20])[H:21])([H:8])([H:9])[H:10]>>[C:1]([C@@:2]([C:3][C:4]([H:13])([H:14])[H:15])([C:5]([C:6]([H:16])([H:17])[H:18])([C:7]([H:19])([H:20])[H:21])[H:12])[H:11])([H:8])([H:9])[H:10]"
C       -1.52002163      -1.10740559      -0.32419376
C       -0.53582364      -0.05606572      -0.79252664
C       -0.50546620       1.34793296      -0.32395523
C       -1.41766235       1.72500708       0.79403420
C        0.85937528       0.03567309      -0.17197550
C        1.06360004      -0.62117227       1.18092608
C        1.94547430      -0.34589842      -1.16561841
H       -1.17673916      -2.09473910      -0.64103796
H       -2.50718222      -0.90509062      -0.74408622
H       -1.65272063      -1.13408810       0.75707299
H       -0.50378443      -0.02219296      -1.88669191
H        0.97504062       1.33833587      -0.17574754
H       -2.34088847       2.04734401       0.29510461
H       -1.05292605       2.58796558       1.35282685
H       -1.69276132       0.93352358       1.49904346
H        2.04709745      -0.37157149       1.58515985
H        1.01559746      -1.71104232       1.10673873
H        0.32152775      -0.32869707       1.92291118
H        1.82810045       0.21457206      -2.09497142
H        2.94051546      -0.11877182      -0.77528958
H        1.90964729      -1.41361875      -1.39772378
21
Frame=9 idx=009780 GeodesicLength=0.639235380380323 rxn_smarts="[C:1]([C@@:2]1([H:11])[C@:3]([C:4]([H:13])([H:14])[H:15])([H:12])[C:5]1([C:6]([H:16])([H:17])[H:18])[C:7]([H:19])([H:20])[H:21])([H:8])([H:9])[H:10]>>[C:1]([C@@:2]([C:3][C:4]([H:13])([H:14])[H:15])([C:5]([C:6]([H:16])([H:17])[H:18])([C:7]([H:19])([H:20])[H:21])[H:12])[H:11])([H:8])([H:9])[H:10]"
C       -1.51273583      -1.10726069      -0.33028842
C       -0.53166389      -0.04739562      -0.78422062
C       -0.49831361       1.34880084      -0.29406429
C       -1.43706397       1.72542402       0.80019143
C        0.86644194       0.03822056      -0.17189075
C        1.07451728      -0.61377397       1.18320033
C        1.94264733      -0.36657664      -1.16738149
H       -1.16687651      -2.08762848      -0.66526748
H       -2.50268840      -0.89646714      -0.73922084
H       -1.64028704      -1.15250291       0.75109623
H       -0.51066290       0.01559270      -1.87792558
H        0.98749606       1.35854965      -0.20337529
H       -2.34449274       2.06153261       0.28159089
H       -1.07877154       2.57882759       1.37765797
H       -1.73466667       0.92845184       1.48937227
H        2.05867142      -0.36187448       1.58466014
H        1.02805293      -1.70415199       1.11467690
H        0.33404660      -0.32180007       1.92697452
H        1.82519731       0.18113587      -2.10443429
H        2.94169798      -0.13987491      -0.78698542
H        1.89945424      -1.43722878      -1.38436623
21
Frame=10 idx=009780 GeodesicLength=0.7101375275338162 rxn_smarts="[C:1]([C@@:2]1([H:11])[C@:3]([C:4]([H:13])([H:14])[H:15])([H:12])[C:5]1([C:6]([H:16])([H:17])[H:18])[C:7]([H:19])([H:20])[H:21])([H:8])([H:9])[H:10]>>[C:1]([C@@:2]([C:3][C:4]([H:13])([H:14])[H:15])([C:5]([C:6]([H:16])([H:17])[H:18])([C:7]([H:19])([H:20])[H:21])[H:12])[H:11])([H:8])([H:9])[H:10]"
C       -1.50544090      -1.10691992      -0.33622486
C       -0.52741882      -0.03873743      -0.77548788
C       -0.49057078       1.34907854      -0.26292939
C       -1.45640722       1.72588402       0.80586210
C        0.87366276       0.04046543      -0.17156387
C        1.08580883      -0.60694726       1.18552569
C        1.93956219      -0.38691540      -1.16893977
H       -1.15714515      -2.07997935      -0.68931918
H       -2.49808298      -0.88784254      -0.73405188
H       -1.62771101      -1.17068595       0.74495518
H       -0.51726417       0.05351116      -1.86779676
H        0.99845634       1.37853426      -0.23224922
H       -2.34660349       2.07638763       0.26721897
H       -1.10547212       2.56931490       1.40230379
H       -1.77715395       0.92376589       1.47813039
H        2.07069332      -0.35274467       1.58398717
H        1.04078724      -1.69777914       1.12240155
H        0.34705213      -0.31557047       1.93124188
H        1.82123884       0.14774488      -2.11352834
H        2.94253791      -0.16030611      -0.79877314
H        1.88947102      -1.46025845      -1.37076245
21
Frame=11 idx=009780 GeodesicLength=0.781024344063884 rxn_smarts="[C:1]([C@@:2]1([H:11])[C@:3]([C:4]([H:13])([H:14])[H:15])([H:12])[C:5]1([C:6]([H:16])([H:17])[H:18])[C:7]([H:19])([H:20])[H:21])([H:8])([H:9])[H:10]>>[C:1]([C@@:2]([C:3][C:4]([H:13])([H:14])[H:15])([C:5]([C:6]([H:16])([H:17])[H:18])([C:7]([H:19])([H:20])[H:21])[H:12])[H:11])([H:8])([H:9])[H:10]"
C       -1.49818200      -1.10642192      -0.34192364
C       -0.52310844      -0.03017122      -0.76627851
C       -0.48227139       1.34866231      -0.23056454
C       -1.47560251       1.72645769       0.81092386
C        0.88100730       0.04237722      -0.17094906
C        1.09748205      -0.60083033       1.18789492
C        1.93624022      -0.40677721      -1.17029268
H       -1.14759021      -2.07185151      -0.71304840
H       -2.49339855      -0.87927678      -0.72855110
H       -1.61507616      -1.18860180       0.73873170
H       -0.52361817       0.09143892      -1.85625086
H        1.00762524       1.39825439      -0.26220060
H       -2.34700623       2.09199115       0.25191324
H       -1.13297073       2.55951616       1.42656790
H       -1.82016211       0.91963957       1.46516951
H        2.08316799      -0.34433767       1.58314640
H        1.05383159      -1.69206095       1.12981923
H        0.36056517      -0.31018674       1.93573313
H        1.81619993       0.11460725      -2.12219481
H        2.94303151      -0.17985855      -0.81064817
H        1.87983552      -1.48257000      -1.35699754
21
Frame=12 idx=009780 GeodesicLength=0.8518982321203162 rxn_smarts="[C:1]([C@@:2]1([H:11])[C@:3]([C:4]([H:13])([H:14])[H:15])([H:12])[C:5]1([C:6]([H:16])([H:17])[H:18])[C:7]([H:19])([H:20])[H:21])([H:8])([H:9])[H:10]>>[C:1]([C@@:2]([C:3][C:4]([H:13])([H:14])[H:15])([C:5]([C:6]([H:16])([H:17])[H:18])([C:7]([H:19])([H:20])[H:21])[H:12])[H:11])([H:8])([H:9])[H:10]"
C       -1.49100698      -1.10580334      -0.34730388
C       -0.51875229      -0.02177689      -0.75655432
C       -0.47344549       1.34746728      -0.19701579
C       -1.49455167       1.72721875       0.81526007
C        0.88844357       0.04391835      -0.17000612
C        1.10954042      -0.59555300       1.19030115
C        1.93271228      -0.42603522      -1.17144567
H       -1.13826423      -2.06331256      -0.73630659
H       -2.48867167      -0.87081977      -0.72268803
H       -1.60246830      -1.20621278       0.73251418
H       -0.52975732       0.12923018      -1.84326766
H        1.01471521       1.41769522      -0.29300865
H       -2.34554788       2.10838679       0.23562867
H       -1.16120789       2.54953292       1.45024029
H       -1.86359632       0.91624751       1.45035434
H        2.09609598      -0.33680023       1.58214444
H        1.06721323      -1.68712867       1.13684381
H        0.37460348      -0.30581578       1.94046740
H        1.81008647       0.08194633      -2.13037654
H        2.94318246      -0.19834718      -0.82260127
H        1.87067694      -1.50403791      -1.34317984
21
Frame=13 idx=009780 GeodesicLength=0.9227545542201366 rxn_smarts="[C:1]([C@@:2]1([H:11])[C@:3]([C:4]([H:13])([H:14])[H:15])([H:12])[C:5]1([C:6]([H:16])([H:17])[H:18])[C:7]([H:19])([H:20])[H:21])([H:8])([H:9])[H:10]>>[C:1]([C@@:2]([C:3][C:4]([H:13])([H:14])[H:15])([C:5]([C:6]([H:16])([H:17])[H:18])([C:7]([H:19])([H:20])[H:21])[H:12])[H:11])([H:8])([H:9])[H:10]"
C       -1.48397246      -1.10514581      -0.35226903
C       -0.51438934      -0.01367472      -0.74627016
C       -0.46417563       1.34535810      -0.16233912
C       -1.51313043       1.72825501       0.81872311
C        0.89591657       0.04505176      -0.16868863
C        1.12197389      -0.59125638       1.19273882
C        1.92900723      -0.44452150      -1.17241147
H       -1.12920845      -2.05447831      -0.75890798
H       -2.48394548      -0.86259434      -0.71644107
H       -1.58999810      -1.22350286       0.72641227
H       -0.53573987       0.16671301      -1.82880394
H        1.01935402       1.43685390      -0.32441704
H       -2.34189098       2.12576082       0.21830350
H       -1.19002289       2.53942884       1.47313617
H       -1.90741549       0.91379943       1.43347408
H        2.10945697      -0.33027329       1.58099706
H        1.08097010      -1.68312756       1.14337911
H        0.38916501      -0.30265367       1.94546340
H        1.80289090       0.05002722      -2.13802176
H        2.94298448      -0.21551176      -0.83462828
H        1.86216997      -1.52450789      -1.32942904
21
Frame=14 idx=009780 GeodesicLength=0.9935742309671313 rxn_smarts="[C:1]([C@@:2]1([H:11])[C@:3]([C:4]([H:13])([H:14])[H:15])([H:12])[C:5]1([C:6]([H:16])([H:17])[H:18])[C:7]([H:19])([H:20])[H:21])([H:8])([H:9])[H:10]>>[C:1]([C@@:2]([C:3][C:4]([H:13])([H:14])[H:15])([C:5]([C:6]([H:16])([H:17])[H:18])([C:7]([H:19])([H:20])[H:21])[H:12])[H:11])([H:8])([H:9])[H:10]"
C       -1.47712998      -1.10451176      -0.35673701
C       -0.51005100      -0.00596642      -0.73541119
C       -0.45453681       1.34225408      -0.12664383
C       -1.53121682       1.72965118       0.82120031
C        0.90337703       0.04575132      -0.16696867
C        1.13476520      -0.58804662       1.19519554
C        1.92516621      -0.46210996      -1.17320898
H       -1.12046568      -2.04545608      -0.78068458
H       -2.47926359      -0.85468732      -0.70979214
H       -1.57776416      -1.24044625       0.72052788
H       -0.54161875       0.20368863      -1.81287414
H        1.02128958       1.45573591      -0.35610772
H       -2.33588383       2.14420003       0.19997673
H       -1.21931229       2.52929145       1.49506952
H       -1.95150748       0.91248796       1.41435943
H        2.12322450      -0.32487053       1.57971737
H        1.09512329      -1.68016781       1.14934356
H        0.40424156      -0.30084638       1.95072844
H        1.79465604       0.01908739      -2.14509332
H        2.94245328      -0.23117113      -0.84672484
H        1.85445368      -1.54386770      -1.31587236
21
Frame=15 idx=009780 GeodesicLength=1.064352175402575 rxn_smarts="[C:1]([C@@:2]1([H:11])[C@:3]([C:4]([H:13])([H:14])[H:15])([H:12])[C:5]1([C:6]([H:16])([H:17])[H:18])[C:7]([H:19])([H:20])[H:21])([H:8])([H:9])[H:10]>>[C:1]([C@@:2]([C:3][C:4]([H:13])([H:14])[H:15])([C:5]([C:6]([H:16])([H:17])[H:18])([C:7]([H:19])([H:20])[H:21])[H:12])[H:11])([H:8])([H:9])[H:10]"
C       -1.47053175      -1.10398343      -0.36062526
C       -0.50577788       0.00123509      -0.72396723
C       -0.44463121       1.33806392      -0.09005141
C       -1.54867716       1.73148950       0.82258415
C        0.91076545       0.04599342      -0.16482070
C        1.14788647      -0.58601490       1.19766097
C        1.92122693      -0.47867023      -1.17385980
H       -1.11207132      -2.03637594      -0.80146743
H       -2.47467367      -0.84721026      -0.70272907
H       -1.56586999      -1.25703528       0.71496936
H       -0.54746265       0.23995678      -1.79550111
H        1.02025460       1.47436671      -0.38775837
H       -2.32730620       2.16382898       0.18069298
H       -1.24892118       2.51917606       1.51588166
H       -1.99577090       0.91250927       1.39281805
H        2.13735813      -0.32068086       1.57832208
H        1.10969316      -1.67834563       1.15466368
H        0.41981038      -0.30052904       1.95626764
H        1.78543217      -0.01063675      -2.15156266
H        2.94159398      -0.24512908      -0.85888098
H        1.84767263      -1.56200833      -1.30263655
21
Frame=16 idx=009780 GeodesicLength=1.1350866084792708 rxn_smarts="[C:1]([C@@:2]1([H:11])[C@:3]([C:4]([H:13])([H:14])[H:15])([H:12])[C:5]1([C:6]([H:16])([H:17])[H:18])[C:7]([H:19])([H:20])[H:21])([H:8])([H:9])[H:10]>>[C:1]([C@@:2]([C:3][C:4]([H:13])([H:14])[H:15])([C:5]([C:6]([H:16])([H:17])[H:18])([C:7]([H:19])([H:20])[H:21])[H:12])[H:11])([H:8])([H:9])[H:10]"
C       -1.46422990      -1.10364714      -0.36386009
C       -0.50161495       0.00781721      -0.71194883
C       -0.43458021       1.33271191      -0.05271650
C       -1.56537673       1.73384443       0.82278173
C        0.91801566       0.04575964      -0.16223142
C        1.16129735      -0.58522409       1.20012230
C        1.91723072      -0.49409027      -1.17438770
H       -1.10405792      -2.02737999      -0.82109337
H       -2.47022577      -0.84027911      -0.69524646
H       -1.55441589      -1.27326801       0.70984176
H       -0.55334345       0.27530614      -1.77674381
H        1.01603589       1.49278752      -0.41903019
H       -2.31597464       2.18475572       0.16056551
H       -1.27868630       2.50912521       1.53544331
H       -2.04007214       0.91405681       1.36865693
H        2.15180264      -0.31775838       1.57682890
H        1.12469115      -1.67772968       1.15927913
H        0.43583248      -0.30180365       1.96207706
H        1.77529574      -0.03892262      -2.15741198
H        2.94041853      -0.25721885      -0.87107872
H        1.84195776      -1.57884280      -1.28984758
