12
Frame=0 idx=000155 GeodesicLength=0.0 rxn_smarts="[C:1]([N:2](/[C:3](=[N:4]\[H:11])[C:5](=[O:6])[H:12])[H:10])([H:7])([H:8])[H:9]>>[C+:1]([N:2]([C:3]([N:4]([H:9])[H:11])=[C:5]([O-:6])[H:12])[H:10])([H:7])[H:8]"
C        1.63066507      -0.33070227       0.15434065
N        0.55099494       0.53618191       0.30628394
C       -0.60243435       0.07897853      -0.16316506
N       -0.55151083      -1.14778047      -0.70853402
C       -1.84173220       0.73940980       0.27868906
O       -1.85783486       1.85272763       0.74530691
H        2.41549317      -0.16898250       0.88578135
H        2.00884030      -0.42058781      -0.86277643
H        0.57809666      -1.38573827      -0.11629279
H        0.53165592       1.31048368       0.95723656
H       -0.10961980      -1.19564380      -1.61927756
H       -2.75261399       0.13165357       0.14240738
12
Frame=1 idx=000155 GeodesicLength=0.0547134315753687 rxn_smarts="[C:1]([N:2](/[C:3](=[N:4]\[H:11])[C:5](=[O:6])[H:12])[H:10])([H:7])([H:8])[H:9]>>[C+:1]([N:2]([C:3]([N:4]([H:9])[H:11])=[C:5]([O-:6])[H:12])[H:10])([H:7])[H:8]"
C        1.63308933      -0.32417287       0.15415345
N        0.55119407       0.53955752       0.29450110
C       -0.60507174       0.07873947      -0.17034483
N       -0.56062295      -1.15132088      -0.70849407
C       -1.83934382       0.73941257       0.28254726
O       -1.84875670       1.84822498       0.76122254
H        2.40046624      -0.17895029       0.90719452
H        2.02875886      -0.40675801      -0.85635401
H        0.58938515      -1.39654650      -0.12573942
H        0.52673970       1.32121846       0.93659359
H       -0.12316752      -1.20496013      -1.62097084
H       -2.75267061       0.13555568       0.14569071
12
Frame=2 idx=000155 GeodesicLength=0.1094773401475744 rxn_smarts="[C:1]([N:2](/[C:3](=[N:4]\[H:11])[C:5](=[O:6])[H:12])[H:10])([H:7])([H:8])[H:9]>>[C+:1]([N:2]([C:3]([N:4]([H:9])[H:11])=[C:5]([O-:6])[H:12])[H:10])([H:7])[H:8]"
C        1.63552880      -0.31761538       0.15409997
N        0.55139084       0.54281838       0.28270198
C       -0.60776102       0.07837482      -0.17739238
N       -0.56987318      -1.15501504      -0.70810475
C       -1.83684506       0.73939636       0.28654006
O       -1.83938007       1.84373682       0.77678956
H        2.38465439      -0.18908203       0.92822732
H        2.04911657      -0.39214631      -0.84929370
H        0.60123934      -1.40740312      -0.13594748
H        0.52188631       1.33174248       0.91582139
H       -0.13722833      -1.21447386      -1.62244121
H       -2.75272859       0.13966687       0.14899925
12
Frame=3 idx=000155 GeodesicLength=0.16416063911225565 rxn_smarts="[C:1]([N:2](/[C:3](=[N:4]\[H:11])[C:5](=[O:6])[H:12])[H:10])([H:7])([H:8])[H:9]>>[C+:1]([N:2]([C:3]([N:4]([H:9])[H:11])=[C:5]([O-:6])[H:12])[H:10])([H:7])[H:8]"
C        1.63795920      -0.31105055       0.15417357
N        0.55155389       0.54593029       0.27091208
C       -0.61049236       0.07787896      -0.18428854
N       -0.57922287      -1.15885789      -0.70731786
C       -1.83421382       0.73938978       0.29063592
O       -1.82970728       1.83932475       0.79188786
H        2.36809058      -0.19937202       0.94877332
H        2.06988073      -0.37670927      -0.84154138
H        0.61369167      -1.41829068      -0.14701561
H        0.51702173       1.34194893       0.89501596
H       -0.15180574      -1.22418676      -1.62361818
H       -2.75275577       0.14399445       0.15238287
12
Frame=4 idx=000155 GeodesicLength=0.21887008768545457 rxn_smarts="[C:1]([N:2](/[C:3](=[N:4]\[H:11])[C:5](=[O:6])[H:12])[H:10])([H:7])([H:8])[H:9]>>[C+:1]([N:2]([C:3]([N:4]([H:9])[H:11])=[C:5]([O-:6])[H:12])[H:10])([H:7])[H:8]"
C        1.64039067      -0.30448199       0.15438500
N        0.55169590       0.54887628       0.25918452
C       -0.61327425       0.07725398      -0.19105754
N       -0.58870811      -1.16285988      -0.70613755
C       -1.83148020       0.73946230       0.29468167
O       -1.81974003       1.83512178       0.80626988
H        2.35087359      -0.20979645       0.96877002
H        2.09104794      -0.36039211      -0.83304998
H        0.62675246      -1.42918841      -0.15902212
H        0.51212490       1.35168197       0.87442182
H       -0.16694705      -1.23411391      -1.62452863
H       -2.75273582       0.14843643       0.15608290
12
Frame=5 idx=000155 GeodesicLength=0.27360029991273505 rxn_smarts="[C:1]([N:2](/[C:3](=[N:4]\[H:11])[C:5](=[O:6])[H:12])[H:10])([H:7])([H:8])[H:9]>>[C+:1]([N:2]([C:3]([N:4]([H:9])[H:11])=[C:5]([O-:6])[H:12])[H:10])([H:7])[H:8]"
C        1.64281479      -0.29791604       0.15471434
N        0.55181427       0.55164156       0.24756147
C       -0.61610213       0.07649346      -0.19768611
N       -0.59832628      -1.16706694      -0.70452849
C       -1.82865537       0.73966644       0.29862579
O       -1.80949708       1.83121607       0.81991061
H        2.33308793      -0.22029268       0.98809178
H        2.11256782      -0.34318665      -0.82377929
H        0.64044573      -1.44007378      -0.17202142
H        0.50717532       1.36084818       0.85421252
H       -0.18265283      -1.24433111      -1.62515316
H       -2.75267217       0.15300147       0.16005196
12
Frame=6 idx=000155 GeodesicLength=0.3282584167647531 rxn_smarts="[C:1]([N:2](/[C:3](=[N:4]\[H:11])[C:5](=[O:6])[H:12])[H:10])([H:7])([H:8])[H:9]>>[C+:1]([N:2]([C:3]([N:4]([H:9])[H:11])=[C:5]([O-:6])[H:12])[H:10])([H:7])[H:8]"
C        1.64526781      -0.29132832       0.15508498
N        0.55190230       0.55419303       0.23615521
C       -0.61897267       0.07554201      -0.20405829
N       -0.60804049      -1.17147563      -0.70228356
C       -1.82573698       0.73990741       0.30250396
O       -1.79901582       1.82762044       0.83253199
H        2.31488575      -0.23098034       1.00657140
H        2.13435072      -0.32491825      -0.81385453
H        0.65484608      -1.45090872      -0.18607949
H        0.50213281       1.36931808       0.83465860
H       -0.19903045      -1.25481582      -1.62526186
H       -2.75258906       0.15784611       0.16403159
12
Frame=7 idx=000155 GeodesicLength=0.3829578193589396 rxn_smarts="[C:1]([N:2](/[C:3](=[N:4]\[H:11])[C:5](=[O:6])[H:12])[H:10])([H:7])([H:8])[H:9]>>[C+:1]([N:2]([C:3]([N:4]([H:9])[H:11])=[C:5]([O-:6])[H:12])[H:10])([H:7])[H:8]"
C        1.64773445      -0.28475087       0.15553835
N        0.55198148       0.55654951       0.22494105
C       -0.62189183       0.07442163      -0.21023485
N       -0.61788377      -1.17614400      -0.69949032
C       -1.82275520       0.74025301       0.30629408
O       -1.78832195       1.82446813       0.84418310
H        2.29628922      -0.24180041       1.02426986
H        2.15643855      -0.30565826      -0.80313208
H        0.66992114      -1.46167155      -0.20132059
H        0.49704627       1.37715066       0.81574752
H       -0.21606089      -1.26565758      -1.62499238
H       -2.75249748       0.16283974       0.16819624
12
Frame=8 idx=000155 GeodesicLength=0.43760835173437973 rxn_smarts="[C:1]([N:2](/[C:3](=[N:4]\[H:11])[C:5](=[O:6])[H:12])[H:10])([H:7])([H:8])[H:9]>>[C+:1]([N:2]([C:3]([N:4]([H:9])[H:11])=[C:5]([O-:6])[H:12])[H:10])([H:7])[H:8]"
C        1.65021331      -0.27821224       0.15603135
N        0.55200641       0.55862045       0.21401426
C       -0.62485820       0.07310143      -0.21609401
N       -0.62781305      -1.18103160      -0.69602131
C       -1.81968973       0.74064900       0.31012413
O       -1.77749574       1.82185186       0.85458128
H        2.27751797      -0.25282774       1.04098054
H        2.17870250      -0.28528090      -0.79155946
H        0.68574363      -1.47233388      -0.21785848
H        0.49185200       1.38417929       0.79760091
H       -0.23377487      -1.27679329      -1.62415309
H       -2.75240424       0.16807761       0.17235388
12
Frame=9 idx=000155 GeodesicLength=0.49205749543361543 rxn_smarts="[C:1]([N:2](/[C:3](=[N:4]\[H:11])[C:5](=[O:6])[H:12])[H:10])([H:7])([H:8])[H:9]>>[C+:1]([N:2]([C:3]([N:4]([H:9])[H:11])=[C:5]([O-:6])[H:12])[H:10])([H:7])[H:8]"
C        1.65273672      -0.27164747       0.15646507
N        0.55197696       0.56045125       0.20330788
C       -0.62784592       0.07155946      -0.22164012
N       -0.63777001      -1.18627176      -0.69165044
C       -1.81650888       0.74107630       0.31399253
O       -1.76644393       1.81950378       0.86437749
H        2.25853078      -0.26392537       1.05671110
H        2.20106803      -0.26396164      -0.77924405
H        0.70241821      -1.48267255      -0.23570406
H        0.48651541       1.39047663       0.78019393
H       -0.25227515      -1.28847496      -1.62261103
H       -2.75240222       0.17388632       0.17580171
12
Frame=10 idx=000155 GeodesicLength=0.5465926255651474 rxn_smarts="[C:1]([N:2](/[C:3](=[N:4]\[H:11])[C:5](=[O:6])[H:12])[H:10])([H:7])([H:8])[H:9]>>[C+:1]([N:2]([C:3]([N:4]([H:9])[H:11])=[C:5]([O-:6])[H:12])[H:10])([H:7])[H:8]"
C        1.65523711      -0.26516982       0.15700144
N        0.55195707       0.56204795       0.19286076
C       -0.63089575       0.06985904      -0.22698317
N       -0.64784524      -1.19172327      -0.68664239
C       -1.81332909       0.74161572       0.31771445
O       -1.75535567       1.81780762       0.87278835
H        2.23933275      -0.27543828       1.07151873
H        2.22370086      -0.24148701      -0.76580818
H        0.71975580      -1.49281731      -0.25514976
H        0.48123407       1.39614203       0.76350079
H       -0.27144944      -1.30051728      -1.62051281
H       -2.75234249       0.17968061       0.17971178
12
Frame=11 idx=000155 GeodesicLength=0.6009955863163308 rxn_smarts="[C:1]([N:2](/[C:3](=[N:4]\[H:11])[C:5](=[O:6])[H:12])[H:10])([H:7])([H:8])[H:9]>>[C+:1]([N:2]([C:3]([N:4]([H:9])[H:11])=[C:5]([O-:6])[H:12])[H:10])([H:7])[H:8]"
C        1.65776178      -0.25872808       0.15752173
N        0.55190095       0.56341138       0.18268306
C       -0.63395817       0.06799003      -0.23210401
N       -0.65791454      -1.19745841      -0.68079351
C       -1.81004887       0.74225435       0.32129128
O       -1.74413068       1.81666914       0.88001256
H        2.21989685      -0.28732114       1.08545375
H        2.24641441      -0.21797640      -0.75145329
H        0.73787156      -1.50252756      -0.27622636
H        0.47583141       1.40106930       0.74765983
H       -0.29139180      -1.31303715      -1.61771264
H       -2.75223289       0.18565453       0.18366760
12
Frame=12 idx=000155 GeodesicLength=0.6554756550946562 rxn_smarts="[C:1]([N:2](/[C:3](=[N:4]\[H:11])[C:5](=[O:6])[H:12])[H:10])([H:7])([H:8])[H:9]>>[C+:1]([N:2]([C:3]([N:4]([H:9])[H:11])=[C:5]([O-:6])[H:12])[H:10])([H:7])[H:8]"
C        1.66031248      -0.25234967       0.15806988
N        0.55183613       0.56454206       0.17276981
C       -0.63707161       0.06593310      -0.23697964
N       -0.66803504      -1.20349441      -0.67408175
C       -1.80673791       0.74296575       0.32479353
O       -1.73286042       1.81612762       0.88604782
H        2.20037209      -0.29969290       1.09845622
H        2.26928096      -0.19331444      -0.73594205
H        0.75671175      -1.51181551      -0.29914906
H        0.47044690       1.40539640       0.73253923
H       -0.31211807      -1.32610463      -1.61414587
H       -2.75213726       0.19180663       0.18762188
12
Frame=13 idx=000155 GeodesicLength=0.7097570681876838 rxn_smarts="[C:1]([N:2](/[C:3](=[N:4]\[H:11])[C:5](=[O:6])[H:12])[H:10])([H:7])([H:8])[H:9]>>[C+:1]([N:2]([C:3]([N:4]([H:9])[H:11])=[C:5]([O-:6])[H:12])[H:10])([H:7])[H:8]"
C        1.66281495      -0.24608721       0.15859745
N        0.55176294       0.56546921       0.16304101
C       -0.64020329       0.06369543      -0.24158049
N       -0.67807500      -1.20981561      -0.66631857
C       -1.80337021       0.74370279       0.32829663
O       -1.72158464       1.81608471       0.89100028
H        2.18049112      -0.31279063       1.11040294
H        2.29226634      -0.16756057      -0.71908189
H        0.77641668      -1.52039377      -0.32415476
H        0.46508074       1.40924032       0.71791558
H       -0.33359293      -1.33975784      -1.60958337
H       -2.75200670       0.19821318       0.19146520
12
Frame=14 idx=000155 GeodesicLength=0.7642226676586207 rxn_smarts="[C:1]([N:2](/[C:3](=[N:4]\[H:11])[C:5](=[O:6])[H:12])[H:10])([H:7])([H:8])[H:9]>>[C+:1]([N:2]([C:3]([N:4]([H:9])[H:11])=[C:5]([O-:6])[H:12])[H:10])([H:7])[H:8]"
C        1.66535251      -0.23989585       0.15914972
N        0.55172182       0.56622120       0.15353703
C       -0.64338324       0.06126975      -0.24598165
N       -0.68812604      -1.21651671      -0.65755677
C       -1.79996035       0.74450911       0.33170403
O       -1.71025355       1.81665714       0.89481045
H        2.16048771      -0.32655520       1.12148253
H        2.31537112      -0.14063723      -0.70084009
H        0.79680212      -1.52827309      -0.35140038
H        0.45981150       1.41262557       0.70393213
H       -0.35593427      -1.35415233      -1.60411653
H       -2.75188932       0.20474765       0.19527955
12
Frame=15 idx=000155 GeodesicLength=0.8183737922646177 rxn_smarts="[C:1]([N:2](/[C:3](=[N:4]\[H:11])[C:5](=[O:6])[H:12])[H:10])([H:7])([H:8])[H:9]>>[C+:1]([N:2]([C:3]([N:4]([H:9])[H:11])=[C:5]([O-:6])[H:12])[H:10])([H:7])[H:8]"
C        1.66786387      -0.23384398       0.15959120
N        0.55160566       0.56665856       0.14428038
C       -0.64656418       0.05868452      -0.25011700
N       -0.69797035      -1.22343101      -0.64758630
C       -1.79648691       0.74544433       0.33497288
O       -1.69896003       1.81775081       0.89748499
H        2.14036619      -0.34106425       1.13128985
H        2.33836829      -0.11272156      -0.68112932
H        0.81796294      -1.53511363      -0.38092793
H        0.45442809       1.41526744       0.69061490
H       -0.37890429      -1.36923159      -1.59733770
H       -2.75170928       0.21160038       0.19886406
12
Frame=16 idx=000155 GeodesicLength=0.8726224518917091 rxn_smarts="[C:1]([N:2](/[C:3](=[N:4]\[H:11])[C:5](=[O:6])[H:12])[H:10])([H:7])([H:8])[H:9]>>[C+:1]([N:2]([C:3]([N:4]([H:9])[H:11])=[C:5]([O-:6])[H:12])[H:10])([H:7])[H:8]"
C        1.67033839      -0.22795614       0.16005229
N        0.55153354       0.56695300       0.13521787
C       -0.64976988       0.05598293      -0.25417681
N       -0.70772000      -1.23063330      -0.63661097
C       -1.79299309       0.74659421       0.33785241
O       -1.68767472       1.81958752       0.89873551
H        2.11999325      -0.35652145       1.14013276
H        2.36137659      -0.08378412      -0.65967279
H        0.83967297      -1.54085584      -0.41302269
H        0.44916005       1.41749287       0.67792105
H       -0.40253298      -1.38508971      -1.58949600
H       -2.75138413       0.21823003       0.20306736
