16
Frame=0 idx=003245 GeodesicLength=0.0 rxn_smarts="[C:1]([C@@:2]1([H:10])[C:3]([H:11])([H:12])[C:4]([H:13])([H:14])[O:5][C:6]1([H:15])[H:16])([H:7])([H:8])[H:9]>>[C:1]([C:2]([C:3]([C:4]([O:5][H:10])([H:13])[H:14])([H:11])[H:12])=[C:6]([H:15])[H:16])([H:7])([H:8])[H:9]"
C        1.98298529       0.39738138       0.01962507
C        0.54397831      -0.02160902       0.12016031
C       -0.36021208      -0.27522003      -1.05805422
C       -1.78298933       0.08375744      -0.45708213
O       -1.58922584       0.61074755       0.82677405
C       -0.04601700      -0.56930358       1.27747688
H        2.09868711       1.21344525      -0.69598386
H        2.36240136       0.74116362       0.98471213
H        2.62499646      -0.42308782      -0.31313933
H       -0.29916394       0.89374952       0.58945808
H       -0.10140505       0.36673729      -1.90319884
H       -0.35125212      -1.30908132      -1.41217053
H       -2.41923877      -0.80772853      -0.41913688
H       -2.28538613       0.82187987      -1.08789429
H        0.35652399      -0.31366164       2.25388227
H       -0.73468233      -1.40916999       1.27457126
16
Frame=1 idx=003245 GeodesicLength=0.06046839741549886 rxn_smarts="[C:1]([C@@:2]1([H:10])[C:3]([H:11])([H:12])[C:4]([H:13])([H:14])[O:5][C:6]1([H:15])[H:16])([H:7])([H:8])[H:9]>>[C:1]([C:2]([C:3]([C:4]([O:5][H:10])([H:13])[H:14])([H:11])[H:12])=[C:6]([H:15])[H:16])([H:7])([H:8])[H:9]"
C        1.98533135       0.38655409       0.01855416
C        0.53919048      -0.00257441       0.12611619
C       -0.35997185      -0.26226842      -1.05601039
C       -1.78675498       0.07371051      -0.46135659
O       -1.60512618       0.60684704       0.82332509
C       -0.04785087      -0.55706783       1.28279072
H        2.11253267       1.20418056      -0.69343259
H        2.37850298       0.71583822       0.98307667
H        2.60638814      -0.44565351      -0.32470288
H       -0.31422595       0.92502792       0.59141476
H       -0.10652637       0.38751655      -1.89675696
H       -0.33158854      -1.29444184      -1.41389336
H       -2.41054611      -0.82640794      -0.42294177
H       -2.29886002       0.80424300      -1.09306106
H        0.35646140      -0.30294741       2.25892041
H       -0.71695616      -1.41255653       1.27795760
16
Frame=2 idx=003245 GeodesicLength=0.12090122224420727 rxn_smarts="[C:1]([C@@:2]1([H:10])[C:3]([H:11])([H:12])[C:4]([H:13])([H:14])[O:5][C:6]1([H:15])[H:16])([H:7])([H:8])[H:9]>>[C:1]([C:2]([C:3]([C:4]([O:5][H:10])([H:13])[H:14])([H:11])[H:12])=[C:6]([H:15])[H:16])([H:7])([H:8])[H:9]"
C        1.98724431       0.37565910       0.01749648
C        0.53453797       0.01643573       0.13207575
C       -0.35969976      -0.24940549      -1.05389922
C       -1.79008368       0.06377929      -0.46558404
O       -1.62052897       0.60289940       0.81985109
C       -0.04957599      -0.54510294       1.28800268
H        2.12605320       1.19450409      -0.69103659
H        2.39365980       0.69044056       0.98125865
H        2.58724045      -0.46772360      -0.33582430
H       -0.32964908       0.95634887       0.59312022
H       -0.11171431       0.40806216      -1.89026310
H       -0.31217601      -1.27953968      -1.41549934
H       -2.40142200      -0.84470760      -0.42660699
H       -2.31166022       0.78664304      -1.09822237
H        0.35653526      -0.29251951       2.26385381
H       -0.69876098      -1.41577343       1.28127724
16
Frame=3 idx=003245 GeodesicLength=0.18130270382927086 rxn_smarts="[C:1]([C@@:2]1([H:10])[C:3]([H:11])([H:12])[C:4]([H:13])([H:14])[O:5][C:6]1([H:15])[H:16])([H:7])([H:8])[H:9]>>[C:1]([C:2]([C:3]([C:4]([O:5][H:10])([H:13])[H:14])([H:11])[H:12])=[C:6]([H:15])[H:16])([H:7])([H:8])[H:9]"
C        1.98872414       0.36471803       0.01645542
C        0.53003130       0.03536976       0.13803545
C       -0.35939556      -0.23665601      -1.05172228
C       -1.79297742       0.05397856      -0.46976142
O       -1.63541600       0.59892847       0.81635293
C       -0.05118939      -0.53343829       1.29311139
H        2.13920754       1.18445488      -0.68878001
H        2.40787588       0.66500602       0.97927731
H        2.56760348      -0.48926898      -0.34651485
H       -0.34541172       0.98769626       0.59455103
H       -0.11695375       0.42833880      -1.88372505
H       -0.29304629      -1.26441530      -1.41699200
H       -2.39189593      -0.86260209      -0.43012558
H       -2.32377546       0.76911123      -1.10337508
H        0.35674184      -0.28239730       2.26868078
H       -0.68012266      -1.41882404       1.28453195
16
Frame=4 idx=003245 GeodesicLength=0.2416756465447273 rxn_smarts="[C:1]([C@@:2]1([H:10])[C:3]([H:11])([H:12])[C:4]([H:13])([H:14])[O:5][C:6]1([H:15])[H:16])([H:7])([H:8])[H:9]>>[C:1]([C:2]([C:3]([C:4]([O:5][H:10])([H:13])[H:14])([H:11])[H:12])=[C:6]([H:15])[H:16])([H:7])([H:8])[H:9]"
C        1.98977440       0.35375272       0.01543530
C        0.52567992       0.05417521       0.14399139
C       -0.35905990      -0.22404387      -1.04948183
C       -1.79544081       0.04432302      -0.47388593
O       -1.64977229       0.59495689       0.81283260
C       -0.05268900      -0.52210342       1.29811625
H        2.15196024       1.17406988      -0.68664945
H        2.42115550       0.63957608       0.97714828
H        2.54753238      -0.51026116      -0.35678114
H       -0.36149038       1.01905423       0.59568221
H       -0.12222970       0.44831301      -1.87715010
H       -0.27423051      -1.24911023      -1.41837580
H       -2.38200132      -0.88006711      -0.43349051
H       -2.33519793       0.75168151      -1.10851440
H        0.35707783      -0.27260159       2.27339910
H       -0.66106844      -1.42171516       1.28772404
16
Frame=5 idx=003245 GeodesicLength=0.30202405684259587 rxn_smarts="[C:1]([C@@:2]1([H:10])[C:3]([H:11])([H:12])[C:4]([H:13])([H:14])[O:5][C:6]1([H:15])[H:16])([H:7])([H:8])[H:9]>>[C:1]([C:2]([C:3]([C:4]([O:5][H:10])([H:13])[H:14])([H:11])[H:12])=[C:6]([H:15])[H:16])([H:7])([H:8])[H:9]"
C        1.99040131       0.34278604       0.01443972
C        0.52149227       0.07279931       0.14993983
C       -0.35869425      -0.21159319      -1.04718051
C       -1.79748089       0.03482678      -0.47795431
O       -1.66358411       0.59100960       0.80929137
C       -0.05407291      -0.51112819       1.30301687
H        2.16427802       1.16339221      -0.68462935
H        2.43351149       0.61418747       0.97489205
H        2.52708432      -0.53067153      -0.36663838
H       -0.37786075       1.05040977       0.59649001
H       -0.12752636       0.46795173      -1.87054678
H       -0.25575681      -1.23366910      -1.41965620
H       -2.37177399      -0.89708153      -0.43669493
H       -2.34592428       0.73438529      -1.11363607
H        0.35753914      -0.26315191       2.27800859
H       -0.64163221      -1.42445275       1.29085810
16
Frame=6 idx=003245 GeodesicLength=0.36235259820635335 rxn_smarts="[C:1]([C@@:2]1([H:10])[C:3]([H:11])([H:12])[C:4]([H:13])([H:14])[O:5][C:6]1([H:15])[H:16])([H:7])([H:8])[H:9]>>[C:1]([C:2]([C:3]([C:4]([O:5][H:10])([H:13])[H:14])([H:11])[H:12])=[C:6]([H:15])[H:16])([H:7])([H:8])[H:9]"
C        1.99061554       0.33183958       0.01347296
C        0.51747633       0.09118911       0.15587752
C       -0.35829974      -0.19932732      -1.04482143
C       -1.79910685       0.02550201      -0.48196306
O       -1.67684140       0.58711003       0.80573097
C       -0.05533986      -0.50054040       1.30781471
H        2.17613556       1.15246075      -0.68270543
H        2.44495669       0.58887872       0.97252357
H        2.50632068      -0.55047220      -0.37609876
H       -0.39450029       1.08175164       0.59694777
H       -0.13282944       0.48722860      -1.86392013
H       -0.23765445      -1.21813318      -1.42084032
H       -2.36125109      -0.91362533      -0.43973191
H       -2.35595456       0.71725192      -1.11873602
H        0.35812146      -0.25406529       2.28250956
H       -0.62184859      -1.42704863       1.29394002
16
Frame=7 idx=003245 GeodesicLength=0.42266662396651233 rxn_smarts="[C:1]([C@@:2]1([H:10])[C:3]([H:11])([H:12])[C:4]([H:13])([H:14])[O:5][C:6]1([H:15])[H:16])([H:7])([H:8])[H:9]>>[C:1]([C:2]([C:3]([C:4]([O:5][H:10])([H:13])[H:14])([H:11])[H:12])=[C:6]([H:15])[H:16])([H:7])([H:8])[H:9]"
C        1.99043148       0.32093364       0.01254071
C        0.51363839       0.10929235       0.16180212
C       -0.35787841      -0.18726910      -1.04240756
C       -1.80033019       0.01636094      -0.48590837
O       -1.68953533       0.58328410       0.80215356
C       -0.05649010      -0.49036954       1.31251131
H        2.18750971       1.14131842      -0.68086194
H        2.45550883       0.56368883       0.97005932
H        2.48530369      -0.56963786      -0.38518022
H       -0.41138731       1.11307216       0.59702652
H       -0.13812367       0.50611662      -1.85727641
H       -0.21994778      -1.20254642      -1.42193507
H       -2.35047250      -0.92968123      -0.44259438
H       -2.36529375       0.70031130      -1.12380914
H        0.35881910      -0.24536064       2.28690382
H       -0.60175214      -1.42951357       1.29697573
16
Frame=8 idx=003245 GeodesicLength=0.48297192123637556 rxn_smarts="[C:1]([C@@:2]1([H:10])[C:3]([H:11])([H:12])[C:4]([H:13])([H:14])[O:5][C:6]1([H:15])[H:16])([H:7])([H:8])[H:9]>>[C:1]([C:2]([C:3]([C:4]([O:5][H:10])([H:13])[H:14])([H:11])[H:12])=[C:6]([H:15])[H:16])([H:7])([H:8])[H:9]"
C        1.98986404       0.31008870       0.01164689
C        0.50998289       0.12706439       0.16771172
C       -0.35743221      -0.17543715      -1.03994194
C       -1.80116478       0.00741263      -0.48978624
O       -1.70166241       0.57955325       0.79856154
C       -0.05752268      -0.48063900       1.31710929
H        2.19838554       1.13000382      -0.67908474
H        2.46519215       0.53864664       0.96751372
H        2.46409300      -0.58814865      -0.39389889
H       -0.42850506       1.14436882       0.59669678
H       -0.14339672       0.52459700      -1.85061913
H       -0.20265693      -1.18694645      -1.42294850
H       -2.33947499      -0.94523738      -0.44527661
H       -2.37395013       0.68358667      -1.12885051
H        0.35962736      -0.23705040       2.29119426
H       -0.58137907      -1.43186289       1.29997236
16
Frame=9 idx=003245 GeodesicLength=0.5432998314045665 rxn_smarts="[C:1]([C@@:2]1([H:10])[C:3]([H:11])([H:12])[C:4]([H:13])([H:14])[O:5][C:6]1([H:15])[H:16])([H:7])([H:8])[H:9]>>[C:1]([C:2]([C:3]([C:4]([O:5][H:10])([H:13])[H:14])([H:11])[H:12])=[C:6]([H:15])[H:16])([H:7])([H:8])[H:9]"
C        1.98894242       0.29932183       0.01080277
C        0.50650979       0.14446212       0.17360590
C       -0.35696793      -0.16384704      -1.03742546
C       -1.80162976      -0.00133929      -0.49359321
O       -1.71322202       0.57593551       0.79495517
C       -0.05844210      -0.47136312       1.32161369
H        2.20876251       1.11855923      -0.67734789
H        2.47406971       0.51377396       0.96490519
H        2.44275866      -0.60598339      -0.40229494
H       -0.44584705       1.17566105       0.59591626
H       -0.14863687       0.54265642      -1.84394978
H       -0.18579954      -1.17136487      -1.42388340
H       -2.32829737      -0.96028833      -0.44777116
H       -2.38195020       0.66708429      -1.13385662
H        0.36054439      -0.22914556       2.29538606
H       -0.56079466      -1.43412280       1.30293743
16
Frame=10 idx=003245 GeodesicLength=0.6036227903173501 rxn_smarts="[C:1]([C@@:2]1([H:10])[C:3]([H:11])([H:12])[C:4]([H:13])([H:14])[O:5][C:6]1([H:15])[H:16])([H:7])([H:8])[H:9]>>[C:1]([C:2]([C:3]([C:4]([O:5][H:10])([H:13])[H:14])([H:11])[H:12])=[C:6]([H:15])[H:16])([H:7])([H:8])[H:9]"
C        1.98767689       0.28865143       0.01000378
C        0.50322191       0.16145219       0.17948325
C       -0.35648415      -0.15251554      -1.03486303
C       -1.80173815      -0.00988314      -0.49732544
O       -1.72421407       0.57245554       0.79133924
C       -0.05924494      -0.46257036       1.32602467
H        2.21862371       1.10702553      -0.67564658
H        2.48213627       0.48910726       0.96224230
H        2.42134286      -0.62314477      -0.41036334
H       -0.46339243       1.20693387       0.59467036
H       -0.15383250       0.56027551      -1.83727565
H       -0.16938426      -1.15584278      -1.42474788
H       -2.31697749      -0.97482465      -0.45007400
H       -2.38929708       0.65084160      -1.13882010
H        0.36156208      -0.22166124       2.29947886
H       -0.53999864      -1.43630044       1.30587355
16
Frame=11 idx=003245 GeodesicLength=0.6639406234810531 rxn_smarts="[C:1]([C@@:2]1([H:10])[C:3]([H:11])([H:12])[C:4]([H:13])([H:14])[O:5][C:6]1([H:15])[H:16])([H:7])([H:8])[H:9]>>[C:1]([C:2]([C:3]([C:4]([O:5][H:10])([H:13])[H:14])([H:11])[H:12])=[C:6]([H:15])[H:16])([H:7])([H:8])[H:9]"
C        1.98608969       0.27809442       0.00925317
C        0.50011813       0.17800140       0.18534426
C       -0.35598331      -0.14145723      -1.03225703
C       -1.80150912      -0.01821256      -0.50097946
O       -1.73464407       0.56913323       0.78771694
C       -0.05993266      -0.45427989       1.33034531
H        2.22796517       1.09544509      -0.67396713
H        2.48942983       0.46467621       0.95953830
H        2.39989907      -0.63963162      -0.41812410
H       -0.48113002       1.23819347       0.59293214
H       -0.15897158       0.57744027      -1.83060098
H       -0.15341813      -1.14041622      -1.42554505
H       -2.30555550      -0.98884334      -0.45218184
H       -2.39601012       0.63488085      -1.14373426
H        0.36267438      -0.21461055       2.30347562
H       -0.51902174      -1.43841353       1.30878411
16
Frame=12 idx=003245 GeodesicLength=0.7242546660560492 rxn_smarts="[C:1]([C@@:2]1([H:10])[C:3]([H:11])([H:12])[C:4]([H:13])([H:14])[O:5][C:6]1([H:15])[H:16])([H:7])([H:8])[H:9]>>[C:1]([C:2]([C:3]([C:4]([O:5][H:10])([H:13])[H:14])([H:11])[H:12])=[C:6]([H:15])[H:16])([H:7])([H:8])[H:9]"
C        1.98420255       0.26766376       0.00855277
C        0.49719585       0.19408646       0.19119059
C       -0.35546776      -0.13068129      -1.02960914
C       -1.80096151      -0.02632399      -0.50455155
O       -1.74451930       0.56598398       0.78409288
C       -0.06050557      -0.44650638       1.33457891
H        2.23678952       1.08385245      -0.67229736
H        2.49598469       0.44050495       0.95680405
H        2.37847537      -0.65544967      -0.42559436
H       -0.49905418       1.26945218       0.59067034
H       -0.16404566       0.59414485      -1.82392753
H       -0.13790357      -1.12511238      -1.42627879
H       -2.29406554      -1.00234421      -0.45409071
H       -2.40210996       0.61921656      -1.14859299
H        0.36387721      -0.20800413       2.30738064
H       -0.49789214      -1.44048315       1.31167224
16
Frame=13 idx=003245 GeodesicLength=0.7845682437040482 rxn_smarts="[C:1]([C@@:2]1([H:10])[C:3]([H:11])([H:12])[C:4]([H:13])([H:14])[O:5][C:6]1([H:15])[H:16])([H:7])([H:8])[H:9]>>[C:1]([C:2]([C:3]([C:4]([O:5][H:10])([H:13])[H:14])([H:11])[H:12])=[C:6]([H:15])[H:16])([H:7])([H:8])[H:9]"
C        1.98203904       0.25737242       0.00790426
C        0.49445125       0.20968597       0.19702467
C       -0.35493983      -0.12019571      -1.02692093
C       -1.80011651      -0.03421440      -0.50803812
O       -1.75385207       0.56302541       0.78047050
C       -0.06096572      -0.43926398       1.33872874
H        2.24510306       1.07228433      -0.67062447
H        2.50184810       0.41660918       0.95405327
H        2.35711586      -0.67060646      -0.43279549
H       -0.51716499       1.30072444       0.58785792
H       -0.16904507       0.61038398      -1.81725776
H       -0.12284072      -1.10995880      -1.42695140
H       -2.28254334      -1.01533210      -0.45579883
H       -2.40762237       0.60386174      -1.15339049
H        0.36516391      -0.20185019       2.31119812
H       -0.47663060      -1.44252583       1.31454000
16
Frame=14 idx=003245 GeodesicLength=0.8448831851649575 rxn_smarts="[C:1]([C@@:2]1([H:10])[C:3]([H:11])([H:12])[C:4]([H:13])([H:14])[O:5][C:6]1([H:15])[H:16])([H:7])([H:8])[H:9]>>[C:1]([C:2]([C:3]([C:4]([O:5][H:10])([H:13])[H:14])([H:11])[H:12])=[C:6]([H:15])[H:16])([H:7])([H:8])[H:9]"
C        1.97962387       0.24722762       0.00730986
C        0.49188112       0.22478364       0.20285067
C       -0.35440086      -0.11000599      -1.02419257
C       -1.79899242      -0.04188185      -0.51143541
O       -1.76265148       0.56027059       0.77685450
C       -0.06131317      -0.43256393       1.34279926
H        2.25291539       1.06076933      -0.66893789
H        2.50705502       0.39300794       0.95128967
H        2.33586234      -0.68510851      -0.43974454
H       -0.53546937       1.33202693       0.58446217
H       -0.17396203       0.62615639      -1.81059071
H       -0.10822652      -1.09497712      -1.42756445
H       -2.27101988      -1.02781009      -0.45730308
H       -2.41257018       0.58882823      -1.15812087
H        0.36653180      -0.19615850       2.31493369
H       -0.45526363      -1.44456467       1.31738971
16
Frame=15 idx=003245 GeodesicLength=0.9052025653468256 rxn_smarts="[C:1]([C@@:2]1([H:10])[C:3]([H:11])([H:12])[C:4]([H:13])([H:14])[O:5][C:6]1([H:15])[H:16])([H:7])([H:8])[H:9]>>[C:1]([C:2]([C:3]([C:4]([O:5][H:10])([H:13])[H:14])([H:11])[H:12])=[C:6]([H:15])[H:16])([H:7])([H:8])[H:9]"
C        1.97698062       0.23723629       0.00677060
C        0.48948067       0.23936826       0.20867315
C       -0.35385232      -0.10011536      -1.02142396
C       -1.79760903      -0.04932568      -0.51473974
O       -1.77093103       0.55773290       0.77324937
C       -0.06154902      -0.42641603       1.34679415
H        2.26024073       1.04933342      -0.66722783
H        2.51164940       0.36971185       0.94852107
H        2.31475105      -0.69896751      -0.44645954
H       -0.55398042       1.36337860       0.58045330
H       -0.17878945       0.64146411      -1.80392605
H       -0.09405530      -1.08018519      -1.42811945
H       -2.25952457      -1.03978587      -0.45860206
H       -2.41697989       0.57412402      -1.16277820
H        0.36797616      -0.19093620       2.31859264
H       -0.43380760      -1.44661763       1.32022254
16
Frame=16 idx=003245 GeodesicLength=0.9655289898502619 rxn_smarts="[C:1]([C@@:2]1([H:10])[C:3]([H:11])([H:12])[C:4]([H:13])([H:14])[O:5][C:6]1([H:15])[H:16])([H:7])([H:8])[H:9]>>[C:1]([C:2]([C:3]([C:4]([O:5][H:10])([H:13])[H:14])([H:11])[H:12])=[C:6]([H:15])[H:16])([H:7])([H:8])[H:9]"
C        1.97413205       0.22740405       0.00628749
C        0.48724516       0.25343287       0.21449814
C       -0.35329516      -0.09052444      -1.01861404
C       -1.79598473      -0.05654554      -0.51794742
O       -1.77870358       0.55542378       0.76966069
C       -0.06167351      -0.42082901       1.35071734
H        2.26709464       1.03800004      -0.66548666
H        2.51567367       0.34672871       0.94575265
H        2.29381477      -0.71219675      -0.45295668
H       -0.57271728       1.39479983       0.57579803
H       -0.18352096       0.65631081      -1.79726214
H       -0.08031900      -1.06559830      -1.42861598
H       -2.24808415      -1.05126713      -0.45969426
H       -2.42087707       0.55975634      -1.16735652
H        0.36949336      -0.18619078       2.32218068
H       -0.41227820      -1.44870451       1.32303868
