11
Frame=0 idx=003066 GeodesicLength=0.0 rxn_smarts="[C:1](/[C:2](=[N:3]\[O:4][H:10])[C:5]#[C:6][H:11])([H:7])([H:8])[H:9]>>[C:1](=[C:2]([N:3]([O:4][H:10])[H:9])[C:5]#[C:6][H:11])([H:7])[H:8]"
C       -0.86755763      -1.09855016      -0.09366850
C       -0.00502996       0.00919396      -0.01682692
N       -0.35331772       1.34508354      -0.20916915
O       -1.69792578       1.35406049      -0.53251643
C        1.42795222      -0.19573434       0.07607623
C        2.60499772      -0.38860794       0.14034372
H       -1.91944309      -0.95826068      -0.28004584
H       -0.47030799      -2.07551016       0.13307800
H       -0.43635955       0.28215344       1.03358085
H       -1.93845437       2.28004880      -0.44391762
H        3.65544617      -0.55387699       0.19306565
11
Frame=1 idx=003066 GeodesicLength=0.09543949856319205 rxn_smarts="[C:1](/[C:2](=[N:3]\[O:4][H:10])[C:5]#[C:6][H:11])([H:7])([H:8])[H:9]>>[C:1](=[C:2]([N:3]([O:4][H:10])[H:9])[C:5]#[C:6][H:11])([H:7])[H:8]"
C       -0.86932404      -1.09794216      -0.07019504
C       -0.00172291       0.00749055      -0.02892558
N       -0.35960661       1.34129131      -0.18775915
O       -1.70338320       1.35772164      -0.51530951
C        1.43052397      -0.19476668       0.05885855
C        2.60794902      -0.38587654       0.12519678
H       -1.91454792      -0.96514825      -0.29630716
H       -0.46317157      -2.07633120       0.13393063
H       -0.45351450       0.28142140       1.04527282
H       -1.92898040       2.29029165      -0.46696316
H        3.65577817      -0.55815171       0.20220081
11
Frame=2 idx=003066 GeodesicLength=0.19084798001920528 rxn_smarts="[C:1](/[C:2](=[N:3]\[O:4][H:10])[C:5]#[C:6][H:11])([H:7])([H:8])[H:9]>>[C:1](=[C:2]([N:3]([O:4][H:10])[H:9])[C:5]#[C:6][H:11])([H:7])[H:8]"
C       -0.87092201      -1.09681388      -0.04696237
C        0.00120300       0.00586428      -0.04150454
N       -0.36579340       1.33707301      -0.16562680
O       -1.70872992       1.36175268      -0.49728099
C        1.43273896      -0.19372985       0.04116554
C        2.61050843      -0.38290358       0.11079513
H       -1.90820861      -0.97239310      -0.31235226
H       -0.45663521      -2.07642648       0.13455483
H       -0.47126938       0.28055604       1.05792596
H       -1.91815105       2.29921857      -0.49113790
H        3.65525919      -0.56219770       0.21042340
11
Frame=3 idx=003066 GeodesicLength=0.28623796053112865 rxn_smarts="[C:1](/[C:2](=[N:3]\[O:4][H:10])[C:5]#[C:6][H:11])([H:7])([H:8])[H:9]>>[C:1](=[C:2]([N:3]([O:4][H:10])[H:9])[C:5]#[C:6][H:11])([H:7])[H:8]"
C       -0.87217892      -1.09514401      -0.02494776
C        0.00378820       0.00441393      -0.05476973
N       -0.37186814       1.33246622      -0.14233750
O       -1.71386806       1.36630346      -0.47820200
C        1.43462052      -0.19249240       0.02314399
C        2.61257941      -0.38026314       0.09713360
H       -1.90076977      -0.97976696      -0.32727606
H       -0.45069048      -2.07567151       0.13506477
H       -0.48989639       0.27906501       1.07147186
H       -1.90580481       2.30658577      -0.51698881
H        3.65408843      -0.56549637       0.21770763
11
Frame=4 idx=003066 GeodesicLength=0.38161511890832034 rxn_smarts="[C:1](/[C:2](=[N:3]\[O:4][H:10])[C:5]#[C:6][H:11])([H:7])([H:8])[H:9]>>[C:1](=[C:2]([N:3]([O:4][H:10])[H:9])[C:5]#[C:6][H:11])([H:7])[H:8]"
C       -0.87312537      -1.09308448      -0.00482078
C        0.00607823       0.00298803      -0.06910573
N       -0.37758376       1.32723737      -0.11837409
O       -1.71837621       1.37145495      -0.45919189
C        1.43617569      -0.19134806       0.00508292
C        2.61426488      -0.37748763       0.08471296
H       -1.89280616      -0.98698648      -0.34058401
H       -0.44558615      -2.07421488       0.13610751
H       -0.50984682       0.27681713       1.08543268
H       -1.89178312       2.31229337      -0.54301028
H        3.65258879      -0.56766934       0.22375072
11
Frame=5 idx=003066 GeodesicLength=0.4769864412379429 rxn_smarts="[C:1](/[C:2](=[N:3]\[O:4][H:10])[C:5]#[C:6][H:11])([H:7])([H:8])[H:9]>>[C:1](=[C:2]([N:3]([O:4][H:10])[H:9])[C:5]#[C:6][H:11])([H:7])[H:8]"
C       -0.87326653      -1.09049303       0.01335415
C        0.00818759       0.00209157      -0.08463401
N       -0.38327440       1.32162770      -0.09387628
O       -1.72250738       1.37706969      -0.44055901
C        1.43758514      -0.18931378      -0.01285642
C        2.61567979      -0.37393195       0.07360456
H       -1.88417503      -0.99423072      -0.35231887
H       -0.44034564      -2.07182451       0.13780626
H       -0.53135042       0.27412860       1.09970835
H       -1.87696990       2.31609673      -0.56878624
H        3.65043678      -0.57122030       0.22855751
11
Frame=6 idx=003066 GeodesicLength=0.5723639047041996 rxn_smarts="[C:1](/[C:2](=[N:3]\[O:4][H:10])[C:5]#[C:6][H:11])([H:7])([H:8])[H:9]>>[C:1](=[C:2]([N:3]([O:4][H:10])[H:9])[C:5]#[C:6][H:11])([H:7])[H:8]"
C       -0.87307208      -1.08760725       0.02966879
C        0.01004060       0.00115677      -0.10181299
N       -0.38843964       1.31508012      -0.06938777
O       -1.72575849       1.38331597      -0.42261325
C        1.43872035      -0.18752748      -0.03126085
C        2.61672596      -0.37059839       0.06282365
H       -1.87579213      -1.00119684      -0.36184336
H       -0.43563920      -2.06896437       0.14015106
H       -0.55429039       0.27083554       1.11398119
H       -1.86050792       2.31852161      -0.59329888
H        3.64801293      -0.57301569       0.23359240
11
Frame=7 idx=003066 GeodesicLength=0.6677518292769384 rxn_smarts="[C:1](/[C:2](=[N:3]\[O:4][H:10])[C:5]#[C:6][H:11])([H:7])([H:8])[H:9]>>[C:1](=[C:2]([N:3]([O:4][H:10])[H:9])[C:5]#[C:6][H:11])([H:7])[H:8]"
C       -0.87209934      -1.08429366       0.04445354
C        0.01169706       0.00064001      -0.12046995
N       -0.39347830       1.30778922      -0.04486602
O       -1.72845626       1.39001838      -0.40545145
C        1.43971170      -0.18503691      -0.04965127
C        2.61751611      -0.36654387       0.05291851
H       -1.86720956      -1.00822120      -0.36971447
H       -0.43053559      -2.06543198       0.14311767
H       -0.57904987       0.26730705       1.12840498
H       -1.84309368       2.31951624      -0.61670608
H        3.64499772      -0.57574327       0.23796453
11
Frame=8 idx=003066 GeodesicLength=0.7631657314170286 rxn_smarts="[C:1](/[C:2](=[N:3]\[O:4][H:10])[C:5]#[C:6][H:11])([H:7])([H:8])[H:9]>>[C:1](=[C:2]([N:3]([O:4][H:10])[H:9])[C:5]#[C:6][H:11])([H:7])[H:8]"
C       -0.87064956      -1.08069889       0.05799799
C        0.01308288       0.00012311      -0.14086909
N       -0.39806115       1.29932546      -0.02071657
O       -1.73019741       1.39724836      -0.38944132
C        1.44045312      -0.18263833      -0.06843106
C        2.61794353      -0.36262754       0.04317058
H       -1.85885930      -1.01527139      -0.37578911
H       -0.42544860      -2.06151879       0.14679945
H       -0.60568851       0.26355754       1.14281302
H       -1.82421338       2.31969971      -0.63811712
H        3.64163836      -0.57719924       0.24258322
11
Frame=9 idx=003066 GeodesicLength=0.8586146496960716 rxn_smarts="[C:1](/[C:2](=[N:3]\[O:4][H:10])[C:5]#[C:6][H:11])([H:7])([H:8])[H:9]>>[C:1](=[C:2]([N:3]([O:4][H:10])[H:9])[C:5]#[C:6][H:11])([H:7])[H:8]"
C       -0.86853179      -1.07678703       0.07056807
C        0.01419034      -0.00027770      -0.16299425
N       -0.40233885       1.28962978       0.00306927
O       -1.73105910       1.40494140      -0.37455903
C        1.44096931      -0.18003298      -0.08762368
C        2.61801843      -0.35859234       0.03351501
H       -1.85053416      -1.02256563      -0.38026357
H       -0.41996523      -2.05716703       0.15119980
H       -0.63449989       0.25973278       1.15727879
H       -1.80399153       2.31929936      -0.65756981
H        3.63774248      -0.57818060       0.24737939
11
Frame=10 idx=003066 GeodesicLength=0.9541062163120181 rxn_smarts="[C:1](/[C:2](=[N:3]\[O:4][H:10])[C:5]#[C:6][H:11])([H:7])([H:8])[H:9]>>[C:1](=[C:2]([N:3]([O:4][H:10])[H:9])[C:5]#[C:6][H:11])([H:7])[H:8]"
C       -0.86582850      -1.07265334       0.08238007
C        0.01495657      -0.00079172      -0.18690993
N       -0.40621744       1.27839247       0.02636432
O       -1.73079293       1.41311364      -0.36109110
C        1.44119174      -0.17756937      -0.10736049
C        2.61768710      -0.35470111       0.02368743
H       -1.84232395      -1.03023599      -0.38317625
H       -0.41416819      -2.05251921       0.15649207
H       -0.66587318       0.25584981       1.17173706
H       -1.78205330       2.31888712      -0.67461293
H        3.63342208      -0.57777231       0.25248975
11
Frame=11 idx=003066 GeodesicLength=1.049630228376251 rxn_smarts="[C:1](/[C:2](=[N:3]\[O:4][H:10])[C:5]#[C:6][H:11])([H:7])([H:8])[H:9]>>[C:1](=[C:2]([N:3]([O:4][H:10])[H:9])[C:5]#[C:6][H:11])([H:7])[H:8]"
C       -0.86230563      -1.06830966       0.09367315
C        0.01540666      -0.00141832      -0.21267031
N       -0.40985592       1.26546714       0.04883321
O       -1.72934400       1.42156752      -0.34974821
C        1.44117235      -0.17502598      -0.12765227
C        2.61697223      -0.35069064       0.01389930
H       -1.83389410      -1.03868412      -0.38471032
H       -0.40761950      -2.04751204       0.16309417
H       -0.70041408       0.25219962       1.18596145
H       -1.75868947       2.31920747      -0.68830846
H        3.62857146      -0.57680099       0.25762830
11
Frame=12 idx=003066 GeodesicLength=1.1451873072190308 rxn_smarts="[C:1](/[C:2](=[N:3]\[O:4][H:10])[C:5]#[C:6][H:11])([H:7])([H:8])[H:9]>>[C:1](=[C:2]([N:3]([O:4][H:10])[H:9])[C:5]#[C:6][H:11])([H:7])[H:8]"
C       -0.85799210      -1.06383476       0.10466408
C        0.01545638      -0.00233056      -0.24015907
N       -0.41328244       1.25056201       0.07066407
O       -1.72651779       1.43036851      -0.34049783
C        1.44083554      -0.17260057      -0.14865253
C        2.61580348      -0.34665984       0.00394138
H       -1.82522066      -1.04806885      -0.38485047
H       -0.40029195      -2.04223585       0.17105894
H       -0.73875509       0.24870233       1.19993391
H       -1.73330001       2.32072185      -0.69878324
H        3.62326463      -0.57462427       0.26268077
11
Frame=13 idx=003066 GeodesicLength=1.2407723542776845 rxn_smarts="[C:1](/[C:2](=[N:3]\[O:4][H:10])[C:5]#[C:6][H:11])([H:7])([H:8])[H:9]>>[C:1](=[C:2]([N:3]([O:4][H:10])[H:9])[C:5]#[C:6][H:11])([H:7])[H:8]"
C       -0.85283382      -1.05928937       0.11559604
C        0.01503729      -0.00365890      -0.26925751
N       -0.41658298       1.23340601       0.09195547
O       -1.72211016       1.43954831      -0.33347185
C        1.44013670      -0.17035734      -0.17061085
C        2.61412850      -0.34262449      -0.00643860
H       -1.81615580      -1.05863513      -0.38358121
H       -0.39201592      -2.03671563       0.18056918
H       -0.78165092       0.24537231       1.21347479
H       -1.70541244       2.32391643      -0.70584957
H        3.61745956      -0.57096220       0.26761412
11
Frame=14 idx=003066 GeodesicLength=1.336383194501376 rxn_smarts="[C:1](/[C:2](=[N:3]\[O:4][H:10])[C:5]#[C:6][H:11])([H:7])([H:8])[H:9]>>[C:1](=[C:2]([N:3]([O:4][H:10])[H:9])[C:5]#[C:6][H:11])([H:7])[H:8]"
C       -0.84667657      -1.05470400       0.12672752
C        0.01410404      -0.00540847      -0.29968638
N       -0.42001065       1.21379968       0.11290350
O       -1.71597935       1.44912298      -0.32887824
C        1.43906922      -0.16806250      -0.19355218
C        2.61193543      -0.33819545      -0.01718559
H       -1.80636123      -1.07071564      -0.38097732
H       -0.38240542      -2.03087658       0.19190904
H       -0.83015303       0.24225215       1.22626513
H       -1.67462152       2.32916401      -0.70938348
H        3.61109907      -0.56637618       0.27185800
11
Frame=15 idx=003066 GeodesicLength=1.4320319179618766 rxn_smarts="[C:1](/[C:2](=[N:3]\[O:4][H:10])[C:5]#[C:6][H:11])([H:7])([H:8])[H:9]>>[C:1](=[C:2]([N:3]([O:4][H:10])[H:9])[C:5]#[C:6][H:11])([H:7])[H:8]"
C       -0.83959283      -1.05018165       0.13832579
C        0.01254188      -0.00778681      -0.33112943
N       -0.42367827       1.19139133       0.13377582
O       -1.70772153       1.45927250      -0.32677811
C        1.43754120      -0.16589268      -0.21765308
C        2.60915478      -0.33340805      -0.02863645
H       -1.79571951      -1.08454661      -0.37703296
H       -0.37140776      -2.02474902       0.20540936
H       -0.88537296       0.23924790       1.23776435
H       -1.64001551       2.33679769      -0.70919582
H        3.60427052      -0.56014461       0.27515054
11
Frame=16 idx=003066 GeodesicLength=1.5277469438791786 rxn_smarts="[C:1](/[C:2](=[N:3]\[O:4][H:10])[C:5]#[C:6][H:11])([H:7])([H:8])[H:9]>>[C:1](=[C:2]([N:3]([O:4][H:10])[H:9])[C:5]#[C:6][H:11])([H:7])[H:8]"
C       -0.83165171      -1.04581015       0.15071136
C        0.01021441      -0.01093660      -0.36315530
N       -0.42777003       1.16589688       0.15490562
O       -1.69691899       1.47026969      -0.32701868
C        1.43545531      -0.16390675      -0.24311387
C        2.60573105      -0.32823779      -0.04126057
H       -1.78402746      -1.10041612      -0.37178637
H       -0.35888756      -2.01830533       0.22143658
H       -0.94844863       0.23627556       1.24716942
H       -1.60065384       2.34692758      -0.70517192
H        3.59695744      -0.55175697       0.27728372
