12
Frame=0 idx=005782 GeodesicLength=0.0 rxn_smarts="[C:1]1([H:7])([H:8])[C:2]([H:9])=[C:3]([H:10])[C@@:4]2([H:11])[O:5][C@@:6]12[H:12]>>[C:1]1([H:8])=[C:2]([H:9])[C:3]([H:10])=[C:4]([H:11])[O:5][C:6]1([H:7])[H:12]"
C       -0.98427553       0.61055054      -0.19146497
C        0.23288570       1.24949415       0.11607664
C        1.32783330       0.37465609       0.07589984
C        1.08089338      -0.96670090       0.17199025
O       -0.09821681      -1.33380183       0.86668314
C       -0.92994660      -0.84013069      -0.09537024
H       -1.70265357       0.08975429       0.67058814
H       -1.73902561       1.07088093      -0.82138157
H        0.32820862       2.32459884       0.11753370
H        2.32229036       0.73032742      -0.16623566
H        1.73080207      -1.78641756      -0.09760155
H       -1.56879529      -1.52321131      -0.64671775
12
Frame=1 idx=005782 GeodesicLength=0.04788141947965505 rxn_smarts="[C:1]1([H:7])([H:8])[C:2]([H:9])=[C:3]([H:10])[C@@:4]2([H:11])[O:5][C@@:6]12[H:12]>>[C:1]1([H:8])=[C:2]([H:9])[C:3]([H:10])=[C:4]([H:11])[O:5][C:6]1([H:7])[H:12]"
C       -0.98723164       0.61440680      -0.18569824
C        0.23406512       1.25112008       0.11121506
C        1.32740462       0.37526552       0.07175840
C        1.07038549      -0.96726097       0.16333471
O       -0.09479179      -1.33274783       0.87829192
C       -0.92780550      -0.83837684      -0.08641017
H       -1.71585012       0.08247586       0.67726062
H       -1.73702775       1.07178839      -0.82363354
H        0.33157200       2.32622655       0.11489345
H        2.32454758       0.72708405      -0.16394233
H        1.72279802      -1.78732003      -0.09982901
H       -1.54806604      -1.52266158      -0.65724086
12
Frame=2 idx=005782 GeodesicLength=0.09576839816636315 rxn_smarts="[C:1]1([H:7])([H:8])[C:2]([H:9])=[C:3]([H:10])[C@@:4]2([H:11])[O:5][C@@:6]12[H:12]>>[C:1]1([H:8])=[C:2]([H:9])[C:3]([H:10])=[C:4]([H:11])[O:5][C:6]1([H:7])[H:12]"
C       -0.99012256       0.61825961      -0.18005760
C        0.23525029       1.25270065       0.10617117
C        1.32698795       0.37584382       0.06751379
C        1.05995171      -0.96776267       0.15514199
O       -0.09126323      -1.33172317       0.88958279
C       -0.92564005      -0.83664544      -0.07773604
H       -1.72911115       0.07479178       0.68363867
H       -1.73498743       1.07270150      -0.82584650
H        0.33492183       2.32779774       0.11250393
H        2.32677204       0.72376288      -0.16174344
H        1.71479547      -1.78805362      -0.10201649
H       -1.52755489      -1.52167310      -0.66715228
12
Frame=3 idx=005782 GeodesicLength=0.14365464860416138 rxn_smarts="[C:1]1([H:7])([H:8])[C:2]([H:9])=[C:3]([H:10])[C@@:4]2([H:11])[O:5][C@@:6]12[H:12]>>[C:1]1([H:8])=[C:2]([H:9])[C:3]([H:10])=[C:4]([H:11])[O:5][C:6]1([H:7])[H:12]"
C       -0.99294830       0.62211050      -0.17453609
C        0.23644024       1.25423644       0.10093073
C        1.32658465       0.37639339       0.06315135
C        1.04960420      -0.96820708       0.14738556
O       -0.08762231      -1.33071947       0.90057376
C       -0.92344459      -0.83493092      -0.06932441
H       -1.74242617       0.06670318       0.68973230
H       -1.73291930       1.07361424      -0.82800779
H        0.33826505       2.32931163       0.11028247
H        2.32899206       0.72038621      -0.15949937
H        1.70678362      -1.78862872      -0.10423734
H       -1.50730916      -1.52026940      -0.67645118
12
Frame=4 idx=005782 GeodesicLength=0.19155750862370868 rxn_smarts="[C:1]1([H:7])([H:8])[C:2]([H:9])=[C:3]([H:10])[C@@:4]2([H:11])[O:5][C@@:6]12[H:12]>>[C:1]1([H:8])=[C:2]([H:9])[C:3]([H:10])=[C:4]([H:11])[O:5][C:6]1([H:7])[H:12]"
C       -0.99570539       0.62596264      -0.16912709
C        0.23763975       1.25573563       0.09548892
C        1.32619949       0.37692525       0.05866200
C        1.03935100      -0.96859198       0.14004781
O       -0.08387197      -1.32973096       0.91128856
C       -0.92121533      -0.83323119      -0.06116150
H       -1.75579689       0.05820157       0.69554162
H       -1.73083122       1.07453214      -0.83010488
H        0.34161397       2.33077405       0.10818244
H        2.33122501       0.71697398      -0.15713895
H        1.69874908      -1.78906344      -0.10653357
H       -1.48735750      -1.51848770      -0.68514538
12
Frame=5 idx=005782 GeodesicLength=0.23947704770777722 rxn_smarts="[C:1]1([H:7])([H:8])[C:2]([H:9])=[C:3]([H:10])[C@@:4]2([H:11])[O:5][C@@:6]12[H:12]>>[C:1]1([H:8])=[C:2]([H:9])[C:3]([H:10])=[C:4]([H:11])[O:5][C:6]1([H:7])[H:12]"
C       -0.99839475       0.62981840      -0.16382286
C        0.23885198       1.25720161       0.08984613
C        1.32583994       0.37744376       0.05404435
C        1.02920158      -0.96891754       0.13312122
O       -0.08001337      -1.32874833       0.92175153
C       -0.91894900      -0.83154332      -0.05322989
H       -1.76922416       0.04928081       0.70106601
H       -1.72873193       1.07546048      -0.83212427
H        0.34497327       2.33218894       0.10616612
H        2.33347637       0.71353375      -0.15462548
H        1.69068457      -1.78937164      -0.10893147
H       -1.46771450      -1.51634691      -0.69326137
12
Frame=6 idx=005782 GeodesicLength=0.28742334558149185 rxn_smarts="[C:1]1([H:7])([H:8])[C:2]([H:9])=[C:3]([H:10])[C@@:4]2([H:11])[O:5][C@@:6]12[H:12]>>[C:1]1([H:8])=[C:2]([H:9])[C:3]([H:10])=[C:4]([H:11])[O:5][C:6]1([H:7])[H:12]"
C       -1.00101154       0.63368309      -0.15862889
C        0.24007412       1.25863865       0.08397964
C        1.32550365       0.37795514       0.04927709
C        1.01916623      -0.96918360       0.12659760
O       -0.07605307      -1.32775200       0.93199087
C       -0.91664578      -0.82985971      -0.04550733
H       -1.78272160       0.03994954       0.70629755
H       -1.72662413       1.07639716      -0.83407740
H        0.34835395       2.33356167       0.10428337
H        2.33575537       0.71007263      -0.15196163
H        1.68258770      -1.78957438      -0.11144168
H       -1.44838491      -1.51388819      -0.70080920
12
Frame=7 idx=005782 GeodesicLength=0.3353858840362627 rxn_smarts="[C:1]1([H:7])([H:8])[C:2]([H:9])=[C:3]([H:10])[C@@:4]2([H:11])[O:5][C@@:6]12[H:12]>>[C:1]1([H:8])=[C:2]([H:9])[C:3]([H:10])=[C:4]([H:11])[O:5][C:6]1([H:7])[H:12]"
C       -1.00355784       0.63756067      -0.15356259
C        0.24133358       1.26005750       0.07780646
C        1.32521189       0.37846197       0.04430207
C        1.00923113      -0.96938456       0.12047004
O       -0.07198239      -1.32669467       0.94205255
C       -0.91429956      -0.82817010      -0.03797157
H       -1.79626403       0.03022355       0.71121228
H       -1.72452539       1.07733800      -0.83597379
H        0.35173764       2.33485898       0.10269144
H        2.33804711       0.70659089      -0.14918879
H        1.67443827      -1.78968847      -0.11401557
H       -1.42937043      -1.51115374      -0.70782254
12
Frame=8 idx=005782 GeodesicLength=0.38336944375660353 rxn_smarts="[C:1]1([H:7])([H:8])[C:2]([H:9])=[C:3]([H:10])[C@@:4]2([H:11])[O:5][C@@:6]12[H:12]>>[C:1]1([H:8])=[C:2]([H:9])[C:3]([H:10])=[C:4]([H:11])[O:5][C:6]1([H:7])[H:12]"
C       -1.00602387       0.64145732      -0.14860244
C        0.24259835       1.26144051       0.07137823
C        1.32493776       0.37895708       0.03915235
C        0.99941982      -0.96952448       0.11467131
O       -0.06779022      -1.32562098       0.95189207
C       -0.91191010      -0.82647029      -0.03062390
H       -1.80984528       0.02007792       0.71585249
H       -1.72245427       1.07830363      -0.83776193
H        0.35515311       2.33611331       0.10112693
H        2.34038372       0.70310761      -0.14608583
H        1.66627697      -1.78971349      -0.11672676
H       -1.41074598      -1.50812814      -0.71427252
12
Frame=9 idx=005782 GeodesicLength=0.4313784836610456 rxn_smarts="[C:1]1([H:7])([H:8])[C:2]([H:9])=[C:3]([H:10])[C@@:4]2([H:11])[O:5][C@@:6]12[H:12]>>[C:1]1([H:8])=[C:2]([H:9])[C:3]([H:10])=[C:4]([H:11])[O:5][C:6]1([H:7])[H:12]"
C       -1.00841515       0.64537553      -0.14373573
C        0.24388755       1.26281248       0.06470431
C        1.32470526       0.37946285       0.03381043
C        0.98973051      -0.96961616       0.10920234
O       -0.06348946      -1.32450841       0.96153876
C       -0.90948120      -0.82475989      -0.02345420
H       -1.82348154       0.00950075       0.72019306
H       -1.72041117       1.07929772      -0.83944032
H        0.35860828       2.33732487       0.09964733
H        2.34275509       0.69962697      -0.14273229
H        1.65810491      -1.78967213      -0.11952898
H       -1.39251308      -1.50484460      -0.72020468
12
Frame=10 idx=005782 GeodesicLength=0.47945437804723684 rxn_smarts="[C:1]1([H:7])([H:8])[C:2]([H:9])=[C:3]([H:10])[C@@:4]2([H:11])[O:5][C@@:6]12[H:12]>>[C:1]1([H:8])=[C:2]([H:9])[C:3]([H:10])=[C:4]([H:11])[O:5][C:6]1([H:7])[H:12]"
C       -1.01073106       0.64932037      -0.13897928
C        0.24520465       1.26415269       0.05767950
C        1.32451036       0.37995334       0.02817410
C        0.98016411      -0.96963505       0.10401432
O       -0.05905028      -1.32333176       0.97101787
C       -0.90701730      -0.82303294      -0.01642176
H       -1.83716722      -0.00149168       0.72427771
H       -1.71842444       1.08030774      -0.84101663
H        0.36210873       2.33848192       0.09827233
H        2.34519005       0.69617329      -0.13893469
H        1.64989923      -1.78957647      -0.12247558
H       -1.37468682      -1.50132146      -0.72560787
12
Frame=11 idx=005782 GeodesicLength=0.527477122733955 rxn_smarts="[C:1]1([H:7])([H:8])[C:2]([H:9])=[C:3]([H:10])[C@@:4]2([H:11])[O:5][C@@:6]12[H:12]>>[C:1]1([H:8])=[C:2]([H:9])[C:3]([H:10])=[C:4]([H:11])[O:5][C:6]1([H:7])[H:12]"
C       -1.01297751       0.65330190      -0.13429702
C        0.24656001       1.26548999       0.05027103
C        1.32435272       0.38044193       0.02222414
C        0.97069621      -0.96959066       0.09910833
O       -0.05447643      -1.32205193       0.98035203
C       -0.90451725      -0.82126577      -0.00950873
H       -1.85082312      -0.01287421       0.72809618
H       -1.71653977       1.08133943      -0.84242287
H        0.36565975       2.33952009       0.09695731
H        2.34764486       0.69272127      -0.13463655
H        1.64160524      -1.78941772      -0.12557549
H       -1.35718473      -1.49761433      -0.73056837
12
Frame=12 idx=005782 GeodesicLength=0.5755559012357598 rxn_smarts="[C:1]1([H:7])([H:8])[C:2]([H:9])=[C:3]([H:10])[C@@:4]2([H:11])[O:5][C@@:6]12[H:12]>>[C:1]1([H:8])=[C:2]([H:9])[C:3]([H:10])=[C:4]([H:11])[O:5][C:6]1([H:7])[H:12]"
C       -1.01513932       0.65732248      -0.12971059
C        0.24794269       1.26680403       0.04252987
C        1.32423720       0.38092450       0.01597937
C        0.96135619      -0.96948654       0.09446204
O       -0.04977226      -1.32070020       0.98952956
C       -0.90198297      -0.81946975      -0.00272291
H       -1.86452373      -0.02468626       0.73164570
H       -1.71472761       1.08241472      -0.84369342
H        0.36927439       2.34049540       0.09572942
H        2.35011750       0.68929347      -0.12993229
H        1.63330776      -1.78922647      -0.12876318
H       -1.34008984      -1.49368538      -0.73505358
12
Frame=13 idx=005782 GeodesicLength=0.6236618277692193 rxn_smarts="[C:1]1([H:7])([H:8])[C:2]([H:9])=[C:3]([H:10])[C@@:4]2([H:11])[O:5][C@@:6]12[H:12]>>[C:1]1([H:8])=[C:2]([H:9])[C:3]([H:10])=[C:4]([H:11])[O:5][C:6]1([H:7])[H:12]"
C       -1.01720617       0.66138873      -0.12522965
C        0.24935556       1.26809871       0.03446702
C        1.32416649       0.38140449       0.00946625
C        0.95213928      -0.96932395       0.09007808
O       -0.04494182      -1.31926042       0.99856155
C       -0.89940805      -0.81763127       0.00393926
H       -1.87825045      -0.03692647       0.73489587
H       -1.71298256       1.08354226      -0.84483783
H        0.37295191       2.34138856       0.09465853
H        2.35257480       0.68588099      -0.12492441
H        1.62501158      -1.78899612      -0.13199230
H       -1.32341056      -1.48956550      -0.73908237
12
Frame=14 idx=005782 GeodesicLength=0.6717854495829612 rxn_smarts="[C:1]1([H:7])([H:8])[C:2]([H:9])=[C:3]([H:10])[C@@:4]2([H:11])[O:5][C@@:6]12[H:12]>>[C:1]1([H:8])=[C:2]([H:9])[C:3]([H:10])=[C:4]([H:11])[O:5][C:6]1([H:7])[H:12]"
C       -1.01916953       0.66550588      -0.12085666
C        0.25080223       1.26937982       0.02610940
C        1.32414605       0.38188658       0.00272418
C        0.94304351      -0.96910205       0.08596234
O       -0.03999794      -1.31773210       1.00745925
C       -0.89679205      -0.81574506       0.01048096
H       -1.89199868      -0.04959895       0.73782792
H       -1.71129675       1.08473433      -0.84586091
H        0.37669691       2.34219122       0.09377715
H        2.35498689       0.68248132      -0.11971683
H        1.61672515      -1.78872612      -0.13522318
H       -1.30714578      -1.48527487      -0.74268361
12
Frame=15 idx=005782 GeodesicLength=0.7199206228299249 rxn_smarts="[C:1]1([H:7])([H:8])[C:2]([H:9])=[C:3]([H:10])[C@@:4]2([H:11])[O:5][C@@:6]12[H:12]>>[C:1]1([H:8])=[C:2]([H:9])[C:3]([H:10])=[C:4]([H:11])[O:5][C:6]1([H:7])[H:12]"
C       -1.02102139       0.66967901      -0.11659067
C        0.25228356       1.27064802       0.01750015
C        1.32417854       0.38237163      -0.00418988
C        0.93406754      -0.96881873       0.08212578
O       -0.03495707      -1.31612194       1.01623161
C       -0.89413603      -0.81380558       0.01690484
H       -1.90576895      -0.06271233       0.74042530
H       -1.70965735       1.08600472      -0.84676784
H        0.38051417       2.34289705       0.09309972
H        2.35732541       0.67909426      -0.11443258
H        1.60845760      -1.78841421      -0.13841501
H       -1.29128604      -1.48082190      -0.74589142
12
Frame=16 idx=005782 GeodesicLength=0.7680603525955028 rxn_smarts="[C:1]1([H:7])([H:8])[C:2]([H:9])=[C:3]([H:10])[C@@:4]2([H:11])[O:5][C@@:6]12[H:12]>>[C:1]1([H:8])=[C:2]([H:9])[C:3]([H:10])=[C:4]([H:11])[O:5][C:6]1([H:7])[H:12]"
C       -1.02275450       0.67391326      -0.11242442
C        0.25379914       1.27190602       0.00870997
C        1.32426622       0.38286315      -0.01118868
C        0.92520977      -0.96847222       0.07859061
O       -0.02984532      -1.31444510       1.02488850
C       -0.89144262      -0.81180872       0.02321104
H       -1.91956933      -0.07628184       0.74266365
H       -1.70804155       1.08737008      -0.84756543
H        0.38440798       2.34350358       0.09263005
H        2.35956337       0.67571814      -0.10924668
H        1.60021990      -1.78805634      -0.14151883
H       -1.27581306      -1.47621001      -0.74874978
