13
Frame=0 idx=004583 GeodesicLength=0.0 rxn_smarts="[C:1]([C@@:2]1([H:10])[C:3]([H:11])([H:12])[N:4]1[C:5](=[O:6])[H:13])([H:7])([H:8])[H:9]>>[C:1](/[C:2](=[N:4]/[C:3]([C:5](=[O:6])[H:13])([H:11])[H:12])[H:10])([H:7])([H:8])[H:9]"
C       -1.83481679      -0.27412206       0.35928951
C       -0.34631304      -0.40447071       0.55975272
C        0.56745476       0.19916290      -0.70697428
N        0.42996079       0.64729198       0.82759067
C        1.99029119       0.59688756      -0.17120281
O        2.51861839       1.63846837      -0.43940538
H       -2.32310810      -0.46046175       1.31851860
H       -2.21144557      -1.01038859      -0.35294867
H       -2.09028872       0.73312183       0.03295516
H       -0.01598034      -1.42832788       0.80697599
H        0.75893341      -0.80932231      -1.08728812
H        0.04969143       0.85220980      -1.39607367
H        2.50700262      -0.28004918       0.24881027
13
Frame=1 idx=004583 GeodesicLength=0.0823241049824181 rxn_smarts="[C:1]([C@@:2]1([H:10])[C:3]([H:11])([H:12])[N:4]1[C:5](=[O:6])[H:13])([H:7])([H:8])[H:9]>>[C:1](/[C:2](=[N:4]/[C:3]([C:5](=[O:6])[H:13])([H:11])[H:12])[H:10])([H:7])([H:8])[H:9]"
C       -1.84645468      -0.27687256       0.37074536
C       -0.35585332      -0.41139238       0.54495893
C        0.57042916       0.20137923      -0.71994745
N        0.42347804       0.64142897       0.80284558
C        2.00112715       0.60011747      -0.15584826
O        2.54408937       1.62117385      -0.47058571
H       -2.32098989      -0.47241721       1.33507152
H       -2.23573749      -1.00527730      -0.34282881
H       -2.10569901       0.73353762       0.05740388
H       -0.02212392      -1.43576110       0.78226933
H        0.77335780      -0.80128651      -1.10834188
H        0.05589771       0.85669903      -1.41015398
H        2.51847908      -0.25132912       0.31441149
13
Frame=2 idx=004583 GeodesicLength=0.1645365744218763 rxn_smarts="[C:1]([C@@:2]1([H:10])[C:3]([H:11])([H:12])[N:4]1[C:5](=[O:6])[H:13])([H:7])([H:8])[H:9]>>[C:1](/[C:2](=[N:4]/[C:3]([C:5](=[O:6])[H:13])([H:11])[H:12])[H:10])([H:7])([H:8])[H:9]"
C       -1.85791931      -0.27988607       0.38264004
C       -0.36553058      -0.41829777       0.52921346
C        0.57334307       0.20376027      -0.73376616
N        0.41675996       0.63551824       0.77737484
C        2.01141350       0.60366096      -0.14005755
O        2.57155366       1.59984416      -0.50181235
H       -2.31785143      -0.48506843       1.35206213
H       -2.26036134      -1.00017539      -0.33192735
H       -2.12100270       0.73367109       0.08294139
H       -0.02828053      -1.44309859       0.75634004
H        0.78816967      -0.79281687      -1.13008184
H        0.06229992       0.86165036      -1.42494935
H        2.52740611      -0.21876197       0.38202271
13
Frame=3 idx=004583 GeodesicLength=0.246607564951924 rxn_smarts="[C:1]([C@@:2]1([H:10])[C:3]([H:11])([H:12])[N:4]1[C:5](=[O:6])[H:13])([H:7])([H:8])[H:9]>>[C:1](/[C:2](=[N:4]/[C:3]([C:5](=[O:6])[H:13])([H:11])[H:12])[H:10])([H:7])([H:8])[H:9]"
C       -1.86916750      -0.28314149       0.39499632
C       -0.37536374      -0.42525294       0.51248284
C        0.57619939       0.20623869      -0.74845605
N        0.40988314       0.62943265       0.75117596
C        2.02112035       0.60755157      -0.12389985
O        2.60092971       1.57422205      -0.53268807
H       -2.31363680      -0.49834081       1.36948166
H       -2.28535188      -0.99502224      -0.32018848
H       -2.13605962       0.73355487       0.10959551
H       -0.03450074      -1.45041528       0.72916137
H        0.80337745      -0.78398305      -1.15249904
H        0.06892796       0.86703406      -1.44047863
H        2.53364228      -0.18187808       0.45131645
13
Frame=4 idx=004583 GeodesicLength=0.3284200116603285 rxn_smarts="[C:1]([C@@:2]1([H:10])[C:3]([H:11])([H:12])[N:4]1[C:5](=[O:6])[H:13])([H:7])([H:8])[H:9]>>[C:1](/[C:2](=[N:4]/[C:3]([C:5](=[O:6])[H:13])([H:11])[H:12])[H:10])([H:7])([H:8])[H:9]"
C       -1.88013388      -0.28654702       0.40782299
C       -0.38538873      -0.43240826       0.49474742
C        0.57902451       0.20861811      -0.76400005
N        0.40298351       0.62287331       0.72431322
C        2.03020911       0.61183073      -0.10746167
O        2.63181163       1.54427295      -0.56272860
H       -2.30832383      -0.51210669       1.38727465
H       -2.31077643      -0.98955935      -0.30764609
H       -2.15059229       0.73333248       0.13745775
H       -0.04093304      -1.45789376       0.70067460
H        0.81905691      -0.77497930      -1.17550786
H        0.07583105       0.87264768      -1.45673813
H        2.53723147      -0.14008088       0.52179176
13
Frame=5 idx=004583 GeodesicLength=0.40984104113235953 rxn_smarts="[C:1]([C@@:2]1([H:10])[C:3]([H:11])([H:12])[N:4]1[C:5](=[O:6])[H:13])([H:7])([H:8])[H:9]>>[C:1](/[C:2](=[N:4]/[C:3]([C:5](=[O:6])[H:13])([H:11])[H:12])[H:10])([H:7])([H:8])[H:9]"
C       -1.89070409      -0.29036771       0.42116430
C       -0.39554849      -0.43939132       0.47594770
C        0.58170616       0.21139510      -0.78053956
N        0.39586879       0.61641619       0.69658155
C        2.03856189       0.61643054      -0.09067374
O        2.66516597       1.50881596      -0.59129583
H       -2.30160331      -0.52633664       1.40558121
H       -2.33624397      -0.98467589      -0.29374526
H       -2.16485158       0.73246146       0.16607240
H       -0.04723086      -1.46499821       0.67104950
H        0.83481422      -0.76527596      -1.19943737
H        0.08305796       0.87921651      -1.47371385
H        2.53700732      -0.09369003       0.59300894
13
Frame=6 idx=004583 GeodesicLength=0.49086248219693185 rxn_smarts="[C:1]([C@@:2]1([H:10])[C:3]([H:11])([H:12])[N:4]1[C:5](=[O:6])[H:13])([H:7])([H:8])[H:9]>>[C:1](/[C:2](=[N:4]/[C:3]([C:5](=[O:6])[H:13])([H:11])[H:12])[H:10])([H:7])([H:8])[H:9]"
C       -1.90082798      -0.29431971       0.43502913
C       -0.40593282      -0.44662877       0.45605309
C        0.58434856       0.21398761      -0.79800411
N        0.38885836       0.60928528       0.66814508
C        2.04621189       0.62133664      -0.07376486
O        2.69983121       1.46825616      -0.61802056
H       -2.29356164      -0.54108402       1.42421457
H       -2.36206930      -0.97934080      -0.27893343
H       -2.17826921       0.73151286       0.19606654
H       -0.05383453      -1.47231969       0.63998558
H        0.85094799      -0.75546676      -1.22404101
H        0.09068178       0.88608014      -1.49138613
H        2.53361569      -0.04129893       0.66465612
13
Frame=7 idx=004583 GeodesicLength=0.571567082958741 rxn_smarts="[C:1]([C@@:2]1([H:10])[C:3]([H:11])([H:12])[N:4]1[C:5](=[O:6])[H:13])([H:7])([H:8])[H:9]>>[C:1](/[C:2](=[N:4]/[C:3]([C:5](=[O:6])[H:13])([H:11])[H:12])[H:10])([H:7])([H:8])[H:9]"
C       -1.91043938      -0.29853059       0.44947589
C       -0.41654155      -0.45399036       0.43497415
C        0.58691540       0.21661928      -0.81651863
N        0.38191918       0.60169654       0.63888103
C        2.05314447       0.62649721      -0.05672155
O        2.73627528       1.42184690      -0.64215313
H       -2.28397001      -0.55632241       1.44329241
H       -2.38817011      -0.97398235      -0.26283238
H       -2.19089538       0.73025836       0.22725133
H       -0.06063874      -1.47968917       0.60750092
H        0.86723981      -0.74533481      -1.24953585
H        0.09878000       0.89363673      -1.50981241
H        2.52638104       0.01729468       0.73619823
13
Frame=8 idx=004583 GeodesicLength=0.6518203377919098 rxn_smarts="[C:1]([C@@:2]1([H:10])[C:3]([H:11])([H:12])[N:4]1[C:5](=[O:6])[H:13])([H:7])([H:8])[H:9]>>[C:1](/[C:2](=[N:4]/[C:3]([C:5](=[O:6])[H:13])([H:11])[H:12])[H:10])([H:7])([H:8])[H:9]"
C       -1.91939684      -0.30308340       0.46456656
C       -0.42737481      -0.46135349       0.41258588
C        0.58938571       0.21946083      -0.83617696
N        0.37497723       0.59379586       0.60867430
C        2.05923429       0.63187108      -0.03952705
O        2.77469349       1.36871551      -0.66282074
H       -2.27251894      -0.57199525       1.46289480
H       -2.41436790      -0.96890221      -0.24510495
H       -2.20267979       0.72851077       0.25954601
H       -0.06755869      -1.48691933       0.57352098
H        0.88355092      -0.73468667      -1.27609760
H        0.10747284       0.90217835      -1.52898972
H        2.51458249       0.08240794       0.80692849
13
Frame=9 idx=004583 GeodesicLength=0.7315853670110035 rxn_smarts="[C:1]([C@@:2]1([H:10])[C:3]([H:11])([H:12])[N:4]1[C:5](=[O:6])[H:13])([H:7])([H:8])[H:9]>>[C:1](/[C:2](=[N:4]/[C:3]([C:5](=[O:6])[H:13])([H:11])[H:12])[H:10])([H:7])([H:8])[H:9]"
C       -1.92761374      -0.30782613       0.48030032
C       -0.43851414      -0.46896885       0.38888058
C        0.59181605       0.22218083      -0.85692239
N        0.36831278       0.58503900       0.57768005
C        2.06455381       0.63724235      -0.02232281
O        2.81424619       1.30897843      -0.67920713
H       -2.25922341      -0.58818318       1.48285197
H       -2.44079067      -0.96348790      -0.22596351
H       -2.21316482       0.72657942       0.29330106
H       -0.07493307      -1.49438157       0.53783445
H        0.89992434      -0.72385591      -1.30365828
H        0.11687139       0.91144983      -1.54880525
H        2.49851528       0.15523369       0.87603093
13
Frame=10 idx=004583 GeodesicLength=0.8109417328649724 rxn_smarts="[C:1]([C@@:2]1([H:10])[C:3]([H:11])([H:12])[N:4]1[C:5](=[O:6])[H:13])([H:7])([H:8])[H:9]>>[C:1](/[C:2](=[N:4]/[C:3]([C:5](=[O:6])[H:13])([H:11])[H:12])[H:10])([H:7])([H:8])[H:9]"
C       -1.93500693      -0.31277034       0.49670289
C       -0.45003162      -0.47690539       0.36381986
C        0.59422555       0.22476012      -0.87876055
N        0.36206696       0.57523292       0.54598638
C        2.06915298       0.64243719      -0.00508268
O        2.85471063       1.24213755      -0.69039474
H       -2.24398584      -0.60499976       1.50311732
H       -2.46746309      -0.95762805      -0.20535723
H       -2.22209478       0.72450048       0.32865246
H       -0.08295370      -1.50221035       0.50029875
H        0.91624086      -0.71286359      -1.33232043
H        0.12712113       0.92161189      -1.56917004
H        2.47801785       0.23669733       0.94250802
13
Frame=11 idx=004583 GeodesicLength=0.8894020199416827 rxn_smarts="[C:1]([C@@:2]1([H:10])[C:3]([H:11])([H:12])[N:4]1[C:5](=[O:6])[H:13])([H:7])([H:8])[H:9]>>[C:1](/[C:2](=[N:4]/[C:3]([C:5](=[O:6])[H:13])([H:11])[H:12])[H:10])([H:7])([H:8])[H:9]"
C       -1.94129071      -0.31803459       0.51393832
C       -0.46189863      -0.48479744       0.33701300
C        0.59664558       0.22758971      -0.90188492
N        0.35587810       0.56485993       0.51318734
C        2.07267046       0.64740803       0.01229016
O        2.89627859       1.16712806      -0.69434337
H       -2.22603120      -0.62200579       1.52397780
H       -2.49396081      -0.95213737      -0.18229523
H       -2.22957445       0.72185238       0.36524704
H       -0.09130101      -1.50983631       0.46072678
H        0.93251884      -0.70124959      -1.36234049
H        0.13844936       0.93306917      -1.59014536
H        2.45161587       0.32615381       1.00462894
13
Frame=12 idx=004583 GeodesicLength=0.9673755321885358 rxn_smarts="[C:1]([C@@:2]1([H:10])[C:3]([H:11])([H:12])[N:4]1[C:5](=[O:6])[H:13])([H:7])([H:8])[H:9]>>[C:1](/[C:2](=[N:4]/[C:3]([C:5](=[O:6])[H:13])([H:11])[H:12])[H:10])([H:7])([H:8])[H:9]"
C       -1.94647452      -0.32357381       0.53191104
C       -0.47428520      -0.49301391       0.30870940
C        0.59908319       0.23043348      -0.92604132
N        0.35031272       0.55312499       0.47988416
C        2.07547695       0.65162481       0.02983794
O        2.93799028       1.08349786      -0.69045142
H       -2.20573893      -0.63977042       1.54505243
H       -2.52049591      -0.94622961      -0.15744558
H       -2.23502366       0.71897206       0.40354824
H       -0.10063511      -1.51792571       0.41881864
H        0.94850699      -0.68923694      -1.39374248
H        0.15097334       0.94597768      -1.61124503
H        2.42030986       0.42611952       1.06116398
13
Frame=13 idx=004583 GeodesicLength=1.0446462423534029 rxn_smarts="[C:1]([C@@:2]1([H:10])[C:3]([H:11])([H:12])[N:4]1[C:5](=[O:6])[H:13])([H:7])([H:8])[H:9]>>[C:1](/[C:2](=[N:4]/[C:3]([C:5](=[O:6])[H:13])([H:11])[H:12])[H:10])([H:7])([H:8])[H:9]"
C       -1.95034344      -0.32947844       0.55064116
C       -0.48726476      -0.50158648       0.27874017
C        0.60155974       0.23347020      -0.95102684
N        0.34546922       0.53964900       0.44632642
C        2.07754300       0.65434877       0.04782243
O        2.97923972       0.98933106      -0.67699280
H       -2.18278833      -0.65854368       1.56615757
H       -2.54687501      -0.93980388      -0.13064923
H       -2.23812489       0.71572021       0.44377328
H       -0.11118228      -1.52655441       0.37388247
H        0.96404736      -0.67647172      -1.42673933
H        0.16496420       0.96091091      -1.63178021
H        2.38375545       0.53900847       1.10984491
13
Frame=14 idx=004583 GeodesicLength=1.1211476156196667 rxn_smarts="[C:1]([C@@:2]1([H:10])[C:3]([H:11])([H:12])[N:4]1[C:5](=[O:6])[H:13])([H:7])([H:8])[H:9]>>[C:1](/[C:2](=[N:4]/[C:3]([C:5](=[O:6])[H:13])([H:11])[H:12])[H:10])([H:7])([H:8])[H:9]"
C       -1.95277844      -0.33580220       0.57023194
C       -0.50099871      -0.51026404       0.24696326
C        0.60424251       0.23690672      -0.97678656
N        0.34122894       0.52466561       0.41252406
C        2.07868556       0.65585557       0.06660728
O        3.01903087       0.88480884      -0.65112747
H       -2.15687107      -0.67822392       1.58739894
H       -2.57297281      -0.93317870      -0.10142608
H       -2.23879667       0.71195845       0.48579491
H       -0.12314956      -1.53544519       0.32585971
H        0.97963684      -0.66269230      -1.46110837
H        0.18072279       0.97792603      -1.65177837
H        2.34201976       0.66348513       1.14684676
13
Frame=15 idx=004583 GeodesicLength=1.1967079154080666 rxn_smarts="[C:1]([C@@:2]1([H:10])[C:3]([H:11])([H:12])[N:4]1[C:5](=[O:6])[H:13])([H:7])([H:8])[H:9]>>[C:1](/[C:2](=[N:4]/[C:3]([C:5](=[O:6])[H:13])([H:11])[H:12])[H:10])([H:7])([H:8])[H:9]"
C       -1.95369931      -0.34253486       0.59053556
C       -0.51558923      -0.51880750       0.21367036
C        0.60720852       0.24082125      -1.00288369
N        0.33766898       0.50818647       0.37889026
C        2.07876024       0.65636513       0.08651720
O        3.05524509       0.77104377      -0.61063666
H       -2.12814725      -0.69876311       1.60844555
H       -2.59845140      -0.92638883      -0.06988605
H       -2.23690458       0.70763391       0.52934198
H       -0.13681867      -1.54437870       0.27482866
H        0.99586310      -0.64766983      -1.49621387
H        0.19829096       0.99691051      -1.67075821
H        2.29657354       0.79758178       1.16814891
13
Frame=16 idx=004583 GeodesicLength=1.2714930179870825 rxn_smarts="[C:1]([C@@:2]1([H:10])[C:3]([H:11])([H:12])[N:4]1[C:5](=[O:6])[H:13])([H:7])([H:8])[H:9]>>[C:1](/[C:2](=[N:4]/[C:3]([C:5](=[O:6])[H:13])([H:11])[H:12])[H:10])([H:7])([H:8])[H:9]"
C       -1.95304150      -0.34951187       0.61153845
C       -0.53119379      -0.52672048       0.17899156
C        0.61064651       0.24501705      -1.02920332
N        0.33456665       0.49075265       0.34527353
C        2.07744105       0.65647076       0.10772998
O        3.08527715       0.65163219      -0.55365439
H       -2.09659379      -0.72028547       1.62904049
H       -2.62310908      -0.91914244      -0.03606963
H       -2.23236008       0.70286518       0.57462700
H       -0.15243327      -1.55281446       0.22111125
H        1.01399241      -0.63156310      -1.53104456
H        0.21765135       1.01694189      -1.68908879
H        2.24915638       0.93635810       1.17074846
