14
Frame=0 idx=003619 GeodesicLength=0.0 rxn_smarts="[C:1]([C@@:2]([O:3][H:11])([C:4]([C:5]#[C:6][H:14])([H:12])[H:13])[H:10])([H:7])([H:8])[H:9]>>[C:1]([C@@:2]([O:3][H:11])(/[C:4](=[C:5](/[C:6][H:14])[H:12])[H:13])[H:10])([H:7])([H:8])[H:9]"
C       -1.86940278       0.07365532      -0.47379280
C       -0.68261077      -0.53225041       0.25359127
O       -0.10519747      -1.48662713      -0.60323377
C        0.31634021       0.49519663       0.71963135
C        1.64959267       0.45253586       0.38151592
C        2.94188249       0.50165437       0.45183486
H       -1.53468227       0.54376787      -1.40049260
H       -2.59412729      -0.70268227      -0.71868793
H       -2.35909334       0.82681562       0.14509988
H       -1.05081505      -1.01967813       1.17241987
H        0.68126262      -1.85011064      -0.18496389
H        1.15405900       0.45122030      -0.67912828
H       -0.07355212       1.32890970       1.30129537
H        3.52634415       0.91759287      -0.36508921
14
Frame=1 idx=003619 GeodesicLength=0.058724743745934074 rxn_smarts="[C:1]([C@@:2]([O:3][H:11])([C:4]([C:5]#[C:6][H:14])([H:12])[H:13])[H:10])([H:7])([H:8])[H:9]>>[C:1]([C@@:2]([O:3][H:11])(/[C:4](=[C:5](/[C:6][H:14])[H:12])[H:13])[H:10])([H:7])([H:8])[H:9]"
C       -1.87607444       0.07265779      -0.46905635
C       -0.68343744      -0.53340385       0.24863857
O       -0.11931113      -1.49474618      -0.60968353
C        0.32126683       0.49750894       0.69337087
C        1.65881757       0.43035188       0.37528117
C        2.94517980       0.53287743       0.47823241
H       -1.55043641       0.53814421      -1.40128581
H       -2.60493381      -0.70298182      -0.70371617
H       -2.35841381       0.82904538       0.15167782
H       -1.04203233      -1.01420547       1.17446294
H        0.66632141      -1.86375030      -0.19495124
H        1.15281568       0.45306040      -0.69471891
H       -0.05694358       1.32728255       1.28772183
H        3.54718164       0.92815903      -0.33597363
14
Frame=2 idx=003619 GeodesicLength=0.1165380851120672 rxn_smarts="[C:1]([C@@:2]([O:3][H:11])([C:4]([C:5]#[C:6][H:14])([H:12])[H:13])[H:10])([H:7])([H:8])[H:9]>>[C:1]([C@@:2]([O:3][H:11])(/[C:4](=[C:5](/[C:6][H:14])[H:12])[H:13])[H:10])([H:7])([H:8])[H:9]"
C       -1.88297736       0.07107121      -0.46376007
C       -0.68361668      -0.53405291       0.24349669
O       -0.13242032      -1.50189093      -0.61636368
C        0.32609101       0.50102840       0.66615823
C        1.66737219       0.41147032       0.36720594
C        2.94545998       0.56145528       0.50454300
H       -1.56747616       0.53212016      -1.40163823
H       -2.61531975      -0.70449775      -0.68759299
H       -2.35817786       0.83034482       0.15896044
H       -1.03146251      -1.00849675       1.17640640
H        0.65306124      -1.87542573      -0.20566552
H        1.15059778       0.45726738      -0.71189476
H       -0.04105803       1.32601669       1.27355379
H        3.56992646       0.93358982      -0.30340923
14
Frame=3 idx=003619 GeodesicLength=0.1736784447834099 rxn_smarts="[C:1]([C@@:2]([O:3][H:11])([C:4]([C:5]#[C:6][H:14])([H:12])[H:13])[H:10])([H:7])([H:8])[H:9]>>[C:1]([C@@:2]([O:3][H:11])(/[C:4](=[C:5](/[C:6][H:14])[H:12])[H:13])[H:10])([H:7])([H:8])[H:9]"
C       -1.89001409       0.06900753      -0.45795787
C       -0.68325121      -0.53427458       0.23823574
O       -0.14474006      -1.50834611      -0.62306489
C        0.33082882       0.50549602       0.63809884
C        1.67534529       0.39549054       0.35733575
C        2.94335472       0.58677950       0.53020378
H       -1.58551718       0.52569317      -1.40156588
H       -2.62529644      -0.70698433      -0.67042245
H       -2.35819868       0.83096462       0.16680247
H       -1.01940043      -1.00247686       1.17829254
H        0.64119264      -1.88552204      -0.21682656
H        1.14738644       0.46339320      -0.73062660
H       -0.02571876       1.32509879       1.25865579
H        3.59402894       0.93568055      -0.26716066
14
Frame=4 idx=003619 GeodesicLength=0.23029827958017735 rxn_smarts="[C:1]([C@@:2]([O:3][H:11])([C:4]([C:5]#[C:6][H:14])([H:12])[H:13])[H:10])([H:7])([H:8])[H:9]>>[C:1]([C@@:2]([O:3][H:11])(/[C:4](=[C:5](/[C:6][H:14])[H:12])[H:13])[H:10])([H:7])([H:8])[H:9]"
C       -1.89717660       0.06641482      -0.45166408
C       -0.68233618      -0.53404827       0.23285271
O       -0.15612576      -1.51400645      -0.62981800
C        0.33530919       0.51099074       0.60935179
C        1.68268121       0.38261124       0.34592874
C        2.93925664       0.60910356       0.55522881
H       -1.60453980       0.51887822      -1.40101656
H       -2.63475995      -0.71054627      -0.65229735
H       -2.35857860       0.83077842       0.17520529
H       -1.00586553      -0.99620557       1.18003760
H        0.63086546      -1.89391684      -0.22845201
H        1.14312428       0.47166110      -0.75071802
H       -0.01116283       1.32472827       1.24299302
H        3.61930848       0.93355702      -0.22763194
14
Frame=5 idx=003619 GeodesicLength=0.28662302938666634 rxn_smarts="[C:1]([C@@:2]([O:3][H:11])([C:4]([C:5]#[C:6][H:14])([H:12])[H:13])[H:10])([H:7])([H:8])[H:9]>>[C:1]([C@@:2]([O:3][H:11])(/[C:4](=[C:5](/[C:6][H:14])[H:12])[H:13])[H:10])([H:7])([H:8])[H:9]"
C       -1.90431243       0.06359320      -0.44489140
C       -0.68101034      -0.53354112       0.22738298
O       -0.16721576      -1.51946063      -0.63642718
C        0.33986356       0.51689652       0.57978394
C        1.68973452       0.37145756       0.33288121
C        2.93382744       0.62753784       0.57934648
H       -1.62420022       0.51166950      -1.40005974
H       -2.64392102      -0.71455835      -0.63307710
H       -2.35879034       0.83041580       0.18403612
H       -0.99120951      -0.98951131       1.18173859
H        0.62124128      -1.90155574      -0.24029308
H        1.13812630       0.48081433      -0.77230351
H        0.00333854       1.32480547       1.22600721
H        3.64452797       0.93143695      -0.18412452
14
Frame=6 idx=003619 GeodesicLength=0.34267012347833425 rxn_smarts="[C:1]([C@@:2]([O:3][H:11])([C:4]([C:5]#[C:6][H:14])([H:12])[H:13])[H:10])([H:7])([H:8])[H:9]>>[C:1]([C@@:2]([O:3][H:11])(/[C:4](=[C:5](/[C:6][H:14])[H:12])[H:13])[H:10])([H:7])([H:8])[H:9]"
C       -1.91137340       0.06046953      -0.43768495
C       -0.67923764      -0.53272000       0.22184590
O       -0.17773984      -1.52453744      -0.64289126
C        0.34430943       0.52333493       0.54963198
C        1.69640234       0.36240197       0.31842241
C        2.92720571       0.64267771       0.60268704
H       -1.64439137       0.50415150      -1.39862202
H       -2.65256012      -0.71917845      -0.61302529
H       -2.35898482       0.82965277       0.19328697
H       -0.97544818      -0.98248092       1.18330950
H        0.61259879      -1.90819764      -0.25230750
H        1.13221773       0.49132192      -0.79515528
H        0.01747106       1.32543455       1.20791902
H        3.66953032       0.92766956      -0.13741652
14
Frame=7 idx=003619 GeodesicLength=0.39855592163538106 rxn_smarts="[C:1]([C@@:2]([O:3][H:11])([C:4]([C:5]#[C:6][H:14])([H:12])[H:13])[H:10])([H:7])([H:8])[H:9]>>[C:1]([C@@:2]([O:3][H:11])(/[C:4](=[C:5](/[C:6][H:14])[H:12])[H:13])[H:10])([H:7])([H:8])[H:9]"
C       -1.91824421       0.05720282      -0.43005769
C       -0.67706230      -0.53168697       0.21624288
O       -0.18794243      -1.52946906      -0.64917847
C        0.34879117       0.52996885       0.51892550
C        1.70287522       0.35478270       0.30265847
C        2.91960542       0.65468387       0.62537515
H       -1.66489582       0.49636993      -1.39671707
H       -2.66073309      -0.72407633      -0.59211083
H       -2.35887642       0.82878528       0.20290047
H       -0.95874274      -0.97512292       1.18473384
H        0.60459053      -1.91426338      -0.26445188
H        1.12557798       0.50263264      -0.81920040
H        0.03149569       1.32655191       1.18852318
H        3.69356100       0.92364064      -0.08764315
14
Frame=8 idx=003619 GeodesicLength=0.45443243009055584 rxn_smarts="[C:1]([C@@:2]([O:3][H:11])([C:4]([C:5]#[C:6][H:14])([H:12])[H:13])[H:10])([H:7])([H:8])[H:9]>>[C:1]([C@@:2]([O:3][H:11])(/[C:4](=[C:5](/[C:6][H:14])[H:12])[H:13])[H:10])([H:7])([H:8])[H:9]"
C       -1.92473487       0.05423475      -0.42200655
C       -0.67462474      -0.53063940       0.21059089
O       -0.19864169      -1.53493981      -0.65507461
C        0.35382077       0.53600739       0.48737468
C        1.70960408       0.34687975       0.28534714
C        2.91165681       0.66113761       0.64755441
H       -1.68533901       0.48838094      -1.39444607
H       -2.66874060      -0.72837272      -0.57006486
H       -2.35773760       0.82867806       0.21272771
H       -0.94142652      -0.96723995       1.18612855
H        0.59615375      -1.92088385      -0.27646816
H        1.11869560       0.51315872      -0.84471182
H        0.04643670       1.32789041       1.16719682
H        3.71487733       0.92570810      -0.03414813
14
Frame=9 idx=003619 GeodesicLength=0.5102494824556947 rxn_smarts="[C:1]([C@@:2]([O:3][H:11])([C:4]([C:5]#[C:6][H:14])([H:12])[H:13])[H:10])([H:7])([H:8])[H:9]>>[C:1]([C@@:2]([O:3][H:11])(/[C:4](=[C:5](/[C:6][H:14])[H:12])[H:13])[H:10])([H:7])([H:8])[H:9]"
C       -1.93110793       0.05077753      -0.41344061
C       -0.67158991      -0.52926610       0.20477432
O       -0.20832152      -1.53968631      -0.66112477
C        0.35846488       0.54278928       0.45543728
C        1.71593847       0.34163744       0.26713390
C        2.90212025       0.66789411       0.66949345
H       -1.70641919       0.48009201      -1.39148933
H       -2.67595689      -0.73359970      -0.54715375
H       -2.35673153       0.82777250       0.22317047
H       -0.92273353      -0.95927817       1.18712888
H        0.58922133      -1.92607839      -0.28906924
H        1.11083278       0.52558740      -0.87110630
H        0.06031045       1.33023338       1.14462093
H        3.73597235       0.92112504       0.02162479
14
Frame=10 idx=003619 GeodesicLength=0.5660596890589631 rxn_smarts="[C:1]([C@@:2]([O:3][H:11])([C:4]([C:5]#[C:6][H:14])([H:12])[H:13])[H:10])([H:7])([H:8])[H:9]>>[C:1]([C@@:2]([O:3][H:11])(/[C:4](=[C:5](/[C:6][H:14])[H:12])[H:13])[H:10])([H:7])([H:8])[H:9]"
C       -1.93711734       0.04729834      -0.40445323
C       -0.66813195      -0.52774981       0.19887667
O       -0.21773127      -1.54439774      -0.66698442
C        0.36320167       0.54952682       0.42300678
C        1.72227077       0.33741670       0.24780790
C        2.89168685       0.67181895       0.69117370
H       -1.72756464       0.47161923      -1.38799753
H       -2.68258284      -0.73886196      -0.52339146
H       -2.35516483       0.82694048       0.23394925
H       -0.90315909      -0.95102119       1.18788841
H        0.58277563      -1.93094957      -0.30178468
H        1.10231555       0.53853427      -0.89855010
H        0.07414023       1.33312951       1.12060091
H        3.75506126       0.91669596       0.07985780
14
Frame=11 idx=003619 GeodesicLength=0.6219454530246877 rxn_smarts="[C:1]([C@@:2]([O:3][H:11])([C:4]([C:5]#[C:6][H:14])([H:12])[H:13])[H:10])([H:7])([H:8])[H:9]>>[C:1]([C@@:2]([O:3][H:11])(/[C:4](=[C:5](/[C:6][H:14])[H:12])[H:13])[H:10])([H:7])([H:8])[H:9]"
C       -1.94242563       0.04454439      -0.39506928
C       -0.66444274      -0.52637953       0.19295818
O       -0.22803999      -1.55002222      -0.67229278
C        0.36886074       0.55498241       0.38977211
C        1.72924502       0.33170289       0.22687322
C        2.88137132       0.66826802       0.71249706
H       -1.74808578       0.46327911      -1.38408551
H       -2.68898204      -0.74274574      -0.49861621
H       -2.35195624       0.82746794       0.24484392
H       -0.88322949      -0.94225025       1.18858057
H        0.57527750      -1.93710378      -0.31415836
H        1.09374763       0.54986651      -0.92744850
H        0.08959666       1.33582857       1.09465547
H        3.76906304       0.92256167       0.14149012
14
Frame=12 idx=003619 GeodesicLength=0.6777314200714831 rxn_smarts="[C:1]([C@@:2]([O:3][H:11])([C:4]([C:5]#[C:6][H:14])([H:12])[H:13])[H:10])([H:7])([H:8])[H:9]>>[C:1]([C@@:2]([O:3][H:11])(/[C:4](=[C:5](/[C:6][H:14])[H:12])[H:13])[H:10])([H:7])([H:8])[H:9]"
C       -1.94774093       0.04049791      -0.38525870
C       -0.65990577      -0.52431641       0.18692113
O       -0.23585684      -1.55400346      -0.67776526
C        0.37318924       0.56253731       0.35660113
C        1.73524238       0.33140694       0.20560381
C        2.86844882       0.66977764       0.73339557
H       -1.76957132       0.45416190      -1.37940906
H       -2.69384892      -0.74907745      -0.47338627
H       -2.34991915       0.82588914       0.25630045
H       -0.86147573      -0.93337999       1.18874985
H        0.57107146      -1.94015606      -0.32709317
H        1.08325206       0.56546648      -0.95668449
H        0.10214994       1.34048769       1.06814832
H        3.78496476       0.91070836       0.20387670
14
Frame=13 idx=003619 GeodesicLength=0.7336834523026525 rxn_smarts="[C:1]([C@@:2]([O:3][H:11])([C:4]([C:5]#[C:6][H:14])([H:12])[H:13])[H:10])([H:7])([H:8])[H:9]>>[C:1]([C@@:2]([O:3][H:11])(/[C:4](=[C:5](/[C:6][H:14])[H:12])[H:13])[H:10])([H:7])([H:8])[H:9]"
C       -1.95206894       0.03771329      -0.37508268
C       -0.65523264      -0.52263523       0.18086104
O       -0.24517832      -1.55933395      -0.68266101
C        0.37889965       0.56796905       0.32269492
C        1.74230231       0.32808394       0.18285393
C        2.85603418       0.66165202       0.75405739
H       -1.78988419       0.44562439      -1.37430122
H       -2.69861686      -0.75305312      -0.44721909
H       -2.34553359       0.82642855       0.26780845
H       -0.83971555      -0.92413921       1.18879643
H        0.56497643      -1.94537482      -0.33966143
H        1.07312690       0.57827155      -0.98724736
H        0.11720043       1.34423068       1.03987070
H        3.79369020       0.91456284       0.26922994
14
Frame=14 idx=003619 GeodesicLength=0.7895866843061614 rxn_smarts="[C:1]([C@@:2]([O:3][H:11])([C:4]([C:5]#[C:6][H:14])([H:12])[H:13])[H:10])([H:7])([H:8])[H:9]>>[C:1]([C@@:2]([O:3][H:11])(/[C:4](=[C:5](/[C:6][H:14])[H:12])[H:13])[H:10])([H:7])([H:8])[H:9]"
C       -1.95629769       0.03360061      -0.36454635
C       -0.64969231      -0.52021044       0.17474668
O       -0.25191967      -1.56314542      -0.68747273
C        0.38325763       0.57556519       0.28881487
C        1.74845755       0.33021146       0.15986795
C        2.84099564       0.65896237       0.77395180
H       -1.81097656       0.43607059      -1.36851997
H       -2.70172901      -0.75950093      -0.42059859
H       -2.34223458       0.82495835       0.27966628
H       -0.81619395      -0.91454050       1.18840562
H        0.56222544      -1.94756438      -0.35247239
H        1.06100540       0.59513332      -1.01811213
H        0.12931598       1.35010896       1.01095754
H        3.80378612       0.90035082       0.33531142
14
Frame=15 idx=003619 GeodesicLength=0.8456243614874187 rxn_smarts="[C:1]([C@@:2]([O:3][H:11])([C:4]([C:5]#[C:6][H:14])([H:12])[H:13])[H:10])([H:7])([H:8])[H:9]>>[C:1]([C@@:2]([O:3][H:11])(/[C:4](=[C:5](/[C:6][H:14])[H:12])[H:13])[H:10])([H:7])([H:8])[H:9]"
C       -1.95992436       0.02947033      -0.35366720
C       -0.64363148      -0.51758142       0.16859663
O       -0.25802137      -1.56682947      -0.69195484
C        0.38760217       0.58320996       0.25465386
C        1.75471465       0.33359295       0.13615128
C        2.82483283       0.65396421       0.79341321
H       -1.83177115       0.42633519      -1.36216648
H       -2.70385777      -0.76600248      -0.39337676
H       -2.33829616       0.82353195       0.29171537
H       -0.79181044      -0.90455790       1.18770157
H        0.56028075      -1.94927581      -0.36520847
H        1.04800434       0.61270893      -1.04966296
H        0.14117738       1.35656340       0.98102909
H        3.81070060       0.88487016       0.40277570
14
Frame=16 idx=003619 GeodesicLength=0.9018499576623753 rxn_smarts="[C:1]([C@@:2]([O:3][H:11])([C:4]([C:5]#[C:6][H:14])([H:12])[H:13])[H:10])([H:7])([H:8])[H:9]>>[C:1]([C@@:2]([O:3][H:11])(/[C:4](=[C:5](/[C:6][H:14])[H:12])[H:13])[H:10])([H:7])([H:8])[H:9]"
C       -1.96269250       0.02592708      -0.34244953
C       -0.63716760      -0.51498286       0.16242500
O       -0.26427456      -1.57092568      -0.69600406
C        0.39254011       0.58997310       0.22014865
C        1.76152617       0.33642732       0.11144905
C        2.80831512       0.64305675       0.81215210
H       -1.85176740       0.41685782      -1.35526379
H       -2.70524947      -0.77146579      -0.36552789
H       -2.33293523       0.82305068       0.30387877
H       -0.76691446      -0.89425657       1.18671050
H        0.55810131      -1.95155042      -0.37775749
H        1.03453056       0.62970199      -1.08201705
H        0.15405704       1.36273966       0.95017186
H        3.81193090       0.87544690       0.47208385
