15
Frame=0 idx=007174 GeodesicLength=0.0 rxn_smarts="[C:1]([C@@:2]1([H:11])[C:3]([H:12])([H:13])[N:4]1[C:5]([C:6]#[N:7])([H:14])[H:15])([H:8])([H:9])[H:10]>>[C:1]([C@@:2]1([H:11])[C@@:3]2([H:13])[N:4]1[C:5]([H:14])([H:15])[C:6][N:7]2[H:12])([H:8])([H:9])[H:10]"
C       -1.80890937      -0.97962443       0.71133389
C       -0.62523504      -0.48203244      -0.07373690
C       -0.41907550       0.90089471      -0.53018559
N        0.25940574       0.47792562       0.58859549
C        1.70494631       0.31330745       0.57375173
C        2.19044618       0.40388831      -0.86615745
N        1.43842638       0.73404161      -1.74374470
H       -2.21993049      -0.17895799       1.32684933
H       -1.52897627      -1.80873856       1.36603282
H       -2.59210306      -1.33413917       0.03747987
H       -0.12911892      -1.24334828      -0.67973816
H        0.63725978       0.95124142      -2.31106028
H       -1.09141852       1.75188368      -0.54931284
H        2.18979988       1.12588543       1.11839164
H        1.99448296      -0.63222735       1.03150110
15
Frame=1 idx=007174 GeodesicLength=0.12660893257787859 rxn_smarts="[C:1]([C@@:2]1([H:11])[C:3]([H:12])([H:13])[N:4]1[C:5]([C:6]#[N:7])([H:14])[H:15])([H:8])([H:9])[H:10]>>[C:1]([C@@:2]1([H:11])[C@@:3]2([H:13])[N:4]1[C:5]([H:14])([H:15])[C:6][N:7]2[H:12])([H:8])([H:9])[H:10]"
C       -1.81229175      -0.97856778       0.70414346
C       -0.62259416      -0.48643694      -0.07468292
C       -0.41080297       0.89589317      -0.53260553
N        0.26306732       0.46687583       0.59215182
C        1.70968554       0.32027622       0.57157103
C        2.19941493       0.37734413      -0.86606576
N        1.44963628       0.70095042      -1.74952815
H       -2.21532380      -0.18011889       1.32771555
H       -1.53984209      -1.81695574       1.35004502
H       -2.59897575      -1.31912542       0.02718167
H       -0.13450849      -1.24798975      -0.68614325
H        0.60385614       0.97991593      -2.27428008
H       -1.08823276       1.74322824      -0.53679747
H        2.18576734       1.15370454       1.09295775
H        2.01114422      -0.60899399       1.05433686
15
Frame=2 idx=007174 GeodesicLength=0.2532772838544426 rxn_smarts="[C:1]([C@@:2]1([H:11])[C:3]([H:12])([H:13])[N:4]1[C:5]([C:6]#[N:7])([H:14])[H:15])([H:8])([H:9])[H:10]>>[C:1]([C@@:2]1([H:11])[C@@:3]2([H:13])[N:4]1[C:5]([H:14])([H:15])[C:6][N:7]2[H:12])([H:8])([H:9])[H:10]"
C       -1.81573041      -0.97760255       0.69712102
C       -0.62026552      -0.49071488      -0.07559530
C       -0.40298961       0.89121529      -0.53438942
N        0.26664782       0.45558177       0.59590357
C        1.71416941       0.32734517       0.56892878
C        2.20784600       0.35153565      -0.86578063
N        1.45990133       0.66817448      -1.75496209
H       -2.21066789      -0.18178927       1.32912016
H       -1.55070630      -1.82534871       1.33374282
H       -2.60591021      -1.30390273       0.01724095
H       -0.14052599      -1.25214497      -0.69304563
H        0.57445098       1.00661974      -2.23725679
H       -1.08524333       1.73478906      -0.52363302
H        2.18106006       1.18095339       1.06648448
H        2.02796368      -0.58471143       1.07612108
15
Frame=3 idx=007174 GeodesicLength=0.3799471315789409 rxn_smarts="[C:1]([C@@:2]1([H:11])[C:3]([H:12])([H:13])[N:4]1[C:5]([C:6]#[N:7])([H:14])[H:15])([H:8])([H:9])[H:10]>>[C:1]([C@@:2]1([H:11])[C@@:3]2([H:13])[N:4]1[C:5]([H:14])([H:15])[C:6][N:7]2[H:12])([H:8])([H:9])[H:10]"
C       -1.81919682      -0.97669821       0.69022069
C       -0.61817559      -0.49485518      -0.07648327
C       -0.39553145       0.88685933      -0.53555834
N        0.27019971       0.44405135       0.59986129
C        1.71843234       0.33447052       0.56594701
C        2.21586667       0.32638100      -0.86518767
N        1.46951175       0.63591096      -1.75992368
H       -2.20598172      -0.18392788       1.33095321
H       -1.56156724      -1.83384326       1.31712130
H       -2.61283637      -1.28847699       0.00759554
H       -0.14707123      -1.25578300      -0.70043434
H        0.54807708       1.03123809      -2.20037183
H       -1.08234864       1.72656342      -0.50985711
H        2.17571592       1.20753726       1.03915317
H        2.04490559      -0.55942739       1.09696403
15
Frame=4 idx=007174 GeodesicLength=0.5065855020734635 rxn_smarts="[C:1]([C@@:2]1([H:11])[C:3]([H:12])([H:13])[N:4]1[C:5]([C:6]#[N:7])([H:14])[H:15])([H:8])([H:9])[H:10]>>[C:1]([C@@:2]1([H:11])[C@@:3]2([H:13])[N:4]1[C:5]([H:14])([H:15])[C:6][N:7]2[H:12])([H:8])([H:9])[H:10]"
C       -1.82266121      -0.97583065       0.68341586
C       -0.61626394      -0.49887107      -0.07735768
C       -0.38834453       0.88279679      -0.53616268
N        0.27376260       0.43228557       0.60401332
C        1.72249518       0.34161937       0.56272857
C        2.22359305       0.30183466      -0.86418287
N        1.47868754       0.60406387      -1.76438224
H       -2.20125658      -0.18648909       1.33313762
H       -1.57241779      -1.84238210       1.30019212
H       -2.61970273      -1.27284763      -0.00178585
H       -0.15405956      -1.25892403      -0.70827504
H        0.52396187       1.05399872      -2.16389774
H       -1.07946539       1.71853209      -0.49553421
H        2.16974068       1.23339362       1.01112715
H        2.06193081      -0.53318014       1.11696367
15
Frame=5 idx=007174 GeodesicLength=0.6332641644014121 rxn_smarts="[C:1]([C@@:2]1([H:11])[C:3]([H:12])([H:13])[N:4]1[C:5]([C:6]#[N:7])([H:14])[H:15])([H:8])([H:9])[H:10]>>[C:1]([C@@:2]1([H:11])[C@@:3]2([H:13])[N:4]1[C:5]([H:14])([H:15])[C:6][N:7]2[H:12])([H:8])([H:9])[H:10]"
C       -1.82610300      -0.97498648       0.67669086
C       -0.61448718      -0.50278730      -0.07823171
C       -0.38136330       0.87898819      -0.53626922
N        0.27736880       0.42028597       0.60832988
C        1.72637770       0.34877234       0.55935198
C        2.23113318       0.27787071      -0.86267869
N        1.48760215       0.57239921      -1.76834201
H       -2.19647615      -0.18943485       1.33561346
H       -1.58325421      -1.85092408       1.28297501
H       -2.62648372      -1.25702341      -0.01091243
H       -0.16142966      -1.26161310      -0.71652215
H        0.50149761       1.07529342      -2.12800363
H       -1.07652810       1.71066755      -0.48073614
H        2.16314804       1.25848581       0.98253291
H        2.07899785      -0.50599398       1.13620187
15
Frame=6 idx=007174 GeodesicLength=0.7599306870373655 rxn_smarts="[C:1]([C@@:2]1([H:11])[C:3]([H:12])([H:13])[N:4]1[C:5]([C:6]#[N:7])([H:14])[H:15])([H:8])([H:9])[H:10]>>[C:1]([C@@:2]1([H:11])[C@@:3]2([H:13])[N:4]1[C:5]([H:14])([H:15])[C:6][N:7]2[H:12])([H:8])([H:9])[H:10]"
C       -1.82949918      -0.97415305       0.67003866
C       -0.61280681      -0.50662768      -0.07911657
C       -0.37453324       0.87538617      -0.53593957
N        0.28103847       0.40804725       0.61277592
C        1.73008018       0.35591900       0.55586996
C        2.23857647       0.25447792      -0.86061351
N        1.49638395       0.54064654      -1.77181941
H       -2.19160664      -0.19274579       1.33835348
H       -1.59407714      -1.85944077       1.26547398
H       -2.63315493      -1.24098428      -0.01977918
H       -0.16912697      -1.26388710      -0.72513152
H        0.48024014       1.09552662      -2.09278738
H       -1.07348366       1.70292283      -0.46551950
H        2.15592249       1.28278644       0.95346239
H        2.09604688      -0.47787411       1.15473223
15
Frame=7 idx=007174 GeodesicLength=0.8865911486316842 rxn_smarts="[C:1]([C@@:2]1([H:11])[C:3]([H:12])([H:13])[N:4]1[C:5]([C:6]#[N:7])([H:14])[H:15])([H:8])([H:9])[H:10]>>[C:1]([C@@:2]1([H:11])[C@@:3]2([H:13])[N:4]1[C:5]([H:14])([H:15])[C:6][N:7]2[H:12])([H:8])([H:9])[H:10]"
C       -1.83283286      -0.97332373       0.66345409
C       -0.61119525      -0.51041608      -0.08002714
C       -0.36781495       0.87194615      -0.53523823
N        0.28478812       0.39556737       0.61730978
C        1.73360629       0.36305430       0.55231785
C        2.24600486       0.23163604      -0.85794077
N        1.50513761       0.50851808      -1.77482908
H       -2.18662321      -0.19640585       1.34132848
H       -1.60488366      -1.86790573       1.24769995
H       -2.63970137      -1.22472867      -0.02837532
H       -0.17711187      -1.26578721      -0.73406367
H        0.45983852       1.11513015      -2.05827509
H       -1.07029773       1.69525247      -0.44993415
H        2.14806639       1.30627916       0.92397372
H        2.11301912      -0.44881645       1.17259958
15
Frame=8 idx=007174 GeodesicLength=1.0132505885877037 rxn_smarts="[C:1]([C@@:2]1([H:11])[C:3]([H:12])([H:13])[N:4]1[C:5]([C:6]#[N:7])([H:14])[H:15])([H:8])([H:9])[H:10]>>[C:1]([C@@:2]1([H:11])[C@@:3]2([H:13])[N:4]1[C:5]([H:14])([H:15])[C:6][N:7]2[H:12])([H:8])([H:9])[H:10]"
C       -1.83608785      -0.97249459       0.65693352
C       -0.60963009      -0.51417313      -0.08098063
C       -0.36117776       0.86862783      -0.53422892
N        0.28862986       0.38284668       0.62188803
C        1.73695621       0.37017691       0.54871766
C        2.25349121       0.20931994      -0.85462592
N        1.51394945       0.47573052      -1.77737951
H       -2.18150230      -0.20040432       1.34451446
H       -1.61566779      -1.87629655       1.22966295
H       -2.64610936      -1.20825787      -0.03668749
H       -0.18535217      -1.26735108      -0.74328592
H        0.44001149       1.13452380      -2.02444444
H       -1.06694765       1.68761076      -0.43402251
H        2.13958562       1.32895092       0.89410149
H        2.12985111      -0.41880980       1.18983723
15
Frame=9 idx=007174 GeodesicLength=1.139904624762542 rxn_smarts="[C:1]([C@@:2]1([H:11])[C:3]([H:12])([H:13])[N:4]1[C:5]([C:6]#[N:7])([H:14])[H:15])([H:8])([H:9])[H:10]>>[C:1]([C@@:2]1([H:11])[C@@:3]2([H:13])[N:4]1[C:5]([H:14])([H:15])[C:6][N:7]2[H:12])([H:8])([H:9])[H:10]"
C       -1.83924492      -0.97166364       0.65047389
C       -0.60809296      -0.51791688      -0.08199709
C       -0.35460270       0.86539489      -0.53297133
N        0.29257139       0.36988569       0.62646577
C        1.74012614       0.37728544       0.54507818
C        2.26109628       0.18749026      -0.85064400
N        1.52288877       0.44199225      -1.77946812
H       -2.17622522      -0.20472972       1.34788352
H       -1.62641162      -1.88458646       1.21138148
H       -2.65235716      -1.19158779      -0.04470245
H       -0.19382294      -1.26861438      -0.75277423
H        0.42054485       1.15414362      -1.99123940
H       -1.06342571       1.67995194      -0.41781198
H        2.13048933       1.35079127       0.86385375
H        2.14646647      -0.38783648       1.20647200
15
Frame=10 idx=007174 GeodesicLength=1.2665423753314147 rxn_smarts="[C:1]([C@@:2]1([H:11])[C:3]([H:12])([H:13])[N:4]1[C:5]([C:6]#[N:7])([H:14])[H:15])([H:8])([H:9])[H:10]>>[C:1]([C@@:2]1([H:11])[C@@:3]2([H:13])[N:4]1[C:5]([H:14])([H:15])[C:6][N:7]2[H:12])([H:8])([H:9])[H:10]"
C       -1.84228953      -0.97083101       0.64407096
C       -0.60656950      -0.52166045      -0.08309919
C       -0.34807046       0.86221669      -0.53153075
N        0.29661977       0.35669214       0.63099599
C        1.74311356       0.38438390       0.54140126
C        2.26888039       0.16611318      -0.84597485
N        1.53202525       0.40703692      -1.78107536
H       -2.17077164      -0.20937793       1.35141421
H       -1.63710224      -1.89275814       1.19286387
H       -2.65843488      -1.17472904      -0.05240590
H       -0.20250629      -1.26960671      -0.76250974
H        0.40123700       1.17437563      -1.95856002
H       -1.05972588       1.67223022      -0.40133485
H        2.12079736       1.37178943       0.83322675
H        2.16279711      -0.35587482       1.22251760
15
Frame=11 idx=007174 GeodesicLength=1.3931635621047336 rxn_smarts="[C:1]([C@@:2]1([H:11])[C:3]([H:12])([H:13])[N:4]1[C:5]([C:6]#[N:7])([H:14])[H:15])([H:8])([H:9])[H:10]>>[C:1]([C@@:2]1([H:11])[C@@:3]2([H:13])[N:4]1[C:5]([H:14])([H:15])[C:6][N:7]2[H:12])([H:8])([H:9])[H:10]"
C       -1.84520375      -0.96999820       0.63771923
C       -0.60504695      -0.52541448      -0.08431271
C       -0.34156724       0.85906575      -0.52997217
N        0.30077940       0.34327487       0.63542919
C        1.74591299       0.39147690       0.53767865
C        2.27689638       0.14514521      -0.84060039
N        1.54142407       0.37058136      -1.78216512
H       -2.16512187      -0.21434490       1.35508114
H       -1.64771843      -1.90079258       1.17412171
H       -2.66432604      -1.15770072      -0.05978505
H       -0.21138920      -1.27035598      -0.77247972
H        0.38191332       1.19562549      -1.92627911
H       -1.05584912       1.66439789      -0.38461245
H        2.11053317       1.39193524       0.80219413
H        2.17876326      -0.32289585       1.23798266
15
Frame=12 idx=007174 GeodesicLength=1.5197652987340764 rxn_smarts="[C:1]([C@@:2]1([H:11])[C:3]([H:12])([H:13])[N:4]1[C:5]([C:6]#[N:7])([H:14])[H:15])([H:8])([H:9])[H:10]>>[C:1]([C@@:2]1([H:11])[C@@:3]2([H:13])[N:4]1[C:5]([H:14])([H:15])[C:6][N:7]2[H:12])([H:8])([H:9])[H:10]"
C       -1.84796909      -0.96916729       0.63141167
C       -0.60351430      -0.52918576      -0.08566774
C       -0.33508260       0.85591841      -0.52836517
N        0.30505317       0.32964736       0.63971269
C        1.74851948       0.39857010       0.53389440
C        2.28519727       0.12454218      -0.83450425
N        1.55115258       0.33233226      -1.78268299
H       -2.15925945      -0.21962511       1.35885512
H       -1.65823239      -1.90866900       1.15516958
H       -2.67001375      -1.14052938      -0.06682909
H       -0.22046173      -1.27088752      -0.78267768
H        0.36240439       1.21830268      -1.89423828
H       -1.05180302       1.65640437      -0.36766158
H        2.09972800       1.41121568       0.77071706
H        2.19428146      -0.28886898       1.25286626
15
Frame=13 idx=007174 GeodesicLength=1.646351675088816 rxn_smarts="[C:1]([C@@:2]1([H:11])[C:3]([H:12])([H:13])[N:4]1[C:5]([C:6]#[N:7])([H:14])[H:15])([H:8])([H:9])[H:10]>>[C:1]([C@@:2]1([H:11])[C@@:3]2([H:13])[N:4]1[C:5]([H:14])([H:15])[C:6][N:7]2[H:12])([H:8])([H:9])[H:10]"
C       -1.85056580      -0.96834154       0.62513828
C       -0.60196107      -0.53297815      -0.08719904
C       -0.32860533       0.85275516      -0.52678814
N        0.30944336       0.31582856       0.64378958
C        1.75092772       0.40567248       0.53002452
C        2.29383461       0.10425749      -0.82766861
N        1.56128335       0.29197522      -1.78255401
H       -2.15316437      -0.22521434       1.36270640
H       -1.66861444      -1.91637133       1.13601813
H       -2.67548156      -1.12324154      -0.07353068
H       -0.22971731      -1.27122719      -0.79310156
H        0.34253211       1.24282777      -1.86223622
H       -1.04759603       1.64819570      -0.35049735
H        2.08842062       1.42961782       0.73873799
H        2.20926413      -0.25375612       1.26716071
15
Frame=14 idx=007174 GeodesicLength=1.772921315435263 rxn_smarts="[C:1]([C@@:2]1([H:11])[C:3]([H:12])([H:13])[N:4]1[C:5]([C:6]#[N:7])([H:14])[H:15])([H:8])([H:9])[H:10]>>[C:1]([C@@:2]1([H:11])[C@@:3]2([H:13])[N:4]1[C:5]([H:14])([H:15])[C:6][N:7]2[H:12])([H:8])([H:9])[H:10]"
C       -1.85297219      -0.96752384       0.61888526
C       -0.60037715      -0.53679132      -0.08894764
C       -0.32212454       0.84955904      -0.52532945
N        0.31395103       0.30184292       0.64759619
C        1.75313258       0.41279552       0.52603521
C        2.30286135       0.08424167      -0.82007552
N        1.57189839       0.24916333      -1.78167415
H       -2.14681528      -0.23110768       1.36660153
H       -1.67882862      -1.92388260       1.11667537
H       -2.68071215      -1.10586585      -0.07988571
H       -0.23915188      -1.27139910      -0.80375541
H        0.32210371       1.26964325      -1.83002539
H       -1.04324105       1.63970897      -0.33312924
H        2.07665689       1.44712734       0.70617990
H        2.22361890      -0.21751165       1.28084906
15
Frame=15 idx=007174 GeodesicLength=1.8994748705194302 rxn_smarts="[C:1]([C@@:2]1([H:11])[C:3]([H:12])([H:13])[N:4]1[C:5]([C:6]#[N:7])([H:14])[H:15])([H:8])([H:9])[H:10]>>[C:1]([C@@:2]1([H:11])[C@@:3]2([H:13])[N:4]1[C:5]([H:14])([H:15])[C:6][N:7]2[H:12])([H:8])([H:9])[H:10]"
C       -1.85516418      -0.96671702       0.61263312
C       -0.59875244      -0.54062056      -0.09096292
C       -0.31562674       0.84631791      -0.52409327
N        0.31857729       0.28772218       0.65106028
C        1.75512967       0.41995537       0.52188153
C        2.31233284       0.06444194      -0.81170444
N        1.58309136       0.20350105      -1.77990562
H       -2.14018550      -0.23730034       1.37050384
H       -1.68883491      -1.93118909       1.09714231
H       -2.68568832      -1.08842931      -0.08589551
H       -0.24876493      -1.27142845      -0.81464966
H        0.30089757       1.29922137      -1.79729288
H       -1.03875276       1.63087178      -0.31556272
H        2.06449120       1.46373031       0.67294061
H        2.23724985      -0.18007716       1.29390533
15
Frame=16 idx=007174 GeodesicLength=2.026010885790164 rxn_smarts="[C:1]([C@@:2]1([H:11])[C:3]([H:12])([H:13])[N:4]1[C:5]([C:6]#[N:7])([H:14])[H:15])([H:8])([H:9])[H:10]>>[C:1]([C@@:2]1([H:11])[C@@:3]2([H:13])[N:4]1[C:5]([H:14])([H:15])[C:6][N:7]2[H:12])([H:8])([H:9])[H:10]"
C       -1.85711424      -0.96592204       0.60635456
C       -0.59707658      -0.54445426      -0.09330617
C       -0.30909532       0.84302538      -0.52320350
N        0.32332313       0.27350668       0.65409708
C        1.75691613       0.42717302       0.51750419
C        2.32230972       0.04480201      -0.80253332
N        1.59497367       0.15452701      -1.77706368
H       -2.13324371      -0.24378570       1.37436996
H       -1.69858516      -1.93827571       1.07741226
H       -2.69039163      -1.07095815      -0.09156794
H       -0.25855897      -1.27133880      -0.82580446
H        0.27864934       1.33207131      -1.76364397
H       -1.03414995       1.62159626      -0.29779441
H        2.05198703       1.47941192       0.63888853
H        2.25005655      -0.14137893       1.30629086
