14
Frame=0 idx=002615 GeodesicLength=0.0 rxn_smarts="[C:1]([C@@:2]([O:3][H:11])([C@@:4]1([H:12])[C:5]([H:13])([H:14])[O:6]1)[H:10])([H:7])([H:8])[H:9]>>[C:1](/[C:2](=[C:4]1\[C:5]([H:13])([H:14])[O:6]1)[H:10])([H:7])([H:8])[H:9].[O:3]([H:11])[H:12]"
C        1.18912020      -0.65887191       0.89756097
C        0.32703687       0.43885736       0.37074634
O        1.38385706       1.12034906      -0.96089738
C       -0.72525087       0.14885973      -0.55562830
C       -1.89609702      -0.69080838      -0.38881940
O       -2.02300944       0.72813804      -0.39862933
H        1.31478337      -1.44138571       0.15004524
H        2.16801705      -0.30409113       1.21414468
H        0.68038106      -1.09254398       1.76390027
H        0.24824974       1.33351991       0.98601808
H        1.32203658       2.08417393      -0.98162633
H        0.44418553       0.69388908      -1.41727701
H       -2.11709039      -1.15651673       0.57070101
H       -2.31621976      -1.20356929      -1.25023878
14
Frame=1 idx=002615 GeodesicLength=0.0895588176438103 rxn_smarts="[C:1]([C@@:2]([O:3][H:11])([C@@:4]1([H:12])[C:5]([H:13])([H:14])[O:6]1)[H:10])([H:7])([H:8])[H:9]>>[C:1](/[C:2](=[C:4]1\[C:5]([H:13])([H:14])[O:6]1)[H:10])([H:7])([H:8])[H:9].[O:3]([H:11])[H:12]"
C        1.20327333      -0.66776201       0.90798802
C        0.33808817       0.42890502       0.38213965
O        1.37560104       1.14748872      -0.97148472
C       -0.71041864       0.13045757      -0.54247786
C       -1.90291018      -0.67747220      -0.39322873
O       -1.99330947       0.74521252      -0.42046156
H        1.33464915      -1.44939046       0.16038617
H        2.18127523      -0.30809811       1.22251463
H        0.69933009      -1.10638027       1.77446077
H        0.24280558       1.31346000       1.00964227
H        1.24567368       2.10419601      -0.99992664
H        0.45509028       0.65070962      -1.43477970
H       -2.15387104      -1.12634845       0.56667379
H       -2.31527721      -1.18497797      -1.26144608
14
Frame=2 idx=002615 GeodesicLength=0.1787057504496692 rxn_smarts="[C:1]([C@@:2]([O:3][H:11])([C@@:4]1([H:12])[C:5]([H:13])([H:14])[O:6]1)[H:10])([H:7])([H:8])[H:9]>>[C:1](/[C:2](=[C:4]1\[C:5]([H:13])([H:14])[O:6]1)[H:10])([H:7])([H:8])[H:9].[O:3]([H:11])[H:12]"
C        1.21687857      -0.67611649       0.91879289
C        0.34905610       0.41991336       0.39396876
O        1.36481114       1.17344048      -0.98426173
C       -0.69655924       0.11363709      -0.52818163
C       -1.90851388      -0.66421464      -0.39856124
O       -1.96384930       0.76108856      -0.43917501
H        1.35225470      -1.45758153       0.17158396
H        2.19462201      -0.31225133       1.22995351
H        0.71816204      -1.11848667       1.78620614
H        0.23836466       1.29448280       1.03291122
H        1.17117364       2.11901046      -1.01798131
H        0.46398855       0.61054488      -1.45093308
H       -2.18801735      -1.09809949       0.56008153
H       -2.31237165      -1.16536750      -1.27440401
14
Frame=3 idx=002615 GeodesicLength=0.2675004724682007 rxn_smarts="[C:1]([C@@:2]([O:3][H:11])([C@@:4]1([H:12])[C:5]([H:13])([H:14])[O:6]1)[H:10])([H:7])([H:8])[H:9]>>[C:1](/[C:2](=[C:4]1\[C:5]([H:13])([H:14])[O:6]1)[H:10])([H:7])([H:8])[H:9].[O:3]([H:11])[H:12]"
C        1.22986795      -0.68400185       0.92989350
C        0.36000899       0.41187662       0.40603407
O        1.35187194       1.19826339      -0.99908498
C       -0.68360746       0.09836165      -0.51293270
C       -1.91291506      -0.65111343      -0.40463751
O       -1.93479889       0.77590157      -0.45486354
H        1.36771609      -1.46596067       0.18349906
H        2.20791688      -0.31666879       1.23666084
H        0.73660602      -1.12902508       1.79889172
H        0.23486670       1.27654718       1.05577279
H        1.09877155       2.12943343      -1.03559116
H        0.47084486       0.57308906      -1.46617435
H       -2.21959924      -1.07177879       0.55131771
H       -2.30755032      -1.14492428      -1.28878545
14
Frame=4 idx=002615 GeodesicLength=0.356054479967165 rxn_smarts="[C:1]([C@@:2]([O:3][H:11])([C@@:4]1([H:12])[C:5]([H:13])([H:14])[O:6]1)[H:10])([H:7])([H:8])[H:9]>>[C:1](/[C:2](=[C:4]1\[C:5]([H:13])([H:14])[O:6]1)[H:10])([H:7])([H:8])[H:9].[O:3]([H:11])[H:12]"
C        1.24220845      -0.69149340       0.94123378
C        0.37100161       0.40477810       0.41818125
O        1.33707999       1.22205082      -1.01584265
C       -0.67148360       0.08458371      -0.49691847
C       -1.91612736      -0.63822027      -0.41130503
O       -1.90629499       0.78979792      -0.46768589
H        1.38118140      -1.47454490       0.19601581
H        2.22105717      -0.32145358       1.24282211
H        0.75446927      -1.13817444       1.81233378
H        0.23223959       1.25960487       1.07821414
H        1.02857460       2.13621078      -1.05260234
H        0.47568185       0.53800879      -1.48087980
H       -2.24871743      -1.04733509       0.54073880
H       -2.30087056      -1.12381332      -1.30430549
14
Frame=5 idx=002615 GeodesicLength=0.4442368309610375 rxn_smarts="[C:1]([C@@:2]([O:3][H:11])([C@@:4]1([H:12])[C:5]([H:13])([H:14])[O:6]1)[H:10])([H:7])([H:8])[H:9]>>[C:1](/[C:2](=[C:4]1\[C:5]([H:13])([H:14])[O:6]1)[H:10])([H:7])([H:8])[H:9].[O:3]([H:11])[H:12]"
C        1.25382689      -0.69860602       0.95271839
C        0.38207577       0.39859721       0.43026154
O        1.32071197       1.24486711      -1.03434239
C       -0.66009814       0.07227174      -0.48029741
C       -1.91814871      -0.62558001      -0.41841041
O       -1.87843362       0.80283360      -0.47776106
H        1.39272762      -1.48324268       0.20902272
H        2.23390563      -0.32665274       1.24855762
H        0.77152265      -1.14604462       1.82626366
H        0.23042520       1.24354868       1.10017180
H        0.96070632       2.13987809      -1.06892742
H        0.47854723       0.50503113      -1.49524148
H       -2.27540491      -1.02475513       0.52862491
H       -2.29236390      -1.10214636      -1.32064047
14
Frame=6 idx=002615 GeodesicLength=0.5322669643255848 rxn_smarts="[C:1]([C@@:2]([O:3][H:11])([C@@:4]1([H:12])[C:5]([H:13])([H:14])[O:6]1)[H:10])([H:7])([H:8])[H:9]>>[C:1](/[C:2](=[C:4]1\[C:5]([H:13])([H:14])[O:6]1)[H:10])([H:7])([H:8])[H:9].[O:3]([H:11])[H:12]"
C        1.26475296      -0.70543008       0.96434779
C        0.39326913       0.39330267       0.44218533
O        1.30292877       1.26681959      -1.05455442
C       -0.64936378       0.06135934      -0.46325247
C       -1.91901428      -0.61321475      -0.42585796
O       -1.85131615       0.81517028      -0.48532343
H        1.40254807      -1.49211826       0.22245464
H        2.24643332      -0.33235036       1.25405277
H        0.78770625      -1.15281966       1.84062645
H        0.22934663       1.22834654       1.12168037
H        0.89514987       2.14106959      -1.08444028
H        0.47947771       0.47385958      -1.50957724
H       -2.29977867      -1.00392616       0.51526532
H       -2.28213984      -1.08006832      -1.33760687
14
Frame=7 idx=002615 GeodesicLength=0.6201371819013217 rxn_smarts="[C:1]([C@@:2]([O:3][H:11])([C@@:4]1([H:12])[C:5]([H:13])([H:14])[O:6]1)[H:10])([H:7])([H:8])[H:9]>>[C:1](/[C:2](=[C:4]1\[C:5]([H:13])([H:14])[O:6]1)[H:10])([H:7])([H:8])[H:9].[O:3]([H:11])[H:12]"
C        1.27496957      -0.71199765       0.97607399
C        0.40460760       0.38885277       0.45385962
O        1.28389024       1.28799407      -1.07636407
C       -0.63918088       0.05178211      -0.44593516
C       -1.91874264      -0.60114516      -0.43353838
O       -1.82498637       0.82687516      -0.49057727
H        1.41076531      -1.50112800       0.23623958
H        2.25856612      -0.33857315       1.25942131
H        0.80290773      -1.15862141       1.85526834
H        0.22893591       1.21390165       1.14271688
H        0.83192207       2.14024756      -1.09905035
H        0.47853924       0.44425484      -1.52404678
H       -2.32190841      -0.98475379       0.50089308
H       -2.27028549      -1.05768901      -1.35496078
14
Frame=8 idx=002615 GeodesicLength=0.7079107065979331 rxn_smarts="[C:1]([C@@:2]([O:3][H:11])([C@@:4]1([H:12])[C:5]([H:13])([H:14])[O:6]1)[H:10])([H:7])([H:8])[H:9]>>[C:1](/[C:2](=[C:4]1\[C:5]([H:13])([H:14])[O:6]1)[H:10])([H:7])([H:8])[H:9].[O:3]([H:11])[H:12]"
C        1.28449173      -0.71835784       0.98787745
C        0.41611058       0.38519993       0.46522238
O        1.26370512       1.30849413      -1.09968283
C       -0.62945086       0.04346797      -0.42849897
C       -1.91736327      -0.58937950      -0.44136462
O       -1.79947505       0.83803055      -0.49376815
H        1.41753299      -1.51026239       0.25031809
H        2.27026767      -0.34535292       1.26479256
H        0.81707185      -1.16359258       1.87009310
H        0.22911769       1.20013171       1.16328929
H        0.77097826       2.13784984      -1.11269687
H        0.47580731       0.41599366      -1.53880422
H       -2.34187866      -0.96709992       0.48572784
H       -2.25691535      -1.03512264      -1.37250507
14
Frame=9 idx=002615 GeodesicLength=0.7954600276234193 rxn_smarts="[C:1]([C@@:2]([O:3][H:11])([C@@:4]1([H:12])[C:5]([H:13])([H:14])[O:6]1)[H:10])([H:7])([H:8])[H:9]>>[C:1](/[C:2](=[C:4]1\[C:5]([H:13])([H:14])[O:6]1)[H:10])([H:7])([H:8])[H:9].[O:3]([H:11])[H:12]"
C        1.29327918      -0.72452022       0.99968763
C        0.42777837       0.38229264       0.47619925
O        1.24250278       1.32842792      -1.12432410
C       -0.62006771       0.03635811      -0.41109540
C       -1.91487926      -0.57792795      -0.44921995
O       -1.77475424       0.84864942      -0.49512570
H        1.42294244      -1.51942361       0.26459972
H        2.28144172      -0.35268092       1.27024872
H        0.83007062      -1.16785297       1.88490077
H        0.22981070       1.18690512       1.18334692
H        0.71229975       2.13415907      -1.12538425
H        0.47139800       0.38892569      -1.55386418
H       -2.35972373      -0.95084249       0.46998877
H       -2.24209859      -1.01246980      -1.38995820
14
Frame=10 idx=002615 GeodesicLength=0.8829537276012301 rxn_smarts="[C:1]([C@@:2]([O:3][H:11])([C@@:4]1([H:12])[C:5]([H:13])([H:14])[O:6]1)[H:10])([H:7])([H:8])[H:9]>>[C:1](/[C:2](=[C:4]1\[C:5]([H:13])([H:14])[O:6]1)[H:10])([H:7])([H:8])[H:9].[O:3]([H:11])[H:12]"
C        1.30139132      -0.73054439       1.01153088
C        0.43962586       0.38007118       0.48676715
O        1.22031771       1.34789191      -1.15027922
C       -0.61093349       0.03036311      -0.39387021
C       -1.91134569      -0.56679082      -0.45705892
O       -1.75083489       0.85882520      -0.49491501
H        1.42718573      -1.52864395       0.27905954
H        2.29209964      -0.36057526       1.27593803
H        0.84192658      -1.17154045       1.89969214
H        0.23095002       1.17417167       1.20291866
H        0.65581568       2.12958435      -1.13701010
H        0.46536682       0.36285694      -1.56940975
H       -2.37553652      -0.93581757       0.45385731
H       -2.22602876      -0.98985192      -1.40722049
14
Frame=11 idx=002615 GeodesicLength=0.9703609038756786 rxn_smarts="[C:1]([C@@:2]([O:3][H:11])([C@@:4]1([H:12])[C:5]([H:13])([H:14])[O:6]1)[H:10])([H:7])([H:8])[H:9]>>[C:1](/[C:2](=[C:4]1\[C:5]([H:13])([H:14])[O:6]1)[H:10])([H:7])([H:8])[H:9].[O:3]([H:11])[H:12]"
C        1.30882584      -0.73645016       1.02337611
C        0.45164737       0.37847534       0.49688941
O        1.19721623       1.36699479      -1.17742657
C       -0.60194853       0.02540998      -0.37696353
C       -1.90678695      -0.55597229      -0.46480169
O       -1.72767193       0.86857829      -0.49337846
H        1.43037540      -1.53787278       0.29363982
H        2.30219331      -0.36901894       1.28194470
H        0.85258370      -1.17476275       1.91435904
H        0.23245987       1.16183151       1.22197676
H        0.60148393       2.12437982      -1.14755187
H        0.45781843       0.33766270      -1.58548035
H       -2.38936074      -0.92188587       0.43751805
H       -2.20883592      -0.96736964      -1.42410142
14
Frame=12 idx=002615 GeodesicLength=1.057693307569723 rxn_smarts="[C:1]([C@@:2]([O:3][H:11])([C@@:4]1([H:12])[C:5]([H:13])([H:14])[O:6]1)[H:10])([H:7])([H:8])[H:9]>>[C:1](/[C:2](=[C:4]1\[C:5]([H:13])([H:14])[O:6]1)[H:10])([H:7])([H:8])[H:9].[O:3]([H:11])[H:12]"
C        1.31559721      -0.74226460       1.03521118
C        0.46383628       0.37744406       0.50654817
O        1.17324061       1.38584744      -1.20566930
C       -0.59301643       0.02142593      -0.36051213
C       -1.90123751      -0.54547422      -0.47238400
O       -1.70521843       0.87793867      -0.49076017
H        1.43263910      -1.54707903       0.30829203
H        2.31169394      -0.37799623       1.28836578
H        0.86201228      -1.17763229       1.92882873
H        0.23426961       1.14980551       1.24050537
H        0.54925005       2.11878813      -1.15698924
H        0.44885246       0.31322883      -1.60212927
H       -2.40124240      -0.90890305       0.42114689
H       -2.19067676      -0.94512913      -1.44045403
14
Frame=13 idx=002615 GeodesicLength=1.1449632948811417 rxn_smarts="[C:1]([C@@:2]([O:3][H:11])([C@@:4]1([H:12])[C:5]([H:13])([H:14])[O:6]1)[H:10])([H:7])([H:8])[H:9]>>[C:1](/[C:2](=[C:4]1\[C:5]([H:13])([H:14])[O:6]1)[H:10])([H:7])([H:8])[H:9].[O:3]([H:11])[H:12]"
C        1.32172062      -0.74801170       1.04702895
C        0.47618321       0.37691628       0.51573684
O        1.14842073       1.40456001      -1.23491753
C       -0.58404437       0.01834036      -0.34464345
C       -1.89473378      -0.53529894      -0.47974956
O       -1.68341828       0.88693007      -0.48728943
H        1.43409548      -1.55623504       0.32297411
H        2.32057709      -0.38748556       1.29529012
H        0.87018890      -1.18025080       1.94304151
H        0.23631459       1.13802522       1.25848655
H        0.49906532       2.11302154      -1.16530814
H        0.43856641       0.28945720      -1.61940251
H       -2.41122027      -0.89673957       0.40490778
H       -2.17171566      -0.92322906      -1.45615526
14
Frame=14 idx=002615 GeodesicLength=1.2321792669175233 rxn_smarts="[C:1]([C@@:2]([O:3][H:11])([C@@:4]1([H:12])[C:5]([H:13])([H:14])[O:6]1)[H:10])([H:7])([H:8])[H:9]>>[C:1](/[C:2](=[C:4]1\[C:5]([H:13])([H:14])[O:6]1)[H:10])([H:7])([H:8])[H:9].[O:3]([H:11])[H:12]"
C        1.32721167      -0.75371185       1.05882590
C        0.48867812       0.37683207       0.52445759
O        1.12277513       1.42323973      -1.26508954
C       -0.57494228       0.01608620      -0.32947644
C       -1.88731430      -0.52544999      -0.48684920
O       -1.66220806       0.89557191      -0.48318000
H        1.43485617      -1.56531380       0.33764849
H        2.32882068      -0.39745948       1.30280138
H        0.87709371      -1.18271018       1.95694587
H        0.23853681       1.12643228       1.27589946
H        0.45089063       2.10726483      -1.17249472
H        0.42705245       0.26626116      -1.63733955
H       -2.41932885      -0.88528007       0.38895502
H       -2.15212188      -0.90176281      -1.47110425
14
Frame=15 idx=002615 GeodesicLength=1.3193494517519135 rxn_smarts="[C:1]([C@@:2]([O:3][H:11])([C@@:4]1([H:12])[C:5]([H:13])([H:14])[O:6]1)[H:10])([H:7])([H:8])[H:9]>>[C:1](/[C:2](=[C:4]1\[C:5]([H:13])([H:14])[O:6]1)[H:10])([H:7])([H:8])[H:9].[O:3]([H:11])[H:12]"
C        1.33208550      -0.75938519       1.07060335
C        0.50131086       0.37713506       0.53272278
O        1.09631359       1.44199576      -1.29610682
C       -0.56562486       0.01460368      -0.31512061
C       -1.87901656      -0.51593014      -0.49364065
O       -1.64152165       0.90388234      -0.47862588
H        1.43502325      -1.57429370       0.35228170
H        2.33640626      -0.40789231       1.31097961
H        0.88270860      -1.18509590       1.97049984
H        0.24088404       1.11498132       1.29272492
H        0.40468809       2.10167197      -1.17855559
H        0.41439608       0.24356913      -1.65597483
H       -2.42559311      -0.87442795       0.37343420
H       -2.13206010      -0.88081406      -1.48522201
14
Frame=16 idx=002615 GeodesicLength=1.4064770949170107 rxn_smarts="[C:1]([C@@:2]([O:3][H:11])([C@@:4]1([H:12])[C:5]([H:13])([H:14])[O:6]1)[H:10])([H:7])([H:8])[H:9]>>[C:1](/[C:2](=[C:4]1\[C:5]([H:13])([H:14])[O:6]1)[H:10])([H:7])([H:8])[H:9].[O:3]([H:11])[H:12]"
C        1.33635674      -0.76504695       1.08236493
C        0.51407388       0.37777145       0.54054994
O        1.06903125       1.46092946      -1.32790678
C       -0.55600984       0.01383576      -0.30167297
C       -1.86987809      -0.50674389      -0.50008938
O       -1.62128811       0.91187537      -0.47379948
H        1.43469017      -1.58315335       0.36684664
H        2.34331630      -0.41875205       1.31989807
H        0.88701645      -1.18747955       1.98366720
H        0.24331372       1.10363774       1.30894017
H        0.36043789       2.09637850      -1.18348424
H        0.40067044       0.22130997      -1.67533913
H       -2.43003641      -0.86410721       0.35847593
H       -2.11169440      -0.86045524      -1.49845090
