14
Frame=0 idx=009411 GeodesicLength=0.0 rxn_smarts="[O:1]([C@@:2]1([H:9])[C:3]([H:10])([H:11])[O:4][C:5]([H:12])=[N:6][C:7]1([H:13])[H:14])[H:8]>>[C:2]1([H:9])=[C:7]([H:13])[N:6]=[C:5]([H:12])[O:4][C:3]1([H:10])[H:11].[O:1]([H:8])[H:14]"
O       -1.32621434      -0.96319001       1.07033334
C       -0.91339405       0.10173993      -0.29082217
C       -0.13067978       1.23199405       0.30880120
O        1.11775534       0.77638653       0.79802932
C        1.79707226      -0.01217808      -0.10840447
N        1.26481338      -0.75682673      -0.96890013
C       -0.14841422      -0.87161226      -1.00699636
H       -0.73319308      -0.77813296       1.81320965
H       -1.92633191       0.33180336      -0.60194999
H        0.02151950       1.97549157      -0.48694066
H       -0.63917760       1.71479528       1.14097480
H        2.87066684       0.05799869       0.02611637
H       -0.55122545      -1.29267492      -1.91893543
H       -0.70319692      -1.51559451       0.22548449
14
Frame=1 idx=009411 GeodesicLength=0.060818225647554056 rxn_smarts="[O:1]([C@@:2]1([H:9])[C:3]([H:10])([H:11])[O:4][C:5]([H:12])=[N:6][C:7]1([H:13])[H:14])[H:8]>>[C:2]1([H:9])=[C:7]([H:13])[N:6]=[C:5]([H:12])[O:4][C:3]1([H:10])[H:11].[O:1]([H:8])[H:14]"
O       -1.32238558      -0.96708471       1.08518154
C       -0.91565446       0.10366889      -0.29140149
C       -0.13329159       1.23739969       0.30198336
O        1.11671617       0.78352157       0.79235462
C        1.79367082      -0.01430641      -0.10445995
N        1.26336002      -0.75790877      -0.96763671
C       -0.15110888      -0.87035374      -1.00692691
H       -0.71461447      -0.78345632       1.81596348
H       -1.92798959       0.33302128      -0.60534092
H        0.01896738       1.98012755      -0.49407945
H       -0.64227487       1.71818543       1.13508840
H        2.86679487       0.04416087       0.04038731
H       -0.54965722      -1.27437188      -1.92877727
H       -0.70253259      -1.53260345       0.22766399
14
Frame=2 idx=009411 GeodesicLength=0.1216418574238504 rxn_smarts="[O:1]([C@@:2]1([H:9])[C:3]([H:10])([H:11])[O:4][C:5]([H:12])=[N:6][C:7]1([H:13])[H:14])[H:8]>>[C:2]1([H:9])=[C:7]([H:13])[N:6]=[C:5]([H:12])[O:4][C:3]1([H:10])[H:11].[O:1]([H:8])[H:14]"
O       -1.31835905      -0.97098210       1.10011590
C       -0.91794553       0.10573279      -0.29208032
C       -0.13589670       1.24282028       0.29516375
O        1.11569415       0.79059118       0.78658337
C        1.79019590      -0.01635441      -0.10063038
N        1.26182587      -0.75893842      -0.96644998
C       -0.15389438      -0.86911245      -1.00683874
H       -0.69605152      -0.78875494       1.81847128
H       -1.92963738       0.33441842      -0.60889961
H        0.01642058       1.98485858      -0.50114632
H       -0.64531364       1.72151149       1.12927228
H        2.86258765       0.03021381       0.05482736
H       -0.54798865      -1.25615187      -1.93823134
H       -0.70163730      -1.54985238       0.22984274
14
Frame=3 idx=009411 GeodesicLength=0.18247012402186352 rxn_smarts="[O:1]([C@@:2]1([H:9])[C:3]([H:10])([H:11])[O:4][C:5]([H:12])=[N:6][C:7]1([H:13])[H:14])[H:8]>>[C:2]1([H:9])=[C:7]([H:13])[N:6]=[C:5]([H:12])[O:4][C:3]1([H:10])[H:11].[O:1]([H:8])[H:14]"
O       -1.31415720      -0.97487790       1.11512921
C       -0.92026464       0.10793722      -0.29286275
C       -0.13848518       1.24825106       0.28835322
O        1.11468869       0.79757219       0.78073837
C        1.78665043      -0.01834263      -0.09689679
N        1.26021204      -0.75993438      -0.96532188
C       -0.15677088      -0.86789160      -1.00672508
H       -0.67753867      -0.79403138       1.82073422
H       -1.93126314       0.33601570      -0.61264774
H        0.01390612       1.98968182      -0.50812562
H       -0.64828695       1.72477147       1.12353312
H        2.85804402       0.01624387       0.06936153
H       -0.54622527      -1.23804455      -1.94729013
H       -0.70050939      -1.56735088       0.23202034
14
Frame=4 idx=009411 GeodesicLength=0.24330311747195507 rxn_smarts="[O:1]([C@@:2]1([H:9])[C:3]([H:10])([H:11])[O:4][C:5]([H:12])=[N:6][C:7]1([H:13])[H:14])[H:8]>>[C:2]1([H:9])=[C:7]([H:13])[N:6]=[C:5]([H:12])[O:4][C:3]1([H:10])[H:11].[O:1]([H:8])[H:14]"
O       -1.30979882      -0.97876904       1.13021608
C       -0.92261073       0.11028779      -0.29375258
C       -0.14104957       1.25368965       0.28156091
O        1.11369903       0.80444697       0.77483862
C        1.78303675      -0.02028518      -0.09324575
N        1.25851896      -0.76090957      -0.96423947
C       -0.15973908      -0.86669285      -1.00658015
H       -0.65910452      -0.79928902       1.82275421
H       -1.93285757       0.33783153      -0.61660453
H        0.01144511       1.99459706      -0.51500393
H       -0.65119017       1.72796496       1.11787663
H        2.85316814       0.00231619       0.08393161
H       -0.54437471      -1.22007945      -1.95594760
H       -0.69914281      -1.58510905       0.23419596
14
Frame=5 idx=009411 GeodesicLength=0.3041419427024796 rxn_smarts="[O:1]([C@@:2]1([H:9])[C:3]([H:10])([H:11])[O:4][C:5]([H:12])=[N:6][C:7]1([H:13])[H:14])[H:8]>>[C:2]1([H:9])=[C:7]([H:13])[N:6]=[C:5]([H:12])[O:4][C:3]1([H:10])[H:11].[O:1]([H:8])[H:14]"
O       -1.30532192      -0.98264870       1.14536922
C       -0.92498024       0.11279050      -0.29475481
C       -0.14357605       1.25912688       0.27480180
O        1.11272284       0.81118006       0.76891991
C        1.77935557      -0.02221946      -0.08964257
N        1.25674712      -0.76189584      -0.96317274
C       -0.16279937      -0.86552393      -1.00639275
H       -0.64080099      -0.80453245       1.82453756
H       -1.93440366       0.33989358      -0.62079928
H        0.00907751       1.99959585      -0.52176155
H       -0.65401545       1.73108870       1.11231090
H        2.84797987      -0.01143029       0.09841336
H       -0.54243735      -1.20228601      -1.96419908
H       -0.69754787      -1.60313889       0.23637004
14
Frame=6 idx=009411 GeodesicLength=0.36496293249953826 rxn_smarts="[O:1]([C@@:2]1([H:9])[C:3]([H:10])([H:11])[O:4][C:5]([H:12])=[N:6][C:7]1([H:13])[H:14])[H:8]>>[C:2]1([H:9])=[C:7]([H:13])[N:6]=[C:5]([H:12])[O:4][C:3]1([H:10])[H:11].[O:1]([H:8])[H:14]"
O       -1.30092228      -0.98648846       1.16053644
C       -0.92735148       0.11545580      -0.29588356
C       -0.14599738       1.26450660       0.26814129
O        1.11175376       0.81761121       0.76313909
C        1.77560226      -0.02433514      -0.08589740
N        1.25490143      -0.76305178      -0.96196206
C       -0.16595029      -0.86443280      -1.00610805
H       -0.62287827      -0.80977907       1.82609397
H       -1.93582978       0.34229411      -0.62533476
H        0.00699386       2.00461882      -0.52830992
H       -0.65672163       1.73411316       1.10686606
H        2.84263203      -0.02430924       0.11217686
H       -0.54037593      -1.18474109      -1.97200536
H       -0.69585632      -1.62146213       0.23854741
14
Frame=7 idx=009411 GeodesicLength=0.42579181489046225 rxn_smarts="[O:1]([C@@:2]1([H:9])[C:3]([H:10])([H:11])[O:4][C:5]([H:12])=[N:6][C:7]1([H:13])[H:14])[H:8]>>[C:2]1([H:9])=[C:7]([H:13])[N:6]=[C:5]([H:12])[O:4][C:3]1([H:10])[H:11].[O:1]([H:8])[H:14]"
O       -1.29644443      -0.99031636       1.17576450
C       -0.92975068       0.11828515      -0.29713206
C       -0.14837293       1.26988706       0.26152928
O        1.11079255       0.82387760       0.75737550
C        1.77177773      -0.02645901      -0.08217889
N        1.25297181      -0.76423121      -0.96075113
C       -0.16919947      -0.86337225      -1.00576986
H       -0.60513970      -0.81501975       1.82742503
H       -1.93719723       0.34497271      -0.63014172
H        0.00503453       2.00972940      -0.53471628
H       -0.65935133       1.73707273       1.10151988
H        2.83704439      -0.03691744       0.12575576
H       -0.53824630      -1.16742612      -1.97940024
H       -0.69391893      -1.64008249       0.24072022
14
Frame=8 idx=009411 GeodesicLength=0.4866279348076405 rxn_smarts="[O:1]([C@@:2]1([H:9])[C:3]([H:10])([H:11])[O:4][C:5]([H:12])=[N:6][C:7]1([H:13])[H:14])[H:8]>>[C:2]1([H:9])=[C:7]([H:13])[N:6]=[C:5]([H:12])[O:4][C:3]1([H:10])[H:11].[O:1]([H:8])[H:14]"
O       -1.29170539      -0.99415725       1.19110181
C       -0.93219777       0.12127709      -0.29848948
C       -0.15076137       1.27532372       0.25490609
O        1.10984025       0.83013001       0.75148487
C        1.76788511      -0.02839705      -0.07867349
N        1.25094860      -0.76527304      -0.95968494
C       -0.17255096      -0.86228577      -1.00541769
H       -0.58736340      -0.82024448       1.82851757
H       -1.93856019       0.34785481      -0.63513892
H        0.00303211       2.01498652      -0.54105597
H       -0.66193856       1.73999206       1.09624042
H        2.83104534      -0.04991172       0.13974027
H       -0.53610376      -1.15030001      -1.98641098
H       -0.69157001      -1.65899491       0.24288043
14
Frame=9 idx=009411 GeodesicLength=0.5474807259811648 rxn_smarts="[O:1]([C@@:2]1([H:9])[C:3]([H:10])([H:11])[O:4][C:5]([H:12])=[N:6][C:7]1([H:13])[H:14])[H:8]>>[C:2]1([H:9])=[C:7]([H:13])[N:6]=[C:5]([H:12])[O:4][C:3]1([H:10])[H:11].[O:1]([H:8])[H:14]"
O       -1.28674645      -0.99800776       1.20653847
C       -0.93469108       0.12443868      -0.29996164
C       -0.15314613       1.28080997       0.24829031
O        1.10889799       0.83633007       0.74551172
C        1.76392917      -0.03019939      -0.07533424
N        1.24883250      -0.76621920      -0.95872882
C       -0.17600852      -0.86118714      -1.00503921
H       -0.56960654      -0.82545411       1.82937741
H       -1.93990421       0.35097413      -0.64036063
H        0.00103401       2.02038510      -0.54730475
H       -0.66447272       1.74287472       1.09103825
H        2.82465770      -0.06312364       0.15398885
H       -0.53395574      -1.13340074      -1.99303802
H       -0.68881996      -1.67822068       0.24502231
14
Frame=10 idx=009411 GeodesicLength=0.608345749623822 rxn_smarts="[O:1]([C@@:2]1([H:9])[C:3]([H:10])([H:11])[O:4][C:5]([H:12])=[N:6][C:7]1([H:13])[H:14])[H:8]>>[C:2]1([H:9])=[C:7]([H:13])[N:6]=[C:5]([H:12])[O:4][C:3]1([H:10])[H:11].[O:1]([H:8])[H:14]"
O       -1.28158904      -1.00186219       1.22207151
C       -0.93722801       0.12777597      -0.30155203
C       -0.15551816       1.28634132       0.24169113
O        1.10796286       0.84245740       0.73947792
C        1.75991079      -0.03188564      -0.07214242
N        1.24662275      -0.76708287      -0.95786678
C       -0.17957271      -0.86007909      -1.00462294
H       -0.55190123      -0.83065281       1.83000648
H       -1.94121468       0.35435095      -0.64582825
H       -0.00093258       2.02592068      -0.55344908
H       -0.66694909       1.74571844       1.08591679
H        2.81787785      -0.07647665       0.16843037
H       -0.53181067      -1.11675372      -1.99927658
H       -0.68565808      -1.69777180       0.24714388
14
Frame=11 idx=009411 GeodesicLength=0.6692230246270151 rxn_smarts="[O:1]([C@@:2]1([H:9])[C:3]([H:10])([H:11])[O:4][C:5]([H:12])=[N:6][C:7]1([H:13])[H:14])[H:8]>>[C:2]1([H:9])=[C:7]([H:13])[N:6]=[C:5]([H:12])[O:4][C:3]1([H:10])[H:11].[O:1]([H:8])[H:14]"
O       -1.27624387      -1.00571783       1.23770105
C       -0.93980847       0.13129512      -0.30326393
C       -0.15787234       1.29191831       0.23511463
O        1.10703316       0.84850164       0.73339801
C        1.75583196      -0.03346461      -0.06908966
N        1.24431785      -0.76786915      -0.95709217
C       -0.18324563      -0.85896253      -1.00416075
H       -0.53426561      -0.83584318       1.83040699
H       -1.94248285       0.35800153      -0.65155859
H       -0.00285161       2.03159457      -0.55947985
H       -0.66936544       1.74852518       1.08087855
H        2.81069843      -0.08993360       0.18303062
H       -0.52968158      -1.10038349      -2.00512617
H       -0.68206400      -1.71766196       0.24924126
14
Frame=12 idx=009411 GeodesicLength=0.7301135913058199 rxn_smarts="[O:1]([C@@:2]1([H:9])[C:3]([H:10])([H:11])[O:4][C:5]([H:12])=[N:6][C:7]1([H:13])[H:14])[H:8]>>[C:2]1([H:9])=[C:7]([H:13])[N:6]=[C:5]([H:12])[O:4][C:3]1([H:10])[H:11].[O:1]([H:8])[H:14]"
O       -1.27070448      -1.00957412       1.25343145
C       -0.94243405       0.13500217      -0.30509978
C       -0.16020884       1.29754675       0.22856148
O        1.10610795       0.85446629       0.72727320
C        1.75169581      -0.03492803      -0.06618460
N        1.24191572      -0.76856838      -0.95641267
C       -0.18702967      -0.85783391      -1.00364830
H       -0.51669734      -0.84102565       1.83057975
H       -1.94370547       0.36193509      -0.65756041
H       -0.00472243       2.03741371      -0.56539494
H       -0.67172229       1.75129938       1.07592361
H        2.80309320      -0.10351832       0.19781115
H       -0.52758693      -1.08431097      -2.01058912
H       -0.67800120      -1.73790402       0.25130919
14
Frame=13 idx=009411 GeodesicLength=0.7910178545730434 rxn_smarts="[O:1]([C@@:2]1([H:9])[C:3]([H:10])([H:11])[O:4][C:5]([H:12])=[N:6][C:7]1([H:13])[H:14])[H:8]>>[C:2]1([H:9])=[C:7]([H:13])[N:6]=[C:5]([H:12])[O:4][C:3]1([H:10])[H:11].[O:1]([H:8])[H:14]"
O       -1.26497772      -1.01342869       1.26926496
C       -0.94510527       0.13890353      -0.30706273
C       -0.16252381       1.30322868       0.22203628
O        1.10518541       0.86034460       0.72111525
C        1.74750411      -0.03628174      -0.06342173
N        1.23941408      -0.76918182      -0.95582500
C       -0.19092761      -0.85669350      -1.00307713
H       -0.49921000      -0.84620237       1.83052707
H       -1.94487463       0.36616644      -0.66384895
H       -0.00653206       2.04338055      -0.57118722
H       -0.67401845       1.75404405       1.07105328
H        2.79505030      -0.11720838       0.21274997
H       -0.52554175      -1.06855887      -2.01566634
H       -0.67344261      -1.75851250       0.25334229
14
Frame=14 idx=009411 GeodesicLength=0.8519371599100175 rxn_smarts="[O:1]([C@@:2]1([H:9])[C:3]([H:10])([H:11])[O:4][C:5]([H:12])=[N:6][C:7]1([H:13])[H:14])[H:8]>>[C:2]1([H:9])=[C:7]([H:13])[N:6]=[C:5]([H:12])[O:4][C:3]1([H:10])[H:11].[O:1]([H:8])[H:14]"
O       -1.25905727      -1.01728038       1.28520711
C       -0.94782372       0.14300565      -0.30915535
C       -0.16481714       1.30897005       0.21553953
O        1.10426442       0.86614014       0.71492595
C        1.74325965      -0.03751938      -0.06080781
N        1.23681027      -0.76969975      -0.95533649
C       -0.19494243      -0.85553837      -1.00244136
H       -0.48180152      -0.85137401       1.83024977
H       -1.94598619       0.37070536      -0.67043364
H       -0.00827866       2.04950164      -0.57685482
H       -0.67625455       1.75676414       1.06626704
H        2.78654069      -0.13102670       0.22786688
H       -0.52356540      -1.05314718      -2.02036062
H       -0.66834816      -1.77950122       0.25533381
14
Frame=15 idx=009411 GeodesicLength=0.912874696065624 rxn_smarts="[O:1]([C@@:2]1([H:9])[C:3]([H:10])([H:11])[O:4][C:5]([H:12])=[N:6][C:7]1([H:13])[H:14])[H:8]>>[C:2]1([H:9])=[C:7]([H:13])[N:6]=[C:5]([H:12])[O:4][C:3]1([H:10])[H:11].[O:1]([H:8])[H:14]"
O       -1.25293415      -1.02112755       1.30126466
C       -0.95059133       0.14731526      -0.31138045
C       -0.16708940       1.31477801       0.20907117
O        1.10334419       0.87185833       0.70870607
C        1.73896582      -0.03863389      -0.05835047
N        1.23410169      -0.77011088      -0.95495656
C       -0.19907731      -0.85436570      -1.00173528
H       -0.46446685      -0.85654149       1.82974899
H       -1.94703667       0.37556133      -0.67732383
H       -0.00996211       2.05578468      -0.58239696
H       -0.67843175       1.75946594       1.06156419
H        2.77752936      -0.14500423       0.24318820
H       -0.52167871      -1.03809536      -2.02467586
H       -0.66267280      -1.80088445       0.25727615
14
Frame=16 idx=009411 GeodesicLength=0.973830414062466 rxn_smarts="[O:1]([C@@:2]1([H:9])[C:3]([H:10])([H:11])[O:4][C:5]([H:12])=[N:6][C:7]1([H:13])[H:14])[H:8]>>[C:2]1([H:9])=[C:7]([H:13])[N:6]=[C:5]([H:12])[O:4][C:3]1([H:10])[H:11].[O:1]([H:8])[H:14]"
O       -1.24656174      -1.02497408       1.31745006
C       -0.95341063       0.15183845      -0.31373766
C       -0.16934863       1.32066750       0.20262025
O        1.10242672       0.87752954       0.70242678
C        1.73463028      -0.03958547      -0.05609195
N        1.23128522      -0.77037369      -0.95472226
C       -0.20333451      -0.85316204      -1.00095979
H       -0.44716078      -0.86169584       1.82901857
H       -1.94803021       0.38072996      -0.68450997
H       -0.01160841       2.06224559      -0.58782569
H       -0.68055189       1.76215656       1.05693882
H        2.76791622      -0.15928735       0.25885360
H       -0.51991266      -1.02341685      -2.02861755
H       -0.65633898      -1.82267227       0.25915679
