17
Frame=0 idx=011559 GeodesicLength=0.0 rxn_smarts="[C:1]([O:2][C:3]([C:4]([H:11])([H:12])[H:13])([C:5]([H:14])([H:15])[H:16])[C:6]#[C:7][H:17])([H:8])([H:9])[H:10]>>[C:1]([O:2]/[C:3]([C:5]([H:14])([H:15])[H:16])=[C:6](/[C:4]([H:11])([H:12])[H:13])[C:7][H:17])([H:8])([H:9])[H:10]"
C       -1.96601661      -0.37815076      -0.91752362
O       -1.23909215      -0.73711104       0.26482670
C       -0.19440812      -0.00233368       0.60111024
C        1.44706680      -0.32350232      -0.60342725
C        0.31919140      -0.35169558       1.95608577
C        0.34944047       0.98800309      -0.21280339
C        0.31557016       2.19514162      -0.69457951
H       -1.37176145      -0.61551604      -1.80145880
H       -2.86780258      -0.98432311      -0.89749130
H       -2.20428126       0.68270631      -0.91570236
H        1.15576525      -1.37548277      -0.54837986
H        2.35482648      -0.16439582      -0.02852890
H        1.58079716      -0.06132411      -1.64846061
H        1.26966160       0.13616091       2.15055178
H        0.40590352      -1.43196243       2.08452391
H       -0.41433647       0.01460067       2.67851912
H        1.05947577       2.40918508      -1.46726194
17
Frame=1 idx=011559 GeodesicLength=0.0695070711480908 rxn_smarts="[C:1]([O:2][C:3]([C:4]([H:11])([H:12])[H:13])([C:5]([H:14])([H:15])[H:16])[C:6]#[C:7][H:17])([H:8])([H:9])[H:10]>>[C:1]([O:2]/[C:3]([C:5]([H:14])([H:15])[H:16])=[C:6](/[C:4]([H:11])([H:12])[H:13])[C:7][H:17])([H:8])([H:9])[H:10]"
C       -1.98950906      -0.36134126      -0.90678770
O       -1.22595171      -0.75516909       0.23929753
C       -0.18062485      -0.02033672       0.58002060
C        1.47591751      -0.33229030      -0.58708674
C        0.31234398      -0.35323481       1.94727274
C        0.35963695       0.98139262      -0.22425972
C        0.30208832       2.17853278      -0.72491617
H       -1.41415886      -0.55175572      -1.81430087
H       -2.87973128      -0.98478454      -0.88936962
H       -2.24711905       0.69391544      -0.85566365
H        1.20942294      -1.39067888      -0.52834363
H        2.37430863      -0.15273522      -0.00284854
H        1.62228374      -0.08283516      -1.63381954
H        1.25399215       0.14611786       2.15648407
H        0.41694770      -1.43168096       2.07819759
H       -0.43772305       0.00580060       2.65574277
H        1.04787592       2.41108338      -1.48961912
17
Frame=2 idx=011559 GeodesicLength=0.13837527785734482 rxn_smarts="[C:1]([O:2][C:3]([C:4]([H:11])([H:12])[H:13])([C:5]([H:14])([H:15])[H:16])[C:6]#[C:7][H:17])([H:8])([H:9])[H:10]>>[C:1]([O:2]/[C:3]([C:5]([H:14])([H:15])[H:16])=[C:6](/[C:4]([H:11])([H:12])[H:13])[C:7][H:17])([H:8])([H:9])[H:10]"
C       -2.01301967      -0.34441928      -0.89445936
O       -1.21228098      -0.77329348       0.21146470
C       -0.16639763      -0.03873207       0.55768954
C        1.50554556      -0.34061039      -0.57043819
C        0.30449617      -0.35519405       1.93714960
C        0.37014050       0.97456069      -0.23667997
C        0.28904901       2.16081947      -0.75642082
H       -1.45907988      -0.48655087      -1.82393100
H       -2.89203050      -0.98400402      -0.88057283
H       -2.28751730       0.70302743      -0.79241055
H        1.26476727      -1.40494943      -0.50693307
H        2.39364155      -0.13999855       0.02336885
H        1.66534394      -0.10385904      -1.61843508
H        1.23669941       0.15575184       2.16159462
H        0.42678170      -1.43146996       2.07113573
H       -0.46225368      -0.00365044       2.63088569
H        1.03611452       2.41257214      -1.51300786
17
Frame=3 idx=011559 GeodesicLength=0.20624280686400173 rxn_smarts="[C:1]([O:2][C:3]([C:4]([H:11])([H:12])[H:13])([C:5]([H:14])([H:15])[H:16])[C:6]#[C:7][H:17])([H:8])([H:9])[H:10]>>[C:1]([O:2]/[C:3]([C:5]([H:14])([H:15])[H:16])=[C:6](/[C:4]([H:11])([H:12])[H:13])[C:7][H:17])([H:8])([H:9])[H:10]"
C       -2.03621225      -0.32755090      -0.88059041
O       -1.19837426      -0.79096245       0.18155637
C       -0.15181252      -0.05729894       0.53427358
C        1.53554688      -0.34844175      -0.55356364
C        0.29569718      -0.35758087       1.92571491
C        0.38092505       0.96769220      -0.24990465
C        0.27657430       2.14219326      -0.78888856
H       -1.50578610      -0.42048089      -1.82989244
H       -2.90447282      -0.98209042      -0.87117199
H       -2.32498894       0.70984311      -0.72663609
H        1.32119328      -1.41814798      -0.48417506
H        2.41250899      -0.12637470       0.04987202
H        1.70946877      -0.12433031      -1.60237014
H        1.21792905       0.16484666       2.16578107
H        0.43525512      -1.43138149       2.06323442
H       -0.48766393      -0.01370252       2.60406262
H        1.02421221       2.41376800      -1.53730202
17
Frame=4 idx=011559 GeodesicLength=0.27282228349202037 rxn_smarts="[C:1]([O:2][C:3]([C:4]([H:11])([H:12])[H:13])([C:5]([H:14])([H:15])[H:16])[C:6]#[C:7][H:17])([H:8])([H:9])[H:10]>>[C:1]([O:2]/[C:3]([C:5]([H:14])([H:15])[H:16])=[C:6](/[C:4]([H:11])([H:12])[H:13])[C:7][H:17])([H:8])([H:9])[H:10]"
C       -2.05874005      -0.31089191      -0.86531483
O       -1.18453410      -0.80767320       0.14989166
C       -0.13697439      -0.07580486       0.50999547
C        1.56549851      -0.35579087      -0.53654015
C        0.28604817      -0.36039549       1.91303672
C        0.39195799       0.96097768      -0.26370825
C        0.26480350       2.12289039      -0.82199081
H       -1.55342712      -0.35406816      -1.83187430
H       -2.91678567      -0.97917821      -0.86134548
H       -2.35913412       0.71424305      -0.65915129
H        1.37802160      -1.43016086      -0.46013763
H        2.43062220      -0.11211375       0.07640127
H        1.75409593      -0.14420795      -1.58569577
H        1.19790795       0.17320736       2.16899358
H        0.44228259      -1.43147373       2.05443963
H       -0.51363884      -0.02427065       2.57549971
H        1.01199585       2.41471115      -1.56249952
17
Frame=5 idx=011559 GeodesicLength=0.33808526837727054 rxn_smarts="[C:1]([O:2][C:3]([C:4]([H:11])([H:12])[H:13])([C:5]([H:14])([H:15])[H:16])[C:6]#[C:7][H:17])([H:8])([H:9])[H:10]>>[C:1]([O:2]/[C:3]([C:5]([H:14])([H:15])[H:16])=[C:6](/[C:4]([H:11])([H:12])[H:13])[C:7][H:17])([H:8])([H:9])[H:10]"
C       -2.08033394      -0.29456072      -0.84881088
O       -1.17098845      -0.82315692       0.11688504
C       -0.12196690      -0.09404342       0.48512363
C        1.59503645      -0.36272320      -0.51942825
C        0.27575105      -0.36360120       1.89924921
C        0.40314903       0.95456178      -0.27790378
C        0.25368637       2.10308566      -0.85553861
H       -1.60146724      -0.28770603      -1.82982974
H       -2.92871645      -0.97537905      -0.85132727
H       -2.38984321       0.71625825      -0.59102415
H        1.43473865      -1.44102371      -0.43487398
H        2.44775793      -0.09743557       0.10273190
H        1.79870531      -0.16354687      -1.56849000
H        1.17693683       0.18070900       2.17121209
H        0.44789024      -1.43175759       2.04478032
H       -0.53976192      -0.03523934       2.54558466
H        0.99942627       2.41555893      -1.58834018
17
Frame=6 idx=011559 GeodesicLength=0.4018841754971234 rxn_smarts="[C:1]([O:2][C:3]([C:4]([H:11])([H:12])[H:13])([C:5]([H:14])([H:15])[H:16])[C:6]#[C:7][H:17])([H:8])([H:9])[H:10]>>[C:1]([O:2]/[C:3]([C:5]([H:14])([H:15])[H:16])=[C:6](/[C:4]([H:11])([H:12])[H:13])[C:7][H:17])([H:8])([H:9])[H:10]"
C       -2.10072090      -0.27865482      -0.83131699
O       -1.15798240      -0.83700089       0.08287276
C       -0.10690422      -0.11184199       0.45987191
C        1.62380264      -0.36926674      -0.50230474
C        0.26490912      -0.36716668       1.88446760
C        0.41448884       0.94858555      -0.29224258
C        0.24341114       2.08302085      -0.88908552
H       -1.64893954      -0.22184616      -1.82369504
H       -2.94002815      -0.97085210      -0.84139122
H       -2.41700752       0.71588636      -0.52274127
H        1.49068439      -1.45064066      -0.40851207
H        2.46372091      -0.08260432       0.12862449
H        1.84280910      -0.18231911      -1.55082461
H        1.15525841       0.18725250       2.17244935
H        0.45210763      -1.43227438       2.03426584
H       -0.56580359      -0.04648041       2.51454219
H        0.98619414       2.41620298      -1.61498011
17
Frame=7 idx=011559 GeodesicLength=0.4642370721191449 rxn_smarts="[C:1]([O:2][C:3]([C:4]([H:11])([H:12])[H:13])([C:5]([H:14])([H:15])[H:16])[C:6]#[C:7][H:17])([H:8])([H:9])[H:10]>>[C:1]([O:2]/[C:3]([C:5]([H:14])([H:15])[H:16])=[C:6](/[C:4]([H:11])([H:12])[H:13])[C:7][H:17])([H:8])([H:9])[H:10]"
C       -2.11972091      -0.26325322      -0.81308064
O       -1.14569698      -0.84898172       0.04825114
C       -0.09187821      -0.12907822       0.43445067
C        1.65150956      -0.37549046      -0.48524736
C        0.25369158      -0.37102313       1.86883968
C        0.42592191       0.94314017      -0.30653462
C        0.23399738       2.06286028      -0.92234421
H       -1.69516175      -0.15686685      -1.81359903
H       -2.95054777      -0.96571541      -0.83182196
H       -2.44074522       0.71318961      -0.45493361
H        1.54534611      -1.45902752      -0.38118618
H        2.47836595      -0.06782743       0.15386404
H        1.88595857      -0.20055384      -1.53278805
H        1.13314095       0.19282593       2.17273333
H        0.45506137      -1.43300544       2.02297338
H       -0.59147502      -0.05785976       2.48269822
H        0.97223248       2.41666701      -1.64227479
17
Frame=8 idx=011559 GeodesicLength=0.525222012889914 rxn_smarts="[C:1]([O:2][C:3]([C:4]([H:11])([H:12])[H:13])([C:5]([H:14])([H:15])[H:16])[C:6]#[C:7][H:17])([H:8])([H:9])[H:10]>>[C:1]([O:2]/[C:3]([C:5]([H:14])([H:15])[H:16])=[C:6](/[C:4]([H:11])([H:12])[H:13])[C:7][H:17])([H:8])([H:9])[H:10]"
C       -2.13723463      -0.24853525      -0.79427375
O       -1.13430543      -0.85892268       0.01336482
C       -0.07698824      -0.14562865       0.40899127
C        1.67784702      -0.38147229      -0.46836928
C        0.24225618      -0.37505007       1.85247661
C        0.43735868       0.93830899      -0.32071815
C        0.22541507       2.04273608      -0.95522953
H       -1.73960177      -0.09318806      -1.79952935
H       -2.96014096      -0.96022495      -0.82285371
H       -2.46123267       0.70816060      -0.38818558
H        1.59825504      -1.46621416      -0.35302467
H        2.49152628      -0.05332606       0.17822178
H        1.92771377      -0.21834658      -1.51453083
H        1.11082629       0.19747043       2.17204721
H        0.45687900      -1.43386874       2.01097263
H       -0.61650642      -0.06916979       2.45031364
H        0.95793278       2.41727118      -1.66967311
17
Frame=9 idx=011559 GeodesicLength=0.5852908647537008 rxn_smarts="[C:1]([O:2][C:3]([C:4]([H:11])([H:12])[H:13])([C:5]([H:14])([H:15])[H:16])[C:6]#[C:7][H:17])([H:8])([H:9])[H:10]>>[C:1]([O:2]/[C:3]([C:5]([H:14])([H:15])[H:16])=[C:6](/[C:4]([H:11])([H:12])[H:13])[C:7][H:17])([H:8])([H:9])[H:10]"
C       -2.15332958      -0.23435869      -0.77510055
O       -1.12369116      -0.86710603      -0.02158947
C       -0.06223737      -0.16147532       0.38369956
C        1.70295530      -0.38731478      -0.45158384
C        0.23076474      -0.37924756       1.83555524
C        0.44874241       0.93405661      -0.33467666
C        0.21748532       2.02267102      -0.98761759
H       -1.78255679      -0.03037479      -1.78203012
H       -2.96875471      -0.95428154      -0.81471160
H       -2.47888344       0.70111194      -0.32288018
H        1.64961871      -1.47242181      -0.32402436
H        2.50343343      -0.03911007       0.20179462
H        1.96819459      -0.23587224      -1.49600619
H        1.08850950       0.20125375       2.17053394
H        0.45773257      -1.43489558       1.99838825
H       -0.64075751      -0.08040899       2.41768506
H        0.94277398       2.41777408      -1.69743610
17
Frame=10 idx=011559 GeodesicLength=0.6443232690619298 rxn_smarts="[C:1]([O:2][C:3]([C:4]([H:11])([H:12])[H:13])([C:5]([H:14])([H:15])[H:16])[C:6]#[C:7][H:17])([H:8])([H:9])[H:10]>>[C:1]([O:2]/[C:3]([C:5]([H:14])([H:15])[H:16])=[C:6](/[C:4]([H:11])([H:12])[H:13])[C:7][H:17])([H:8])([H:9])[H:10]"
C       -2.16790854      -0.22089246      -0.75575094
O       -1.11404418      -0.87324680      -0.05630959
C       -0.04772599      -0.17656430       0.35862284
C        1.72649817      -0.39306465      -0.43505026
C        0.21930937      -0.38346904       1.81815863
C        0.46004252       0.93043440      -0.34835570
C        0.21031166       2.00277686      -1.01935672
H       -1.82311998       0.03095214      -1.76099838
H       -2.97632551      -0.94810934      -0.80765656
H       -2.49388074       0.69191010      -0.25920858
H        1.69881950      -1.47757600      -0.29438044
H        2.51388174      -0.02540176       0.22429135
H        2.00692670      -0.25314320      -1.47738447
H        1.06636917       0.20426751       2.16817044
H        0.45776116      -1.43597309       1.98530132
H       -0.66407567      -0.09135741       2.38497974
H        0.92716062       2.41845703      -1.72507270
17
Frame=11 idx=011559 GeodesicLength=0.7025567257641587 rxn_smarts="[C:1]([O:2][C:3]([C:4]([H:11])([H:12])[H:13])([C:5]([H:14])([H:15])[H:16])[C:6]#[C:7][H:17])([H:8])([H:9])[H:10]>>[C:1]([O:2]/[C:3]([C:5]([H:14])([H:15])[H:16])=[C:6](/[C:4]([H:11])([H:12])[H:13])[C:7][H:17])([H:8])([H:9])[H:10]"
C       -2.18106461      -0.20804379      -0.73641747
O       -1.10528810      -0.87748702      -0.09059976
C       -0.03346697      -0.19091549       0.33386340
C        1.74855846      -0.39881133      -0.41874857
C        0.20800167      -0.38766883       1.80041573
C        0.47123301       0.92740621      -0.36169308
C        0.20384184       1.98310991      -1.05030159
H       -1.86119027       0.09092196      -1.73686220
H       -2.98291872      -0.94162710      -0.80192039
H       -2.50659803       0.68065793      -0.19723523
H        1.74588749      -1.48181781      -0.26415999
H        2.52303644      -0.01224943       0.24573472
H        2.04389102      -0.27026487      -1.45867174
H        1.04455410       0.20662156       2.16506539
H        0.45714115      -1.43707515       1.97183439
H       -0.68640151      -0.10196758       2.35237539
H        0.91078303       2.41921084      -1.75267900
17
Frame=12 idx=011559 GeodesicLength=0.7601647150298351 rxn_smarts="[C:1]([O:2][C:3]([C:4]([H:11])([H:12])[H:13])([C:5]([H:14])([H:15])[H:16])[C:6]#[C:7][H:17])([H:8])([H:9])[H:10]>>[C:1]([O:2]/[C:3]([C:5]([H:14])([H:15])[H:16])=[C:6](/[C:4]([H:11])([H:12])[H:13])[C:7][H:17])([H:8])([H:9])[H:10]"
C       -2.19287787      -0.19585848      -0.71719833
O       -1.09739590      -0.87991160      -0.12430571
C       -0.01949021      -0.20451830       0.30946495
C        1.76911314      -0.40464766      -0.40272177
C        0.19692789      -0.39174769       1.78241361
C        0.48226423       0.92495789      -0.37471155
C        0.19797598       1.96369579      -1.08049132
H       -1.89667874       0.14949616      -1.70977614
H       -2.98853217      -0.93491308      -0.79765536
H       -2.51733940       0.66736363      -0.13712348
H        1.79073464      -1.48526203      -0.23345379
H        2.53095275       0.00026295       0.26606872
H        2.07902407      -0.28739257      -1.43994793
H        1.02318667       0.20844623       2.16125545
H        0.45599576      -1.43811363       1.95808775
H       -0.70765653      -0.11210859       2.32002341
H        0.89379567       2.42025100      -1.77992849
17
Frame=13 idx=011559 GeodesicLength=0.8173867379483947 rxn_smarts="[C:1]([O:2][C:3]([C:4]([H:11])([H:12])[H:13])([C:5]([H:14])([H:15])[H:16])[C:6]#[C:7][H:17])([H:8])([H:9])[H:10]>>[C:1]([O:2]/[C:3]([C:5]([H:14])([H:15])[H:16])=[C:6](/[C:4]([H:11])([H:12])[H:13])[C:7][H:17])([H:8])([H:9])[H:10]"
C       -2.20344701      -0.18436133      -0.69817332
O       -1.09028854      -0.88078132      -0.15738490
C       -0.00580676      -0.21736686       0.28552491
C        1.78828996      -0.41067112      -0.38697128
C        0.18616216      -0.39563169       1.76426838
C        0.49309700       0.92301757      -0.38744642
C        0.19249513       1.94442793      -1.11006999
H       -1.93008291       0.20700531      -1.67993760
H       -2.99314352      -0.92798247      -0.79503533
H       -2.52649998       0.65211802      -0.07905309
H        1.83362141      -1.48807434      -0.20227292
H        2.53784190       0.01213858       0.28529945
H        2.11249195      -0.30476908      -1.42128984
H        1.00238563       0.20986807       2.15681093
H        0.45439897      -1.43902596       1.94417909
H       -0.72778755      -0.12165096       2.28808762
H        0.87627216       2.42173963      -1.80653569
17
Frame=14 idx=011559 GeodesicLength=0.8741831242991834 rxn_smarts="[C:1]([O:2][C:3]([C:4]([H:11])([H:12])[H:13])([C:5]([H:14])([H:15])[H:16])[C:6]#[C:7][H:17])([H:8])([H:9])[H:10]>>[C:1]([O:2]/[C:3]([C:5]([H:14])([H:15])[H:16])=[C:6](/[C:4]([H:11])([H:12])[H:13])[C:7][H:17])([H:8])([H:9])[H:10]"
C       -2.21284842      -0.17351032      -0.67951419
O       -1.08394062      -0.88006348      -0.18960535
C        0.00756655      -0.22948165       0.26206291
C        1.80604920      -0.41694129      -0.37154242
C        0.17577485      -0.39923753       1.74606275
C        0.50373442       0.92158183      -0.39987879
C        0.18749650       1.92542916      -1.13883948
H       -1.96076747       0.26312995      -1.64754419
H       -2.99690757      -0.92072509      -0.79430297
H       -2.53430645       0.63480626      -0.02293341
H        1.87428974      -1.49029713      -0.17075935
H        2.54373093       0.02326912       0.30334650
H        2.14412155      -0.32241858      -1.40273531
H        0.98225382       0.21100714       2.15178532
H        0.45250921      -1.43973694       1.93021673
H       -0.74677432      -0.13052451       2.25666936
H        0.85801808       2.42371306      -1.83248810
17
Frame=15 idx=011559 GeodesicLength=0.9306474539097691 rxn_smarts="[C:1]([O:2][C:3]([C:4]([H:11])([H:12])[H:13])([C:5]([H:14])([H:15])[H:16])[C:6]#[C:7][H:17])([H:8])([H:9])[H:10]>>[C:1]([O:2]/[C:3]([C:5]([H:14])([H:15])[H:16])=[C:6](/[C:4]([H:11])([H:12])[H:13])[C:7][H:17])([H:8])([H:9])[H:10]"
C       -2.22115687      -0.16328801      -0.66129886
O       -1.07826937      -0.87790822      -0.22088739
C        0.02063670      -0.24087238       0.23913383
C        1.82247487      -0.42352607      -0.35643789
C        0.16581397      -0.40250789       1.72789325
C        0.51417702       0.92061122      -0.41201750
C        0.18290185       1.90672930      -1.16675118
H       -1.98882177       0.31797922      -1.61279521
H       -2.99985182      -0.91305808      -0.79561699
H       -2.54103855       0.61544149       0.03117061
H        1.91283981      -1.49205515      -0.13898771
H        2.54877697       0.03362328       0.32023275
H        2.17398477      -0.34047789      -1.38432762
H        0.96287367       0.21196287       2.14625874
H        0.45040277      -1.44019600       1.91630086
H       -0.76460807      -0.13865113       2.22587991
H        0.83886406       2.42619346      -1.85774960
17
Frame=16 idx=011559 GeodesicLength=0.9868369731287787 rxn_smarts="[C:1]([O:2][C:3]([C:4]([H:11])([H:12])[H:13])([C:5]([H:14])([H:15])[H:16])[C:6]#[C:7][H:17])([H:8])([H:9])[H:10]>>[C:1]([O:2]/[C:3]([C:5]([H:14])([H:15])[H:16])=[C:6](/[C:4]([H:11])([H:12])[H:13])[C:7][H:17])([H:8])([H:9])[H:10]"
C       -2.22847963      -0.15370917      -0.64360062
O       -1.07320546      -0.87449545      -0.25118320
C        0.03340459      -0.25154283       0.21678933
C        1.83767138      -0.43051787      -0.34167820
C        0.15632158      -0.40535035       1.70984894
C        0.52442758       0.92004068      -0.42392137
C        0.17857100       1.88834336      -1.19384698
H       -2.01438537       0.37155404      -1.57584764
H       -3.00203694      -0.90490750      -0.79910284
H       -2.54697829       0.59399869       0.08318229
H        1.94937785      -1.49348846      -0.10702688
H        2.55315159       0.04315746       0.33593564
H        2.20217287      -0.35914240      -1.36614535
H        0.94433375       0.21287443       2.14028155
H        0.44813279      -1.44031702       1.90254748
H       -0.78128302      -0.14588976       2.19581450
H        0.81880372       2.42939216      -1.88204666
