16
Frame=0 idx=008681 GeodesicLength=0.0 rxn_smarts="[C:1]([N:2]([C:3]([C:4](=[O:5])[O:6][C:7]([H:14])([H:15])[H:16])([H:12])[H:13])[H:11])([H:8])([H:9])[H:10]>>[C:1]([N+:2]([C:3](=[C:4]([O-:5])[O:6][C:7]([H:14])([H:15])[H:16])[H:13])([H:11])[H:12])([H:8])([H:9])[H:10]"
C       -2.74309607       0.32543719      -0.02346241
N       -1.61461059      -0.57431852       0.09433852
C       -0.35827362      -0.00202368       0.78600717
C        0.79640196      -0.22002049      -0.02754541
O        0.80498081      -0.92793963      -1.02509837
O        1.89795761       0.40281408       0.43089035
C        3.09196211       0.14816219      -0.29730742
H       -3.05343866       0.64832907       0.97059781
H       -3.58039345      -0.18840578      -0.49479338
H       -2.47238373       1.21030431      -0.60818235
H       -1.27895362      -1.00721503      -0.76355067
H       -1.16368240      -1.02647434       1.07975592
H       -0.52813065       0.93541211       1.29348254
H        3.87528090       0.70138753       0.21592276
H        3.00153547       0.49191770      -1.32849281
H        3.32484388      -0.91736671      -0.30256228
16
Frame=1 idx=008681 GeodesicLength=0.04321002306948699 rxn_smarts="[C:1]([N:2]([C:3]([C:4](=[O:5])[O:6][C:7]([H:14])([H:15])[H:16])([H:12])[H:13])[H:11])([H:8])([H:9])[H:10]>>[C:1]([N+:2]([C:3](=[C:4]([O-:5])[O:6][C:7]([H:14])([H:15])[H:16])[H:13])([H:11])[H:12])([H:8])([H:9])[H:10]"
C       -2.73584729       0.32771629      -0.02999387
N       -1.61436219      -0.57921491       0.10675116
C       -0.36152249      -0.00581749       0.78835606
C        0.78975503      -0.20917732      -0.03545754
O        0.79677603      -0.90979059      -1.03838141
O        1.89408691       0.40302653       0.43045296
C        3.08790095       0.14939123      -0.29850677
H       -3.04919824       0.66789100       0.95734127
H       -3.57473181      -0.18718007      -0.49753579
H       -2.45507344       1.20076245      -0.62743170
H       -1.28186500      -1.02214153      -0.74804430
H       -1.15864533      -1.03867866       1.09860747
H       -0.52648785       0.92308127       1.31297601
H        3.87292878       0.69517993       0.22004525
H        3.00033460       0.50204957      -1.32692513
H        3.31595136      -0.91709768      -0.31225366
16
Frame=2 idx=008681 GeodesicLength=0.08661113166466237 rxn_smarts="[C:1]([N:2]([C:3]([C:4](=[O:5])[O:6][C:7]([H:14])([H:15])[H:16])([H:12])[H:13])[H:11])([H:8])([H:9])[H:10]>>[C:1]([N+:2]([C:3](=[C:4]([O-:5])[O:6][C:7]([H:14])([H:15])[H:16])[H:13])([H:11])[H:12])([H:8])([H:9])[H:10]"
C       -2.72814644       0.33005601      -0.03702150
N       -1.61413678      -0.58403383       0.11939654
C       -0.36484533      -0.00984562       0.79140353
C        0.78306143      -0.19909261      -0.04215129
O        0.78804650      -0.89139298      -1.05108203
O        1.89027247       0.40231210       0.43085509
C        3.08343888       0.15078661      -0.29999778
H       -3.04445742       0.68796640       0.94307720
H       -3.56868191      -0.18576181      -0.50077810
H       -2.43687908       1.19066017      -0.64719537
H       -1.28442975      -1.03704331      -0.73200036
H       -1.15376919      -1.05082704       1.11794099
H       -0.52470414       0.91058847       1.33241220
H        3.87036208       0.68882531       0.22376317
H        2.99787022       0.51328521      -1.32516236
H        3.30699844      -0.91648308      -0.32345994
16
Frame=3 idx=008681 GeodesicLength=0.1302830773314466 rxn_smarts="[C:1]([N:2]([C:3]([C:4](=[O:5])[O:6][C:7]([H:14])([H:15])[H:16])([H:12])[H:13])[H:11])([H:8])([H:9])[H:10]>>[C:1]([N+:2]([C:3](=[C:4]([O-:5])[O:6][C:7]([H:14])([H:15])[H:16])[H:13])([H:11])[H:12])([H:8])([H:9])[H:10]"
C       -2.71980905       0.33254913      -0.04472659
N       -1.61399015      -0.58882498       0.13242918
C       -0.36828127      -0.01426605       0.79533884
C        0.77635402      -0.19019981      -0.04731906
O        0.77869391      -0.87276081      -1.06307512
O        1.88656459       0.40018594       0.43240779
C        3.07847265       0.15248552      -0.30188829
H       -3.03903195       0.70894254       0.92747544
H       -3.56210629      -0.18397997      -0.50466830
H       -2.41738862       1.17983103      -0.66781471
H       -1.28669969      -1.05221492      -0.71513162
H       -1.14929318      -1.06290657       1.13802547
H       -0.52278343       0.89787145       1.35188141
H        3.86752374       0.68233570       0.22698841
H        2.99371305       0.52623316      -1.32306608
H        3.29806167      -0.91528136      -0.33685677
16
Frame=4 idx=008681 GeodesicLength=0.1741376084748573 rxn_smarts="[C:1]([N:2]([C:3]([C:4](=[O:5])[O:6][C:7]([H:14])([H:15])[H:16])([H:12])[H:13])[H:11])([H:8])([H:9])[H:10]>>[C:1]([N+:2]([C:3](=[C:4]([O-:5])[O:6][C:7]([H:14])([H:15])[H:16])[H:13])([H:11])[H:12])([H:8])([H:9])[H:10]"
C       -2.71134823       0.33475714      -0.05251495
N       -1.61378524      -0.59339962       0.14544154
C       -0.37173540      -0.01847450       0.79950719
C        0.76948551      -0.18093718      -0.05217731
O        0.76883710      -0.85322318      -1.07498999
O        1.88281306       0.39813373       0.43397725
C        3.07336283       0.15396659      -0.30378087
H       -3.03322114       0.72960894       0.91145951
H       -3.55540621      -0.18254765      -0.50852937
H       -2.39792028       1.16838248      -0.68829940
H       -1.28860646      -1.06679693      -0.69823269
H       -1.14444956      -1.07486900       1.15811206
H       -0.52088364       0.88531703       1.37107663
H        3.86471639       0.67523776       0.23014844
H        2.98952938       0.53907006      -1.32079806
H        3.28861187      -0.91422566      -0.35039998
16
Frame=5 idx=008681 GeodesicLength=0.21825264639045447 rxn_smarts="[C:1]([N:2]([C:3]([C:4](=[O:5])[O:6][C:7]([H:14])([H:15])[H:16])([H:12])[H:13])[H:11])([H:8])([H:9])[H:10]>>[C:1]([N+:2]([C:3](=[C:4]([O-:5])[O:6][C:7]([H:14])([H:15])[H:16])[H:13])([H:11])[H:12])([H:8])([H:9])[H:10]"
C       -2.70262372       0.33677277      -0.06057300
N       -1.61357478      -0.59782028       0.15858203
C       -0.37524134      -0.02261235       0.80411182
C        0.76250391      -0.17169575      -0.05637727
O        0.75839473      -0.83278983      -1.08669397
O        1.87910097       0.39569782       0.43592242
C        3.06802659       0.15535130      -0.30579188
H       -3.02691709       0.75034596       0.89470240
H       -3.54848709      -0.18131265      -0.51253404
H       -2.37810328       1.15618743      -0.70899206
H       -1.29017527      -1.08108403      -0.68102798
H       -1.13944612      -1.08672133       1.17845589
H       -0.51900297       0.87287893       1.39011203
H        3.86190871       0.66753764       0.23315183
H        2.98487387       0.55238581      -1.31826484
H        3.27876288      -0.91312145      -0.36478336
16
Frame=6 idx=008681 GeodesicLength=0.26272282206153186 rxn_smarts="[C:1]([N:2]([C:3]([C:4](=[O:5])[O:6][C:7]([H:14])([H:15])[H:16])([H:12])[H:13])[H:11])([H:8])([H:9])[H:10]>>[C:1]([N+:2]([C:3](=[C:4]([O-:5])[O:6][C:7]([H:14])([H:15])[H:16])[H:13])([H:11])[H:12])([H:8])([H:9])[H:10]"
C       -2.69343395       0.33872498      -0.06911708
N       -1.61342046      -0.60214942       0.17201020
C       -0.37883863      -0.02688592       0.80939022
C        0.75545360      -0.16301333      -0.05951924
O        0.74725474      -0.81159488      -1.09795656
O        1.87548538       0.39232317       0.43860952
C        3.06233902       0.15681554      -0.30806178
H       -3.01995797       0.77157479       0.87682598
H       -3.54119403      -0.18004462      -0.51691481
H       -2.35743771       1.14313182      -0.73023083
H       -1.29142723      -1.09537846      -0.66321895
H       -1.13456663      -1.09847230       1.19934860
H       -0.51711592       0.86046775       1.40910379
H        3.85902316       0.65932507       0.23583408
H        2.97919486       0.56684305      -1.31533943
H        3.26864179      -0.91166725      -0.38076371
16
Frame=7 idx=008681 GeodesicLength=0.30766378819005546 rxn_smarts="[C:1]([N:2]([C:3]([C:4](=[O:5])[O:6][C:7]([H:14])([H:15])[H:16])([H:12])[H:13])[H:11])([H:8])([H:9])[H:10]>>[C:1]([N+:2]([C:3](=[C:4]([O-:5])[O:6][C:7]([H:14])([H:15])[H:16])[H:13])([H:11])[H:12])([H:8])([H:9])[H:10]"
C       -2.68350182       0.34076914      -0.07845070
N       -1.61343394      -0.60643466       0.18593185
C       -0.38258298      -0.03154033       0.81569111
C        0.74841192      -0.15562696      -0.06102386
O        0.73528961      -0.78992358      -1.10848274
O        1.87206650       0.38721684       0.44254385
C        3.05613750       0.15859780      -0.31079199
H       -3.01208751       0.79378400       0.85726430
H       -3.53332788      -0.17841281      -0.52203771
H       -2.33522582       1.12903034      -0.75239351
H       -1.29243925      -1.11000574      -0.64438901
H       -1.13025508      -1.11009625       1.22119525
H       -0.51518543       0.84799105       1.42824054
H        3.85595386       0.65076002       0.23794792
H        2.97170247       0.58334685      -1.31186084
H        3.25847784      -0.90945572      -0.39938447
16
Frame=8 idx=008681 GeodesicLength=0.3532644734787619 rxn_smarts="[C:1]([N:2]([C:3]([C:4](=[O:5])[O:6][C:7]([H:14])([H:15])[H:16])([H:12])[H:13])[H:11])([H:8])([H:9])[H:10]>>[C:1]([N+:2]([C:3](=[C:4]([O-:5])[O:6][C:7]([H:14])([H:15])[H:16])[H:13])([H:11])[H:12])([H:8])([H:9])[H:10]"
C       -2.67264091       0.34298382      -0.08874172
N       -1.61370379      -0.61071251       0.20048791
C       -0.38655436      -0.03672078       0.82317043
C        0.74137971      -0.14999819      -0.06065117
O        0.72234877      -0.76781341      -1.11810688
O        1.86892440       0.37976285       0.44802311
C        3.04935943       0.16084158      -0.31407863
H       -3.00303752       0.81737421       0.83567304
H       -3.52476303      -0.17628186      -0.52800745
H       -2.31107966       1.11364515      -0.77577909
H       -1.29328383      -1.12522256      -0.62424811
H       -1.12679553      -1.12155086       1.24427549
H       -0.51324017       0.83547378       1.44753361
H        3.85272592       0.64180692       0.23940304
H        2.96196883       0.60254707      -1.30756960
H        3.24839174      -0.90613521      -0.42138397
16
Frame=9 idx=008681 GeodesicLength=0.3996935958577302 rxn_smarts="[C:1]([N:2]([C:3]([C:4](=[O:5])[O:6][C:7]([H:14])([H:15])[H:16])([H:12])[H:13])[H:11])([H:8])([H:9])[H:10]>>[C:1]([N+:2]([C:3](=[C:4]([O-:5])[O:6][C:7]([H:14])([H:15])[H:16])[H:13])([H:11])[H:12])([H:8])([H:9])[H:10]"
C       -2.66075557       0.34528456      -0.09994975
N       -1.61420044      -0.61494205       0.21567987
C       -0.39064680      -0.04235892       0.83171629
C        0.73441403      -0.14603712      -0.05867167
O        0.70838592      -0.74503639      -1.12689959
O        1.86601998       0.37009566       0.45469114
C        3.04186784       0.16352204      -0.31785694
H       -2.99260007       0.84218275       0.81202994
H       -3.51544749      -0.17363865      -0.53477877
H       -2.28498873       1.09682965      -0.80030216
H       -1.29400423      -1.14100651      -0.60278139
H       -1.12409086      -1.13278858       1.26859700
H       -0.51118482       0.82289348       1.46704412
H        3.84916719       0.63236940       0.24025895
H        2.95015455       0.62424278      -1.30223232
H        3.23790950      -0.90161210      -0.44654473
16
Frame=10 idx=008681 GeodesicLength=0.44691241880652044 rxn_smarts="[C:1]([N:2]([C:3]([C:4](=[O:5])[O:6][C:7]([H:14])([H:15])[H:16])([H:12])[H:13])[H:11])([H:8])([H:9])[H:10]>>[C:1]([N+:2]([C:3](=[C:4]([O-:5])[O:6][C:7]([H:14])([H:15])[H:16])[H:13])([H:11])[H:12])([H:8])([H:9])[H:10]"
C       -2.64801647       0.34761744      -0.11190694
N       -1.61497643      -0.61901837       0.23130257
C       -0.39496487      -0.04839685       0.84121194
C        0.72736649      -0.14349161      -0.05528090
O        0.69350294      -0.72187211      -1.13473900
O        1.86333796       0.35844723       0.46235185
C        3.03389061       0.16657312      -0.32206789
H       -2.98076940       0.86788860       0.78658533
H       -3.50552362      -0.17057979      -0.54219884
H       -2.25730862       1.07864947      -0.82549488
H       -1.29464762      -1.15691777      -0.58037196
H       -1.12215439      -1.14385147       1.29383696
H       -0.50916632       0.81036954       1.48661948
H        3.84552290       0.62255554       0.24041259
H        2.93657381       0.64792708      -1.29595988
H        3.22733303      -0.89590005      -0.47430044
16
Frame=11 idx=008681 GeodesicLength=0.49514620715381574 rxn_smarts="[C:1]([N:2]([C:3]([C:4](=[O:5])[O:6][C:7]([H:14])([H:15])[H:16])([H:12])[H:13])[H:11])([H:8])([H:9])[H:10]>>[C:1]([N+:2]([C:3](=[C:4]([O-:5])[O:6][C:7]([H:14])([H:15])[H:16])[H:13])([H:11])[H:12])([H:8])([H:9])[H:10]"
C       -2.63401793       0.35025675      -0.12485232
N       -1.61615581      -0.62300600       0.24748497
C       -0.39945540      -0.05522738       0.85188562
C        0.72045016      -0.14334366      -0.05008721
O        0.67769427      -0.69913001      -1.14121824
O        1.86086588       0.34417496       0.47115224
C        3.02509115       0.17036875      -0.32687839
H       -2.96712348       0.89497359       0.75889891
H       -3.49473541      -0.16648314      -0.55064195
H       -2.22716419       1.05909061      -0.85160813
H       -1.29543066      -1.17327505      -0.55671675
H       -1.12147666      -1.15478412       1.32033845
H       -0.50696470       0.79754354       1.50651991
H        3.84135663       0.61298267       0.23954567
H        2.92035497       0.67420518      -1.28853688
H        3.21671118      -0.88834669      -0.50528590
16
Frame=12 idx=008681 GeodesicLength=0.5443742237223755 rxn_smarts="[C:1]([N:2]([C:3]([C:4](=[O:5])[O:6][C:7]([H:14])([H:15])[H:16])([H:12])[H:13])[H:11])([H:8])([H:9])[H:10]>>[C:1]([N+:2]([C:3](=[C:4]([O-:5])[O:6][C:7]([H:14])([H:15])[H:16])[H:13])([H:11])[H:12])([H:8])([H:9])[H:10]"
C       -2.61899972       0.35305770      -0.13848477
N       -1.61771803      -0.62675186       0.26396072
C       -0.40411849      -0.06263808       0.86337625
C        0.71354887      -0.14509315      -0.04365297
O        0.66113643      -0.67687261      -1.14644795
O        1.85856770       0.32782057       0.48056389
C        3.01566266       0.17475425      -0.33208889
H       -2.95162817       0.92289515       0.72945706
H       -3.48330021      -0.16154888      -0.55975124
H       -2.19526027       1.03821682      -0.87808883
H       -1.29643042      -1.18962892      -0.53230147
H       -1.12181405      -1.16558499       1.34765836
H       -0.50461053       0.78457479       1.52648209
H        3.83683228       0.60364677       0.23779151
H        2.90216281       0.70224316      -1.27996792
H        3.20596912      -0.87909073      -0.53850581
16
Frame=13 idx=008681 GeodesicLength=0.5944768691074471 rxn_smarts="[C:1]([N:2]([C:3]([C:4](=[O:5])[O:6][C:7]([H:14])([H:15])[H:16])([H:12])[H:13])[H:11])([H:8])([H:9])[H:10]>>[C:1]([N+:2]([C:3](=[C:4]([O-:5])[O:6][C:7]([H:14])([H:15])[H:16])[H:13])([H:11])[H:12])([H:8])([H:9])[H:10]"
C       -2.60325230       0.35586695      -0.15244926
N       -1.61956717      -0.63015501       0.28043254
C       -0.40887279      -0.07036224       0.87526333
C        0.70662435      -0.14797913      -0.03663703
O        0.64407607      -0.65508444      -1.15065309
O        1.85631509       0.31028325       0.48994210
C        3.00575372       0.17950869      -0.33747740
H       -2.93448463       0.95097228       0.69889289
H       -3.47144587      -0.15601467      -0.56917502
H       -2.16234970       1.01627884      -0.90433547
H       -1.29764100      -1.20553779      -0.50768314
H       -1.12273234      -1.17628531       1.37528120
H       -0.50211340       0.77152842       1.54634840
H        3.83197438       0.59454701       0.23534820
H        2.88283248       0.73093252      -1.27043683
H        3.19488312      -0.86849936      -0.57266141
16
Frame=14 idx=008681 GeodesicLength=0.6454064092780877 rxn_smarts="[C:1]([N:2]([C:3]([C:4](=[O:5])[O:6][C:7]([H:14])([H:15])[H:16])([H:12])[H:13])[H:11])([H:8])([H:9])[H:10]>>[C:1]([N+:2]([C:3](=[C:4]([O-:5])[O:6][C:7]([H:14])([H:15])[H:16])[H:13])([H:11])[H:12])([H:8])([H:9])[H:10]"
C       -2.58685525       0.35871538      -0.16660809
N       -1.62170709      -0.63316398       0.29675021
C       -0.41370727      -0.07838462       0.88736663
C        0.69968556      -0.15196720      -0.02924024
O        0.62671295      -0.63416195      -1.15382956
O        1.85406319       0.29178920       0.49907109
C        2.99541219       0.18464422      -0.34296925
H       -2.91567474       0.97902654       0.66748351
H       -3.45926164      -0.14980619      -0.57878992
H       -2.12867990       0.99344565      -0.93010296
H       -1.29916728      -1.22086395      -0.48310884
H       -1.12418605      -1.18691428       1.40300410
H       -0.49943532       0.75836729       1.56602093
H        3.82674141       0.58595058       0.23224236
H        2.86251982       0.75990457      -1.26002975
H        3.18353943      -0.85658126      -0.60726023
16
Frame=15 idx=008681 GeodesicLength=0.6970644670299303 rxn_smarts="[C:1]([N:2]([C:3]([C:4](=[O:5])[O:6][C:7]([H:14])([H:15])[H:16])([H:12])[H:13])[H:11])([H:8])([H:9])[H:10]>>[C:1]([N+:2]([C:3](=[C:4]([O-:5])[O:6][C:7]([H:14])([H:15])[H:16])[H:13])([H:11])[H:12])([H:8])([H:9])[H:10]"
C       -2.57000986       0.36153064      -0.18076681
N       -1.62407963      -0.63573069       0.31275594
C       -0.41858579      -0.08654228       0.89944415
C        0.69271964      -0.15664715      -0.02179862
O        0.60921710      -0.61411208      -1.15615219
O        1.85175767       0.27280835       0.50767242
C        2.98475281       0.19003486      -0.34844004
H       -2.89537669       1.00669928       0.63561342
H       -3.44690274      -0.14306060      -0.58839581
H       -2.09473533       0.96989601      -0.95510592
H       -1.30100958      -1.23542425      -0.45886862
H       -1.12591948      -1.19747862       1.43056047
H       -0.49658604       0.74515519       1.58538286
H        3.82117818       0.57785187       0.22863047
H        2.84168642       0.78861595      -1.24889061
H        3.17189332      -0.84359648      -0.64164109
16
Frame=16 idx=008681 GeodesicLength=0.7493845103199491 rxn_smarts="[C:1]([N:2]([C:3]([C:4](=[O:5])[O:6][C:7]([H:14])([H:15])[H:16])([H:12])[H:13])[H:11])([H:8])([H:9])[H:10]>>[C:1]([N+:2]([C:3](=[C:4]([O-:5])[O:6][C:7]([H:14])([H:15])[H:16])[H:13])([H:11])[H:12])([H:8])([H:9])[H:10]"
C       -2.55282075       0.36431012      -0.19483022
N       -1.62666440      -0.63782773       0.32836761
C       -0.42349444      -0.09477014       0.91136594
C        0.68573911      -0.16190691      -0.01445443
O        0.59172386      -0.59507373      -1.15770861
O        1.84938159       0.25352005       0.51564311
C        2.97383706       0.19564559      -0.35383240
H       -2.87369387       1.03382718       0.60350226
H       -3.43444700      -0.13579391      -0.59791448
H       -2.06076558       0.94577327      -0.97920567
H       -1.30320526      -1.24916732      -0.43510035
H       -1.12783683      -1.20797255       1.45783386
H       -0.49355380       0.73192151       1.60435315
H        3.81529270       0.57033349       0.22459376
H        2.82050275       0.81683702      -1.23711172
H        3.16000487      -0.82965591      -0.67550183
