16
Frame=0 idx=003924 GeodesicLength=0.0 rxn_smarts="[C:1]([C@@:2]([O:3][H:11])([C@@:4]([C:5]([H:13])([H:14])[H:15])([O:6][H:16])[H:12])[H:10])([H:7])([H:8])[H:9]>>[C:1]([C:2]([O:3][H:11])([O:6][H:16])[H:10])([H:7])([H:8])[H:9].[C:4]([C:5]([H:13])([H:14])[H:15])[H:12]"
C        1.96035882      -0.37451578      -0.09698702
C        0.77118328      -0.00487128       0.72763028
O        0.99306458       0.92166688       1.69014159
C       -0.72490063      -0.28364792      -0.86144976
C       -2.09717463      -0.49473944      -0.29563798
O       -0.24406232       1.09598988      -0.38095141
H        2.12798746       0.37069478      -0.87523058
H        1.79617031      -1.33399301      -0.57581810
H        2.84484344      -0.40698719       0.54939105
H        0.15589333      -0.78640750       1.14368155
H        1.60486052       1.59061757       1.36466316
H       -0.77463661      -0.18864380      -1.95117347
H       -2.54322031      -1.38197644      -0.75112134
H       -2.09426658      -0.66094384       0.79125442
H       -2.79484274       0.34598503      -0.48389849
H       -0.98125796       1.59177211       0.00550616
16
Frame=1 idx=003924 GeodesicLength=0.04635710701226839 rxn_smarts="[C:1]([C@@:2]([O:3][H:11])([C@@:4]([C:5]([H:13])([H:14])[H:15])([O:6][H:16])[H:12])[H:10])([H:7])([H:8])[H:9]>>[C:1]([C:2]([O:3][H:11])([O:6][H:16])[H:10])([H:7])([H:8])[H:9].[C:4]([C:5]([H:13])([H:14])[H:15])[H:12]"
C        1.96259477      -0.36587674      -0.10231815
C        0.76271579      -0.00722777       0.71328061
O        0.96994096       0.91757927       1.68496699
C       -0.72770291      -0.28942967      -0.85259069
C       -2.10279256      -0.48888402      -0.28872132
O       -0.24200651       1.09599723      -0.40011103
H        2.14202358       0.39282658      -0.86480704
H        1.80346980      -1.31675546      -0.60031945
H        2.83901208      -0.41495472       0.55348510
H        0.17039227      -0.80461984       1.13569004
H        1.60418911       1.57617980       1.38324906
H       -0.76717602      -0.21610761      -1.94403971
H       -2.54402346      -1.38715454      -0.72708914
H       -2.10679551      -0.63166696       0.80106560
H       -2.79782989       0.34757300      -0.50047763
H       -0.96601150       1.59252146       0.00873676
16
Frame=2 idx=003924 GeodesicLength=0.09279418392699511 rxn_smarts="[C:1]([C@@:2]([O:3][H:11])([C@@:4]([C:5]([H:13])([H:14])[H:15])([O:6][H:16])[H:12])[H:10])([H:7])([H:8])[H:9]>>[C:1]([C:2]([O:3][H:11])([O:6][H:16])[H:10])([H:7])([H:8])[H:9].[C:4]([C:5]([H:13])([H:14])[H:15])[H:12]"
C        1.96470962      -0.35712545      -0.10757577
C        0.75430062      -0.00974592       0.69899759
O        0.94677332       0.91339396       1.67952577
C       -0.73053408      -0.29512411      -0.84388262
C       -2.10822597      -0.48296374      -0.28172372
O       -0.24004238       1.09556635      -0.41939972
H        2.15582787       0.41517275      -0.85345793
H        1.81071148      -1.29874253      -0.62505080
H        2.83293959      -0.42329284       0.55712048
H        0.18517825      -0.82229046       1.12752606
H        1.60291851       1.56079025       1.40252209
H       -0.76011224      -0.24358147      -1.93652369
H       -2.54474993      -1.39204761      -0.70227744
H       -2.11880743      -0.60197680       0.81044527
H       -2.80066814       0.34852476      -0.51686403
H       -0.95021909       1.59344287       0.01061846
16
Frame=3 idx=003924 GeodesicLength=0.1392939767208411 rxn_smarts="[C:1]([C@@:2]([O:3][H:11])([C@@:4]([C:5]([H:13])([H:14])[H:15])([O:6][H:16])[H:12])[H:10])([H:7])([H:8])[H:9]>>[C:1]([C:2]([O:3][H:11])([O:6][H:16])[H:10])([H:7])([H:8])[H:9].[C:4]([C:5]([H:13])([H:14])[H:15])[H:12]"
C        1.96669724      -0.34831174      -0.11277378
C        0.74595319      -0.01238413       0.68480669
O        0.92368086       0.90918416       1.67380931
C       -0.73335707      -0.30068649      -0.83531462
C       -2.11347780      -0.47700733      -0.27468798
O       -0.23817574       1.09475050      -0.43873374
H        2.16933609       0.43757349      -0.84129055
H        1.81786747      -1.28007645      -0.64984559
H        2.82667556      -0.43194939       0.56018939
H        0.20015278      -0.83931754       1.11926744
H        1.60107709       1.54450476       1.42239105
H       -0.75334709      -0.27093761      -1.92861986
H       -2.54534460      -1.39664575      -0.67682435
H       -2.13036309      -0.57198543       0.81932928
H       -2.80340683       0.34879351      -0.53304587
H       -0.93396808       1.59449546       0.01134319
16
Frame=4 idx=003924 GeodesicLength=0.18587790421651812 rxn_smarts="[C:1]([C@@:2]([O:3][H:11])([C@@:4]([C:5]([H:13])([H:14])[H:15])([O:6][H:16])[H:12])[H:10])([H:7])([H:8])[H:9]>>[C:1]([C:2]([O:3][H:11])([O:6][H:16])[H:10])([H:7])([H:8])[H:9].[C:4]([C:5]([H:13])([H:14])[H:15])[H:12]"
C        1.96859593      -0.33940418      -0.11791707
C        0.73769507      -0.01516095       0.67069098
O        0.90065073       0.90492412       1.66783447
C       -0.73619225      -0.30615871      -0.82688460
C       -2.11857746      -0.47099094      -0.26760805
O       -0.23638946       1.09352417      -0.45815094
H        2.18256479       0.46008166      -0.82824449
H        1.82498379      -1.26066751      -0.67477560
H        2.82026949      -0.44092286       0.56267963
H        0.21534153      -0.85575602       1.11088865
H        1.59864598       1.52723484       1.44292450
H       -0.74691037      -0.29825224      -1.92033600
H       -2.54582158      -1.40096637      -0.65060124
H       -2.14150686      -0.54152676       0.82772417
H       -2.80608385       0.34837071      -0.54913025
H       -0.91726549       1.59567106       0.01090585
16
Frame=5 idx=003924 GeodesicLength=0.23250774817387124 rxn_smarts="[C:1]([C@@:2]([O:3][H:11])([C@@:4]([C:5]([H:13])([H:14])[H:15])([O:6][H:16])[H:12])[H:10])([H:7])([H:8])[H:9]>>[C:1]([C:2]([O:3][H:11])([O:6][H:16])[H:10])([H:7])([H:8])[H:9].[C:4]([C:5]([H:13])([H:14])[H:15])[H:12]"
C        1.97038177      -0.33042838      -0.12299859
C        0.72953673      -0.01803320       0.65667163
O        0.87778149       0.90068213       1.66158519
C       -0.73901699      -0.31151243      -0.81858444
C       -2.12351048      -0.46493838      -0.26052066
O       -0.23469336       1.09191198      -0.47760101
H        2.19543549       0.48256798      -0.81439348
H        1.83200504      -1.24057863      -0.69970066
H        2.81374452      -0.45016452       0.56453165
H        0.23068629      -0.87151959       1.10246075
H        1.59566145       1.50898636       1.46403853
H       -0.74075326      -0.32542923      -1.91166774
H       -2.54614610      -1.40496422      -0.62373616
H       -2.15224463      -0.51073073       0.83556478
H       -2.80870050       0.34722577      -0.56507653
H       -0.90016747       1.59692509       0.00942674
16
Frame=6 idx=003924 GeodesicLength=0.2792321477867989 rxn_smarts="[C:1]([C@@:2]([O:3][H:11])([C@@:4]([C:5]([H:13])([H:14])[H:15])([O:6][H:16])[H:12])[H:10])([H:7])([H:8])[H:9]>>[C:1]([C:2]([O:3][H:11])([O:6][H:16])[H:10])([H:7])([H:8])[H:9].[C:4]([C:5]([H:13])([H:14])[H:15])[H:12]"
C        1.97207543      -0.32135603      -0.12803597
C        0.72148466      -0.02102046       0.64272948
O        0.85504858       0.89642605       1.65507252
C       -0.74183501      -0.31677609      -0.81040991
C       -2.12828746      -0.45881893      -0.25341415
O       -0.23306878       1.08989135      -0.49711560
H        2.20794685       0.50506717      -0.79971064
H        1.83897204      -1.21973849      -0.72466813
H        2.80712765      -0.45964830       0.56571451
H        0.24618671      -0.88665492       1.09396216
H        1.59206667       1.48965830       1.48578665
H       -0.73487055      -0.35253015      -1.90261976
H       -2.54629486      -1.40863771      -0.59609302
H       -2.16261554      -0.47942730       0.84285093
H       -2.81127466       0.34533651      -0.58097330
H       -0.88266175       1.59822900       0.00692424
16
Frame=7 idx=003924 GeodesicLength=0.32600317396196493 rxn_smarts="[C:1]([C@@:2]([O:3][H:11])([C@@:4]([C:5]([H:13])([H:14])[H:15])([O:6][H:16])[H:12])[H:10])([H:7])([H:8])[H:9]>>[C:1]([C:2]([O:3][H:11])([O:6][H:16])[H:10])([H:7])([H:8])[H:9].[C:4]([C:5]([H:13])([H:14])[H:15])[H:12]"
C        1.97365949      -0.31221617      -0.13302086
C        0.71354888      -0.02408151       0.62888767
O        0.83255216       0.89223272       1.64828720
C       -0.74462679      -0.32192439      -0.80235589
C       -2.13290009      -0.45265796      -0.24632532
O       -0.23153086       1.08749492      -0.51664341
H        2.22002660       0.52745274      -0.78428033
H        1.84583546      -1.19823008      -0.74953954
H        2.80045668      -0.46931632       0.56618213
H        0.26179234      -0.90109011       1.08546639
H        1.58788988       1.46926336       1.50808467
H       -0.72921989      -0.37946324      -1.89319422
H       -2.54624833      -1.41194071      -0.56781431
H       -2.17262310      -0.44775976       0.84951771
H       -2.81381134       0.34268603      -0.59676176
H       -0.86480110       1.59955048       0.00350987
16
Frame=8 idx=003924 GeodesicLength=0.3727590722159151 rxn_smarts="[C:1]([C@@:2]([O:3][H:11])([C@@:4]([C:5]([H:13])([H:14])[H:15])([O:6][H:16])[H:12])[H:10])([H:7])([H:8])[H:9]>>[C:1]([C:2]([O:3][H:11])([O:6][H:16])[H:10])([H:7])([H:8])[H:9].[C:4]([C:5]([H:13])([H:14])[H:15])[H:12]"
C        1.97512012      -0.30304314      -0.13794165
C        0.70573907      -0.02717628       0.61517680
O        0.81040815       0.88817950       1.64123229
C       -0.74737366      -0.32693225      -0.79441267
C       -2.13734688      -0.44648490      -0.23929229
O       -0.23009936       1.08475999      -0.53612580
H        2.23161110       0.54958776      -0.76821235
H        1.85255025      -1.17616333      -0.77416331
H        2.79377470      -0.47909713       0.56590788
H        0.27745717      -0.91476157       1.07705874
H        1.58314347       1.44785928       1.53079902
H       -0.72375090      -0.40613211      -1.88339564
H       -2.54601500      -1.41481571      -0.53910154
H       -2.18227570      -0.41592787       0.85551232
H       -2.81630794       0.33929361      -0.61235184
H       -0.84663459       1.60085416      -0.00068995
16
Frame=9 idx=003924 GeodesicLength=0.41956894156427016 rxn_smarts="[C:1]([C@@:2]([O:3][H:11])([C@@:4]([C:5]([H:13])([H:14])[H:15])([O:6][H:16])[H:12])[H:10])([H:7])([H:8])[H:9]>>[C:1]([C:2]([O:3][H:11])([O:6][H:16])[H:10])([H:7])([H:8])[H:9].[C:4]([C:5]([H:13])([H:14])[H:15])[H:12]"
C        1.97647376      -0.29379696      -0.14282000
C        0.69805479      -0.03032743       0.60156924
O        0.78857127       0.88423235       1.63391161
C       -0.75008183      -0.33182707      -0.78657970
C       -2.14163326      -0.44026242      -0.23229690
O       -0.22875370       1.08166426      -0.55560341
H        2.24270272       0.57154110      -0.75146858
H        1.85914785      -1.15344611      -0.79861755
H        2.78710061      -0.48897355       0.56486561
H        0.29318302      -0.92773040       1.06869550
H        1.57777595       1.42529085       1.55403707
H       -0.71846657      -0.43261763      -1.87322451
H       -2.54554733      -1.41727702      -0.50974732
H       -2.19160699      -0.38369962       0.86082945
H       -2.81878515       0.33510766      -0.62786105
H       -0.82813515       1.60212200      -0.00568946
16
Frame=10 idx=003924 GeodesicLength=0.46635840146833074 rxn_smarts="[C:1]([C@@:2]([O:3][H:11])([C@@:4]([C:5]([H:13])([H:14])[H:15])([O:6][H:16])[H:12])[H:10])([H:7])([H:8])[H:9]>>[C:1]([C:2]([O:3][H:11])([O:6][H:16])[H:10])([H:7])([H:8])[H:9].[C:4]([C:5]([H:13])([H:14])[H:15])[H:12]"
C        1.97771254      -0.28451724      -0.14764053
C        0.69050532      -0.03349999       0.58810137
O        0.76716761       0.88046430       1.62634292
C       -0.75273428      -0.33658392      -0.77884613
C       -2.14576369      -0.43402292      -0.22537553
O       -0.22751091       1.07824782      -0.57500737
H        2.25325585       0.59317253      -0.73417091
H        1.86558728      -1.13020963      -0.82275036
H        2.78048509      -0.49886476       0.56304640
H        0.30892563      -0.93994607       1.06046407
H        1.57177687       1.40165624       1.57762323
H       -0.71332015      -0.45881562      -1.86268844
H       -2.54487818      -1.41926149      -0.47998823
H       -2.20062851      -0.35131077       0.86542464
H       -2.82123617       0.33016721      -0.64317378
H       -0.80934429       1.60332431      -0.01136136
16
Frame=11 idx=003924 GeodesicLength=0.5132006707333955 rxn_smarts="[C:1]([C@@:2]([O:3][H:11])([C@@:4]([C:5]([H:13])([H:14])[H:15])([O:6][H:16])[H:12])[H:10])([H:7])([H:8])[H:9]>>[C:1]([C:2]([O:3][H:11])([O:6][H:16])[H:10])([H:7])([H:8])[H:9].[C:4]([C:5]([H:13])([H:14])[H:15])[H:12]"
C        1.97885126      -0.27515895      -0.15242499
C        0.68309069      -0.03672552       0.57474032
O        0.74615010       0.87681442       1.61852969
C       -0.75533772      -0.34122571      -0.77121517
C       -2.14973852      -0.42772041      -0.21850712
O       -0.22634938       1.07448685      -0.59438680
H        2.26325696       0.61455215      -0.71629703
H        1.87190722      -1.10636041      -0.84662775
H        2.77394308      -0.50874546       0.56043169
H        0.32469591      -0.95148176       1.05230771
H        1.56504830       1.37679905       1.60166514
H       -0.70831366      -0.48480392      -1.85179059
H       -2.54394674      -1.42076890      -0.44958681
H       -2.20936973      -0.31851581       0.86928486
H       -2.82367612       0.32441652      -0.65840050
H       -0.79021166       1.60443787      -0.01772264
16
Frame=12 idx=003924 GeodesicLength=0.5600266545133455 rxn_smarts="[C:1]([C@@:2]([O:3][H:11])([C@@:4]([C:5]([H:13])([H:14])[H:15])([O:6][H:16])[H:12])[H:10])([H:7])([H:8])[H:9]>>[C:1]([C:2]([O:3][H:11])([O:6][H:16])[H:10])([H:7])([H:8])[H:9].[C:4]([C:5]([H:13])([H:14])[H:15])[H:12]"
C        1.97986716      -0.26577416      -0.15714906
C        0.67580883      -0.03996354       0.56153144
O        0.72564182       0.87338359       1.61048682
C       -0.75786800      -0.34572300      -0.76367058
C       -2.15354661      -0.42139691      -0.21172565
O       -0.22529191       1.07042874      -0.61366227
H        2.27268140       0.63554353      -0.69794813
H        1.87803722      -1.08202773      -0.87012048
H        2.76750364      -0.51856733       0.55703326
H        0.34044500      -0.96228118       1.04433171
H        1.55759636       1.35083270       1.62593220
H       -0.70340492      -0.51045971      -1.84053145
H       -2.54278393      -1.42173581      -0.41881679
H       -2.21780757      -0.28560184       0.87237488
H       -2.82607869       0.31790523      -0.67340532
H       -0.77079980       1.60543743      -0.02466058
16
Frame=13 idx=003924 GeodesicLength=0.6068813907495441 rxn_smarts="[C:1]([C@@:2]([O:3][H:11])([C@@:4]([C:5]([H:13])([H:14])[H:15])([O:6][H:16])[H:12])[H:10])([H:7])([H:8])[H:9]>>[C:1]([C:2]([O:3][H:11])([O:6][H:16])[H:10])([H:7])([H:8])[H:9].[C:4]([C:5]([H:13])([H:14])[H:15])[H:12]"
C        1.98079003      -0.25632427      -0.16183083
C        0.66866950      -0.04325261       0.54844606
O        0.70562302       0.87009168       1.60223781
C       -0.76033816      -0.35009475      -0.75622048
C       -2.15720323      -0.41500912      -0.20501656
O       -0.22431855       1.06605282      -0.63286382
H        2.28151989       0.65619677      -0.67912602
H        1.88402934      -1.05715517      -0.89326520
H        2.76120511      -0.52828241       0.55284289
H        0.35618944      -0.97242684       1.03646786
H        1.54929691       1.32366745       1.65049209
H       -0.69859824      -0.53584682      -1.82892320
H       -2.54135179      -1.42214931      -0.38747887
H       -2.22598937      -0.25235094       0.87467253
H       -2.82847411       0.31058610      -0.68826928
H       -0.75104977       1.60629743      -0.03216499
16
Frame=14 idx=003924 GeodesicLength=0.6538353827706052 rxn_smarts="[C:1]([C@@:2]([O:3][H:11])([C@@:4]([C:5]([H:13])([H:14])[H:15])([O:6][H:16])[H:12])[H:10])([H:7])([H:8])[H:9]>>[C:1]([C:2]([O:3][H:11])([O:6][H:16])[H:10])([H:7])([H:8])[H:9].[C:4]([C:5]([H:13])([H:14])[H:15])[H:12]"
C        1.98163600      -0.24677988      -0.16647668
C        0.66166671      -0.04662128       0.53546405
O        0.68605982       0.86690466       1.59379601
C       -0.76275347      -0.35436509      -0.74886414
C       -2.16071050      -0.40852612      -0.19835669
O       -0.22340553       1.06134101      -0.65202112
H        2.28980739       0.67657466      -0.65976490
H        1.88990918      -1.03164668      -0.91614072
H        2.75505472      -0.53789475       0.54785853
H        0.37193249      -0.98199318       1.02867301
H        1.54003653       1.29521135       1.67533852
H       -0.69390537      -0.56102870      -1.81696284
H       -2.53962873      -1.42197470      -0.35540706
H       -2.23391937      -0.21861389       0.87615064
H       -2.83086610       0.30241154      -0.70303300
H       -0.73091376       1.60700106      -0.04025360
16
Frame=15 idx=003924 GeodesicLength=0.7008241871911438 rxn_smarts="[C:1]([C@@:2]([O:3][H:11])([C@@:4]([C:5]([H:13])([H:14])[H:15])([O:6][H:16])[H:12])[H:10])([H:7])([H:8])[H:9]>>[C:1]([C:2]([O:3][H:11])([O:6][H:16])[H:10])([H:7])([H:8])[H:9].[C:4]([C:5]([H:13])([H:14])[H:15])[H:12]"
C        1.98240665      -0.23717596      -0.17107149
C        0.65480683      -0.05004970       0.52261592
O        0.66704651       0.86387100       1.58518242
C       -0.76510088      -0.35850317      -0.74160086
C       -2.16407400      -0.40197408      -0.19177055
O       -0.22257225       1.05633996      -0.67108157
H        2.29751526       0.69657188      -0.63999308
H        1.89565106      -1.00562343      -0.93862285
H        2.74910438      -0.54734102       0.54210453
H        0.38764376      -0.99095766       1.02101714
H        1.52980012       1.26554181       1.70032115
H       -0.68929267      -0.58589453      -1.80467421
H       -2.53762918      -1.42116450      -0.32277146
H       -2.24160686      -0.18457707       0.87678159
H       -2.83326874       0.29340759      -0.71759954
H       -0.71042999       1.60752887      -0.04883714
16
Frame=16 idx=003924 GeodesicLength=0.7479436566789224 rxn_smarts="[C:1]([C@@:2]([O:3][H:11])([C@@:4]([C:5]([H:13])([H:14])[H:15])([O:6][H:16])[H:12])[H:10])([H:7])([H:8])[H:9]>>[C:1]([C:2]([O:3][H:11])([O:6][H:16])[H:10])([H:7])([H:8])[H:9].[C:4]([C:5]([H:13])([H:14])[H:15])[H:12]"
C        1.98308207      -0.22749052      -0.17562069
C        0.64808221      -0.05357502       0.50987677
O        0.64856081       0.86092484       1.57641340
C       -0.76737737      -0.36253207      -0.73442060
C       -2.16726027      -0.39531899      -0.18524067
O       -0.22179546       1.05101872      -0.69003424
H        2.30462242       0.71621216      -0.61976465
H        1.90124916      -0.97902434      -0.96075147
H        2.74331896      -0.55658643       0.53557399
H        0.40333207      -0.99939638       1.01342124
H        1.51842396       1.23465043       1.72536998
H       -0.68475441      -0.61049931      -1.79203530
H       -2.53530537      -1.41965309      -0.28945760
H       -2.24903026      -0.15012408       0.87652225
H       -2.83562070       0.28355190      -0.73196655
H       -0.68952784       1.60784219      -0.05788586
