12
Frame=0 idx=004412 GeodesicLength=0.0 rxn_smarts="[C:1]([C@@:2]([C:3](=[O:4])[H:11])([C:5]#[C:6][H:12])[H:10])([H:7])([H:8])[H:9]>>[C:1](=[C:2]([C@@:3]([O:4][H:8])([C:5]#[C:6][H:12])[H:11])[H:10])([H:7])[H:9]"
C       -0.01326467       1.46956185       0.57884202
C       -0.16580077       0.05976838       0.77695589
C       -0.99254720      -0.56982929      -0.24765782
O       -1.37030656       0.18851741      -1.23247779
C        0.75985659      -0.84419489      -0.17364110
C        1.69576933      -1.40428074      -0.68843794
H        0.83858386       1.95675674       1.03147324
H       -0.82788651       1.04528345      -1.03058178
H       -0.94700323       2.02760888       0.61650899
H       -0.08119134      -0.49696148       1.71357954
H       -1.42750728      -1.55994220      -0.18910736
H        2.53129783      -1.87228812      -1.15545591
12
Frame=1 idx=004412 GeodesicLength=0.08657922978178909 rxn_smarts="[C:1]([C@@:2]([C:3](=[O:4])[H:11])([C:5]#[C:6][H:12])[H:10])([H:7])([H:8])[H:9]>>[C:1](=[C:2]([C@@:3]([O:4][H:8])([C:5]#[C:6][H:12])[H:11])[H:10])([H:7])[H:9]"
C       -0.01951578       1.47290906       0.57613462
C       -0.16298506       0.06250081       0.77434651
C       -0.98954934      -0.57226206      -0.25262456
O       -1.37275635       0.18905541      -1.23333180
C        0.76577504      -0.85446676      -0.18226760
C        1.70328552      -1.41904746      -0.68822311
H        0.82940225       1.96220086       1.03273187
H       -0.82321191       1.06404947      -1.02652156
H       -0.95610075       2.02517845       0.62643320
H       -0.08302768      -0.48782859       1.71448433
H       -1.42967972      -1.55977681      -0.18067974
H        2.53836379      -1.88251237      -1.16048216
12
Frame=2 idx=004412 GeodesicLength=0.17318973333711007 rxn_smarts="[C:1]([C@@:2]([C:3](=[O:4])[H:11])([C:5]#[C:6][H:12])[H:10])([H:7])([H:8])[H:9]>>[C:1](=[C:2]([C@@:3]([O:4][H:8])([C:5]#[C:6][H:12])[H:11])[H:10])([H:7])[H:9]"
C       -0.02602229       1.47634876       0.57372668
C       -0.16007238       0.06530436       0.77165898
C       -0.98649179      -0.57468100      -0.25761019
O       -1.37562235       0.18948671      -1.23404589
C        0.77177009      -0.86459903      -0.19133299
C        1.71091913      -1.43343505      -0.68845028
H        0.81993966       1.96779532       1.03421173
H       -0.81815618       1.08310545      -1.02250895
H       -0.96540413       2.02259391       0.63630472
H       -0.08461329      -0.47874138       1.71516452
H       -1.43154944      -1.55950158      -0.17209511
H        2.54530298      -1.89367649      -1.16502321
12
Frame=3 idx=004412 GeodesicLength=0.2598015022263697 rxn_smarts="[C:1]([C@@:2]([C:3](=[O:4])[H:11])([C:5]#[C:6][H:12])[H:10])([H:7])([H:8])[H:9]>>[C:1](=[C:2]([C@@:3]([O:4][H:8])([C:5]#[C:6][H:12])[H:11])[H:10])([H:7])[H:9]"
C       -0.03270564       1.47983296       0.57157229
C       -0.15711873       0.06816303       0.76893616
C       -0.98343083      -0.57710498      -0.26256991
O       -1.37884691       0.18975412      -1.23464009
C        0.77775711      -0.87475798      -0.20068995
C        1.71856973      -1.44772015      -0.68887856
H        0.81027618       1.97345187       1.03590713
H       -0.81255525       1.10238463      -1.01860627
H       -0.97480352       2.01989243       0.64597598
H       -0.08610310      -0.46966189       1.71570743
H       -1.43324267      -1.55909441      -0.16328049
H        2.55220364      -1.90513962      -1.16943374
12
Frame=4 idx=004412 GeodesicLength=0.3464000848665541 rxn_smarts="[C:1]([C@@:2]([C:3](=[O:4])[H:11])([C:5]#[C:6][H:12])[H:10])([H:7])([H:8])[H:9]>>[C:1](=[C:2]([C@@:3]([O:4][H:8])([C:5]#[C:6][H:12])[H:11])[H:10])([H:7])[H:9]"
C       -0.03955468       1.48335423       0.56966074
C       -0.15412588       0.07107794       0.76617734
C       -0.98038002      -0.57953768      -0.26749228
O       -1.38244595       0.18984527      -1.23509868
C        0.78371903      -0.88496305      -0.21034445
C        1.72621760      -1.46192954      -0.68950810
H        0.80041107       1.97916033       1.03783108
H       -0.80636947       1.12190013      -1.01481986
H       -0.98429668       2.01707484       0.65542293
H       -0.08749865      -0.46058566       1.71611734
H       -1.43476034      -1.55855419      -0.15423087
H        2.55908397      -1.91684261      -1.17371521
12
Frame=5 idx=004412 GeodesicLength=0.43296439974978895 rxn_smarts="[C:1]([C@@:2]([C:3](=[O:4])[H:11])([C:5]#[C:6][H:12])[H:10])([H:7])([H:8])[H:9]>>[C:1](=[C:2]([C@@:3]([O:4][H:8])([C:5]#[C:6][H:12])[H:11])[H:10])([H:7])[H:9]"
C       -0.04655930       1.48690517       0.56798451
C       -0.15110062       0.07404933       0.76338863
C       -0.97735263      -0.58198369      -0.27236217
O       -1.38642931       0.18974677      -1.23541042
C        0.78963757      -0.89523924      -0.22028800
C        1.73384421      -1.47609325      -0.69031804
H        0.79034347       1.98491312       1.03999429
H       -0.79954305       1.14165595      -1.01115569
H       -0.99388090       2.01415325       0.66461202
H       -0.08881229      -0.45150738       1.71640687
H       -1.43610858      -1.55788645      -0.14494272
H        2.56596144      -1.92871357      -1.17790928
12
Frame=6 idx=004412 GeodesicLength=0.5194892761762518 rxn_smarts="[C:1]([C@@:2]([C:3](=[O:4])[H:11])([C:5]#[C:6][H:12])[H:10])([H:7])([H:8])[H:9]>>[C:1](=[C:2]([C@@:3]([O:4][H:8])([C:5]#[C:6][H:12])[H:11])[H:10])([H:7])[H:9]"
C       -0.05371224       1.49048106       0.56653335
C       -0.14804409       0.07708021       0.76056840
C       -0.97435920      -0.58444664      -0.27716995
O       -1.39081220       0.18944436      -1.23555954
C        0.79549854      -0.90559915      -0.23052921
C        1.74143531      -1.49023300      -0.69130762
H        0.78006592       1.99070408       1.04241227
H       -0.79203784       1.16167232      -1.00761423
H       -1.00355965       2.01112864       0.67352121
H       -0.09004273      -0.44242190       1.71657809
H       -1.43728150      -1.55709257      -0.13541286
H        2.57284968      -1.94071741      -1.18201990
12
Frame=7 idx=004412 GeodesicLength=0.6059717660778839 rxn_smarts="[C:1]([C@@:2]([C:3](=[O:4])[H:11])([C:5]#[C:6][H:12])[H:10])([H:7])([H:8])[H:9]>>[C:1](=[C:2]([C@@:3]([O:4][H:8])([C:5]#[C:6][H:12])[H:11])[H:10])([H:7])[H:9]"
C       -0.06101572       1.49408370       0.56530317
C       -0.14495273       0.08017543       0.75771157
C       -0.97140499      -0.58692815      -0.28190879
O       -1.39562039       0.18892793      -1.23552633
C        0.80129640      -0.91603762      -0.24109278
C        1.74898772      -1.50433099      -0.69250473
H        0.76956007       1.99653674       1.04510644
H       -0.78381831       1.18197378      -1.00419123
H       -1.01335158       2.00800109       0.68213903
H       -0.09117118      -0.43332794       1.71662575
H       -1.43825956      -1.55618035      -0.12564540
H        2.57975025      -1.95289362      -1.18601671
12
Frame=8 idx=004412 GeodesicLength=0.6924305182577429 rxn_smarts="[C:1]([C@@:2]([C:3](=[O:4])[H:11])([C:5]#[C:6][H:12])[H:10])([H:7])([H:8])[H:9]>>[C:1](=[C:2]([C@@:3]([O:4][H:8])([C:5]#[C:6][H:12])[H:11])[H:10])([H:7])[H:9]"
C       -0.06846643       1.49770966       0.56428813
C       -0.14182880       0.08333896       0.75481939
C       -0.96849881      -0.58943302      -0.28656578
O       -1.40087323       0.18818040      -1.23529557
C        0.80701800      -0.92656426      -0.25198582
C        1.75649140      -1.51839707      -0.69390832
H        0.75880871       2.00240992       1.04809881
H       -0.77482633       1.20258290      -1.00088507
H       -1.02326416       2.00477607       0.69043322
H       -0.09219413      -0.42422065       1.71655427
H       -1.43903194      -1.55515986      -0.11563790
H        2.58666572      -1.96522304      -1.18991537
12
Frame=9 idx=004412 GeodesicLength=0.7788351652157919 rxn_smarts="[C:1]([C@@:2]([C:3](=[O:4])[H:11])([C:5]#[C:6][H:12])[H:10])([H:7])([H:8])[H:9]>>[C:1](=[C:2]([C@@:3]([O:4][H:8])([C:5]#[C:6][H:12])[H:11])[H:10])([H:7])[H:9]"
C       -0.07606665       1.50136163       0.56348835
C       -0.13867325       0.08657471       0.75189213
C       -0.96564439      -0.59196534      -0.29113160
O       -1.40659311       0.18719001      -1.23484755
C        0.81265862      -0.93717642      -0.26322205
C        1.76394627      -1.53241147      -0.69553049
H        0.74779052       2.00832933       1.05141637
H       -0.76501093       1.22351477      -0.99769992
H       -1.03331477       2.00146193       0.69838080
H       -0.09310035      -0.41509900       1.71636503
H       -1.43958009      -1.55404369      -0.10539381
H        2.59358814      -1.97773645      -1.19371727
12
Frame=10 idx=004412 GeodesicLength=0.8652286399843176 rxn_smarts="[C:1]([C@@:2]([C:3](=[O:4])[H:11])([C:5]#[C:6][H:12])[H:10])([H:7])([H:8])[H:9]>>[C:1](=[C:2]([C@@:3]([O:4][H:8])([C:5]#[C:6][H:12])[H:11])[H:10])([H:7])[H:9]"
C       -0.08381175       1.50503366       0.56288898
C       -0.13548806       0.08988833       0.74892619
C       -0.96285199      -0.59452920      -0.29559652
O       -1.41279750       0.18593220      -1.23416874
C        0.81820176      -0.94788615      -0.27481260
C        1.77133906      -1.54639371      -0.69737035
H        0.73648877       2.01428678       1.05507524
H       -0.75431351       1.24480525      -0.99461701
H       -1.04350919       1.99805716       0.70595062
H       -0.09388621      -0.40595433       1.71605838
H       -1.43989597      -1.55283969      -0.09490516
H        2.60052460      -1.99040030      -1.19742901
12
Frame=11 idx=004412 GeodesicLength=0.9516171113189719 rxn_smarts="[C:1]([C@@:2]([C:3](=[O:4])[H:11])([C:5]#[C:6][H:12])[H:10])([H:7])([H:8])[H:9]>>[C:1](=[C:2]([C@@:3]([O:4][H:8])([C:5]#[C:6][H:12])[H:11])[H:10])([H:7])[H:9]"
C       -0.09170074       1.50872551       0.56248702
C       -0.13227607       0.09328291       0.74592070
C       -0.96012908      -0.59713067      -0.29994960
O       -1.41951671       0.18438635      -1.23323570
C        0.82363660      -0.95869553      -0.28677328
C        1.77866300      -1.56032844      -0.69944626
H        0.72488001       2.02028057       1.05910857
H       -0.74266510       1.26647936      -0.99163469
H       -1.05385938       1.99457200       0.71310236
H       -0.09454088      -0.39678570       1.71563464
H       -1.43996390      -1.55156318      -0.08416607
H        2.60747224      -2.00322317      -1.20104770
12
Frame=12 idx=004412 GeodesicLength=1.0380162448648427 rxn_smarts="[C:1]([C@@:2]([C:3](=[O:4])[H:11])([C:5]#[C:6][H:12])[H:10])([H:7])([H:8])[H:9]>>[C:1](=[C:2]([C@@:3]([O:4][H:8])([C:5]#[C:6][H:12])[H:11])[H:10])([H:7])[H:9]"
C       -0.09973055       1.51243454       0.56227252
C       -0.12904126       0.09676338       0.74287522
C       -0.95748408      -0.59977655      -0.30417766
O       -1.42677375       0.18252634      -1.23203174
C        0.82894803      -0.96961391      -0.29911257
C        1.78590904      -1.57421999      -0.70175945
H        0.71293942       2.02630551       1.06354459
H       -0.72998751       1.28856650      -0.98874302
H       -1.06437476       1.99101173       0.71979393
H       -0.09505891      -0.38758524       1.71509745
H       -1.43977187      -1.55022813      -0.07316849
H        2.61442619      -2.01618417      -1.20459078
12
Frame=13 idx=004412 GeodesicLength=1.1244181118759868 rxn_smarts="[C:1]([C@@:2]([C:3](=[O:4])[H:11])([C:5]#[C:6][H:12])[H:10])([H:7])([H:8])[H:9]>>[C:1](=[C:2]([C@@:3]([O:4][H:8])([C:5]#[C:6][H:12])[H:11])[H:10])([H:7])[H:9]"
C       -0.10790015       1.51616157       0.56223997
C       -0.12579077       0.10033409       0.73979296
C       -0.95492165      -0.60247522      -0.30826761
O       -1.43459222       0.18032609      -1.23053736
C        0.83412636      -0.98064765      -0.31183265
C        1.79307480      -1.58805684      -0.70430689
H        0.70063603       2.03236219       1.06842190
H       -0.71618842       1.31108762      -0.98593781
H       -1.07507092       1.98738901       0.72597312
H       -0.09543874      -0.37834709       1.71445375
H       -1.43930571      -1.54885316      -0.06190230
H        2.62137140      -2.02928062      -1.20809707
12
Frame=14 idx=004412 GeodesicLength=1.210836279951645 rxn_smarts="[C:1]([C@@:2]([C:3](=[O:4])[H:11])([C:5]#[C:6][H:12])[H:10])([H:7])([H:8])[H:9]>>[C:1](=[C:2]([C@@:3]([O:4][H:8])([C:5]#[C:6][H:12])[H:11])[H:10])([H:7])[H:9]"
C       -0.11620380       1.51990002       0.56237479
C       -0.12252831       0.10399829       0.73666860
C       -0.95245525      -0.60523466      -0.31220739
O       -1.44300374       0.17775394      -1.22872950
C        0.83914994      -0.99180823      -0.32495296
C        1.80014440      -1.60184057      -0.70711059
H        0.68794533       2.03843687       1.07376531
H       -0.70119078       1.33408446      -0.98319532
H       -1.08594961       1.98370901       0.73159074
H       -0.09566905      -0.36906649       1.71370129
H       -1.43855555      -1.54744966      -0.05035453
H        2.62831643      -2.04248298      -1.21155044
12
Frame=15 idx=004412 GeodesicLength=1.2972598038789058 rxn_smarts="[C:1]([C@@:2]([C:3](=[O:4])[H:11])([C:5]#[C:6][H:12])[H:10])([H:7])([H:8])[H:9]>>[C:1](=[C:2]([C@@:3]([O:4][H:8])([C:5]#[C:6][H:12])[H:11])[H:10])([H:7])[H:9]"
C       -0.12463899       1.52365007       0.56266860
C       -0.11926291       0.10776026       0.73350528
C       -0.95009100      -0.60806590      -0.31598134
O       -1.45203650       0.17477588      -1.22658484
C        0.84400566      -1.00310439      -0.33847517
C        1.80711450      -1.61555700      -0.71017191
H        0.67482833       2.04452491       1.07962118
H       -0.68488446       1.35758331      -0.98050545
H       -1.09702416       1.97998748       0.73657840
H       -0.09574795      -0.35973563       1.71284752
H       -1.43750559      -1.54603830      -0.03850981
H        2.63524307      -2.05578068      -1.21499247
12
Frame=16 idx=004412 GeodesicLength=1.3836751869862915 rxn_smarts="[C:1]([C@@:2]([C:3](=[O:4])[H:11])([C:5]#[C:6][H:12])[H:10])([H:7])([H:8])[H:9]>>[C:1](=[C:2]([C@@:3]([O:4][H:8])([C:5]#[C:6][H:12])[H:11])[H:10])([H:7])[H:9]"
C       -0.13320318       1.52741041       0.56310959
C       -0.11600319       0.11162513       0.73030414
C       -0.94783507      -0.61098083      -0.31957431
O       -1.46171865       0.17135316      -1.22407887
C        0.84867960      -1.01454420      -0.35240377
C        1.81398265      -1.62919238      -0.71349584
H        0.66124201       2.05061965       1.08603442
H       -0.66715889       1.38161901      -0.97784858
H       -1.10830634       1.97623743       0.74086484
H       -0.09567189      -0.35034546       1.71189795
H       -1.43613748      -1.54463842      -0.02635185
H        2.64213043      -2.06916350      -1.21845773
