12
Frame=0 idx=002519 GeodesicLength=0.0 rxn_smarts="[C:1](/[C:2](=[N:3]\[H:10])[N:4]([C:5](=[O:6])[H:12])[H:11])([H:7])([H:8])[H:9]>>[C-:5]#[O+:6].[C:1]([C+:2]([N:3]([H:10])[H:12])[N-:4][H:11])([H:7])([H:8])[H:9]"
C       -1.51461978       0.13273149       0.64206116
C       -0.21844468       0.13293856      -0.10203659
N        0.27184950       1.17474930      -0.72476925
N        0.55408467      -0.94697901      -0.15446543
C        2.03612387      -0.55022741      -0.56868310
O        2.83396651      -1.42285402      -0.51216885
H       -2.01118769       1.09903115       0.56965068
H       -1.33495240      -0.09923726       1.69332821
H       -2.17592113      -0.63347355       0.23570057
H       -0.17085630       2.06862209      -0.59598004
H        0.31694909      -1.76755002       0.38419185
H        1.41300830       0.81224863      -0.86682924
12
Frame=1 idx=002519 GeodesicLength=0.09269604841513403 rxn_smarts="[C:1](/[C:2](=[N:3]\[H:10])[N:4]([C:5](=[O:6])[H:12])[H:11])([H:7])([H:8])[H:9]>>[C-:5]#[O+:6].[C:1]([C+:2]([N:3]([H:10])[H:12])[N-:4][H:11])([H:7])([H:8])[H:9]"
C       -1.50503431       0.14018881       0.65480107
C       -0.24098149       0.12039584      -0.14286858
N        0.26051440       1.17236733      -0.74083448
N        0.54371216      -0.95149268      -0.18598469
C        2.06281887      -0.54083365      -0.50904972
O        2.85271451      -1.42032668      -0.48968989
H       -2.01570457       1.09770927       0.56502937
H       -1.28552551      -0.04770539       1.70730140
H       -2.17507694      -0.64609633       0.30516498
H       -0.20362706       2.05819870      -0.63295403
H        0.26764020      -1.80744371       0.27220165
H        1.43854974       0.82503849      -0.80311707
12
Frame=2 idx=002519 GeodesicLength=0.1850850544876227 rxn_smarts="[C:1](/[C:2](=[N:3]\[H:10])[N:4]([C:5](=[O:6])[H:12])[H:11])([H:7])([H:8])[H:9]>>[C-:5]#[O+:6].[C:1]([C+:2]([N:3]([H:10])[H:12])[N-:4][H:11])([H:7])([H:8])[H:9]"
C       -1.49471604       0.14727159       0.66633461
C       -0.26233711       0.10948961      -0.17959527
N        0.24955898       1.16983175      -0.75546159
N        0.53293448      -0.95540963      -0.21426763
C        2.08359860      -0.53585197      -0.45227124
O        2.86942309      -1.41705254      -0.46745156
H       -2.02166784       1.09408637       0.55898884
H       -1.23787260       0.00413402       1.71741775
H       -2.16808452      -0.65877103       0.37291464
H       -0.23291490       2.04801267      -0.66681024
H        0.22379765      -1.83963326       0.16049582
H        1.45828019       0.83389241      -0.74029413
12
Frame=3 idx=002519 GeodesicLength=0.2782393234511764 rxn_smarts="[C:1](/[C:2](=[N:3]\[H:10])[N:4]([C:5](=[O:6])[H:12])[H:11])([H:7])([H:8])[H:9]>>[C-:5]#[O+:6].[C:1]([C+:2]([N:3]([H:10])[H:12])[N-:4][H:11])([H:7])([H:8])[H:9]"
C       -1.48453508       0.15401435       0.67680595
C       -0.28227728       0.10021905      -0.21181402
N        0.23902449       1.16747410      -0.76859871
N        0.52207141      -0.95895511      -0.23907367
C        2.10024060      -0.53491248      -0.39901465
O        2.88483146      -1.41418537      -0.44679132
H       -2.03022027       1.08794411       0.55087306
H       -1.19362326       0.05708161       1.72429779
H       -2.15562808      -0.67198617       0.43916380
H       -0.25884213       2.03872826      -0.69664387
H        0.18531487      -1.86449927       0.05048078
H        1.47364327       0.83907692      -0.67968514
12
Frame=4 idx=002519 GeodesicLength=0.37120326658428626 rxn_smarts="[C:1](/[C:2](=[N:3]\[H:10])[N:4]([C:5](=[O:6])[H:12])[H:11])([H:7])([H:8])[H:9]>>[C-:5]#[O+:6].[C:1]([C+:2]([N:3]([H:10])[H:12])[N-:4][H:11])([H:7])([H:8])[H:9]"
C       -1.47447402       0.16033033       0.68630978
C       -0.30078459       0.09229410      -0.23996775
N        0.22872277       1.16519714      -0.78035977
N        0.51106122      -0.96228027      -0.26125755
C        2.11360385      -0.53747948      -0.34968801
O        2.89907163      -1.41188474      -0.42719374
H       -2.04089989       1.07902164       0.54112970
H       -1.15299188       0.11093082       1.72818550
H       -2.13824126      -0.68520826       0.50370391
H       -0.28206571       2.03010360      -0.72234290
H        0.15145277      -1.88182829      -0.05679229
H        1.48554511       0.84080340      -0.62172688
12
Frame=5 idx=002519 GeodesicLength=0.46429671582611587 rxn_smarts="[C:1](/[C:2](=[N:3]\[H:10])[N:4]([C:5](=[O:6])[H:12])[H:11])([H:7])([H:8])[H:9]>>[C-:5]#[O+:6].[C:1]([C+:2]([N:3]([H:10])[H:12])[N-:4][H:11])([H:7])([H:8])[H:9]"
C       -1.46495999       0.16636705       0.69511179
C       -0.31820589       0.08557150      -0.26456543
N        0.21825735       1.16303250      -0.79139903
N        0.49973946      -0.96548183      -0.28110459
C        2.12457495      -0.54306117      -0.30422967
O        2.91249820      -1.41059992      -0.40763840
H       -2.05382627       1.06753714       0.53033953
H       -1.11619076       0.16569679       1.72938400
H       -2.11644775      -0.69834769       0.56675126
H       -0.30269944       2.02261073      -0.74336395
H        0.12239786      -1.89265226      -0.16153608
H        1.49486228       0.83932717      -0.56774942
12
Frame=6 idx=002519 GeodesicLength=0.5575631584234414 rxn_smarts="[C:1](/[C:2](=[N:3]\[H:10])[N:4]([C:5](=[O:6])[H:12])[H:11])([H:7])([H:8])[H:9]>>[C-:5]#[O+:6].[C:1]([C+:2]([N:3]([H:10])[H:12])[N-:4][H:11])([H:7])([H:8])[H:9]"
C       -1.45590017       0.17212432       0.70333377
C       -0.33469629       0.07976304      -0.28633733
N        0.20773961       1.16104350      -0.80174473
N        0.48811811      -0.96878440      -0.29955360
C        2.13385074      -0.55130800      -0.26165137
O        2.92531580      -1.41043645      -0.38909167
H       -2.06856035       1.05348944       0.51893602
H       -1.08306935       0.22115701       1.72804312
H       -2.09081343      -0.71087925       0.62847040
H       -0.32180161       2.01591511      -0.76112263
H        0.09732971      -1.89727522      -0.26303579
H        1.50248724       0.83519091      -0.51624619
12
Frame=7 idx=002519 GeodesicLength=0.6510760310100042 rxn_smarts="[C:1](/[C:2](=[N:3]\[H:10])[N:4]([C:5](=[O:6])[H:12])[H:11])([H:7])([H:8])[H:9]>>[C-:5]#[O+:6].[C:1]([C+:2]([N:3]([H:10])[H:12])[N-:4][H:11])([H:7])([H:8])[H:9]"
C       -1.44718049       0.17769784       0.71114742
C       -0.35064051       0.07469545      -0.30606823
N        0.19697041       1.15923000      -0.81180104
N        0.47601321      -0.97221494      -0.31736004
C        2.14165436      -0.56192687      -0.22116521
O        2.93758594      -1.41136353      -0.37086558
H       -2.08469171       1.03710244       0.50769391
H       -1.05304812       0.27709928       1.72421918
H       -2.06153758      -0.72250142       0.68913896
H       -0.33988938       2.00995886      -0.77629160
H        0.07598699      -1.89644245      -0.36179098
H        1.50877689       0.82866535      -0.46685678
12
Frame=8 idx=002519 GeodesicLength=0.7445329336193139 rxn_smarts="[C:1](/[C:2](=[N:3]\[H:10])[N:4]([C:5](=[O:6])[H:12])[H:11])([H:7])([H:8])[H:9]>>[C-:5]#[O+:6].[C:1]([C+:2]([N:3]([H:10])[H:12])[N-:4][H:11])([H:7])([H:8])[H:9]"
C       -1.43849427       0.18299232       0.71853162
C       -0.36617124       0.07023625      -0.32442471
N        0.18580515       1.15764206      -0.82183399
N        0.46346498      -0.97569992      -0.33557438
C        2.14808808      -0.57460044      -0.18248644
O        2.94932002      -1.41313998      -0.35264366
H       -2.10124712       1.01869059       0.49744786
H       -1.02563357       0.33242745       1.71795912
H       -2.02912975      -0.73257957       0.74816312
H       -0.35758488       2.00452955      -0.78963167
H        0.05771510      -1.89056136      -0.45656815
H        1.51386750       0.82006305      -0.41893874
12
Frame=9 idx=002519 GeodesicLength=0.8380940497773532 rxn_smarts="[C:1](/[C:2](=[N:3]\[H:10])[N:4]([C:5](=[O:6])[H:12])[H:11])([H:7])([H:8])[H:9]>>[C-:5]#[O+:6].[C:1]([C+:2]([N:3]([H:10])[H:12])[N-:4][H:11])([H:7])([H:8])[H:9]"
C       -1.43001940       0.18814691       0.72554948
C       -0.38137230       0.06633593      -0.34146045
N        0.17422521       1.15629721      -0.83190759
N        0.45060465      -0.97916359      -0.35375782
C        2.15358187      -0.58922966      -0.14581292
O        2.96072114      -1.41592616      -0.33501297
H       -2.11843977       0.99832790       0.48802571
H       -1.00124563       0.38756412       1.70948881
H       -1.99380459      -0.74111985       0.80555064
H       -0.37489245       1.99973350      -0.80116373
H        0.04256193      -1.88052931      -0.54738319
H        1.51807936       0.80956301      -0.37211598
12
Frame=10 idx=002519 GeodesicLength=0.931789242394031 rxn_smarts="[C:1](/[C:2](=[N:3]\[H:10])[N:4]([C:5](=[O:6])[H:12])[H:11])([H:7])([H:8])[H:9]>>[C-:5]#[O+:6].[C:1]([C+:2]([N:3]([H:10])[H:12])[N-:4][H:11])([H:7])([H:8])[H:9]"
C       -1.42145923       0.19322308       0.73233326
C       -0.39645821       0.06285616      -0.35764644
N        0.16210266       1.15510346      -0.84233098
N        0.43735762      -0.98257566      -0.37223414
C        2.15798260      -0.60566174      -0.10980784
O        2.97179372      -1.41927614      -0.31735788
H       -2.13558440       0.97642845       0.48028429
H       -0.97898224       0.44188482       1.69889105
H       -1.95565494      -0.74780870       0.86149660
H       -0.39242914       1.99519632      -0.81208401
H        0.02993787      -1.86657140      -0.63552714
H        1.52139368       0.79720135      -0.32601677
12
Frame=11 idx=002519 GeodesicLength=1.0257824464775218 rxn_smarts="[C:1](/[C:2](=[N:3]\[H:10])[N:4]([C:5](=[O:6])[H:12])[H:11])([H:7])([H:8])[H:9]>>[C-:5]#[O+:6].[C:1]([C+:2]([N:3]([H:10])[H:12])[N-:4][H:11])([H:7])([H:8])[H:9]"
C       -1.41284709       0.19827980       0.73893037
C       -0.41144801       0.05975810      -0.37307260
N        0.14939929       1.15410544      -0.85315059
N        0.42386004      -0.98592376      -0.39103400
C        2.16156300      -0.62388559      -0.07470550
O        2.98276771      -1.42325915      -0.29983969
H       -2.15270789       0.95305763       0.47417673
H       -0.95899897       0.49553172       1.68639763
H       -1.91491153      -0.75254350       0.91592459
H       -0.41035022       1.99094382      -0.82249831
H        0.01971130      -1.84913218      -0.72087347
H        1.52396239       0.78306766      -0.28025517
12
Frame=12 idx=002519 GeodesicLength=1.1197738254200786 rxn_smarts="[C:1](/[C:2](=[N:3]\[H:10])[N:4]([C:5](=[O:6])[H:12])[H:11])([H:7])([H:8])[H:9]>>[C-:5]#[O+:6].[C:1]([C+:2]([N:3]([H:10])[H:12])[N-:4][H:11])([H:7])([H:8])[H:9]"
C       -1.40410777       0.20342998       0.74538002
C       -0.42636470       0.05705447      -0.38764937
N        0.13607980       1.15325272      -0.86427383
N        0.40996435      -0.98914625      -0.40972547
C        2.16421211      -0.64410604      -0.04042718
O        2.99334717      -1.42798559      -0.28278321
H       -2.16999041       0.92763655       0.46915561
H       -0.94165231       0.54936062       1.67198466
H       -1.87088151      -0.75528853       0.96939884
H       -0.42858275       1.98690905      -0.83236413
H        0.01222995      -1.82805116      -0.80425378
H        1.52574606       0.76693418      -0.23444214
12
Frame=13 idx=002519 GeodesicLength=1.2140263509048257 rxn_smarts="[C:1](/[C:2](=[N:3]\[H:10])[N:4]([C:5](=[O:6])[H:12])[H:11])([H:7])([H:8])[H:9]>>[C-:5]#[O+:6].[C:1]([C+:2]([N:3]([H:10])[H:12])[N-:4][H:11])([H:7])([H:8])[H:9]"
C       -1.39511704       0.20859678       0.75163991
C       -0.44132087       0.05469670      -0.40184910
N        0.12198557       1.15269314      -0.87603200
N        0.39584597      -0.99214928      -0.42913225
C        2.16607622      -0.66605405      -0.00687523
O        3.00384209      -1.43328733      -0.26541281
H       -2.18686873       0.90083693       0.46613058
H       -0.92626448       0.60228965       1.65577518
H       -1.82421725      -0.75586670       1.02125076
H       -0.44753853       1.98315395      -0.84206845
H        0.00680689      -1.80395991      -0.88490158
H        1.52677015       0.74905013      -0.18852503
12
Frame=14 idx=002519 GeodesicLength=1.3084263330146257 rxn_smarts="[C:1](/[C:2](=[N:3]\[H:10])[N:4]([C:5](=[O:6])[H:12])[H:11])([H:7])([H:8])[H:9]>>[C-:5]#[O+:6].[C:1]([C+:2]([N:3]([H:10])[H:12])[N-:4][H:11])([H:7])([H:8])[H:9]"
C       -1.38586955       0.21383791       0.75768035
C       -0.45632873       0.05265682      -0.41567505
N        0.10704104       1.15239339      -0.88846552
N        0.38153887      -0.99487581      -0.44901054
C        2.16723210      -0.68977475       0.02591006
O        3.01428565      -1.43908054      -0.24807079
H       -2.20320311       0.87271940       0.46500318
H       -0.91299599       0.65439482       1.63787370
H       -1.77497397      -0.75415854       1.07135126
H       -0.46724298       1.97964513      -0.85164543
H        0.00351760      -1.77707254      -0.96275453
H        1.52699907       0.72931473      -0.14219671
12
Frame=15 idx=002519 GeodesicLength=1.4029965354694207 rxn_smarts="[C:1](/[C:2](=[N:3]\[H:10])[N:4]([C:5](=[O:6])[H:12])[H:11])([H:7])([H:8])[H:9]>>[C-:5]#[O+:6].[C:1]([C+:2]([N:3]([H:10])[H:12])[N-:4][H:11])([H:7])([H:8])[H:9]"
C       -1.37625131       0.21916828       0.76351141
C       -0.47141029       0.05095731      -0.42923787
N        0.09115146       1.15243983      -0.90163824
N        0.36708679      -0.99722494      -0.46952495
C        2.16767975      -0.71530425       0.05800746
O        3.02466665      -1.44540152      -0.23051834
H       -2.21887189       0.84323047       0.46585107
H       -0.90173111       0.70573211       1.61832479
H       -1.72298466      -0.75011313       1.11971304
H       -0.48791257       1.97638155      -0.86126269
H        0.00218275      -1.74751723      -1.03800173
H        1.52639442       0.70765152      -0.09522395
12
Frame=16 idx=002519 GeodesicLength=1.497711206930486 rxn_smarts="[C:1](/[C:2](=[N:3]\[H:10])[N:4]([C:5](=[O:6])[H:12])[H:11])([H:7])([H:8])[H:9]>>[C-:5]#[O+:6].[C:1]([C+:2]([N:3]([H:10])[H:12])[N-:4][H:11])([H:7])([H:8])[H:9]"
C       -1.36627096       0.22463394       0.76907094
C       -0.48655235       0.04959027      -0.44257370
N        0.07424428       1.15284975      -0.91561444
N        0.35257230      -0.99913006      -0.49055939
C        2.16754629      -0.74266869       0.08935438
O        3.03510900      -1.45212277      -0.21300679
H       -2.23372803       0.81249572       0.46865057
H       -0.89252964       0.75621013       1.59720618
H       -1.66839405      -0.74360903       1.16609635
H       -0.50960129       1.97337744      -0.87093653
H        0.00268364      -1.71557557      -1.11037227
H        1.52492081       0.68394888      -0.04731530
