16
Frame=0 idx=008604 GeodesicLength=0.0 rxn_smarts="[C:1]1([H:8])([H:9])[C@@:2]2([H:10])[C@@:3]3([H:11])[C:4]([H:12])([H:13])[C@:5]([H:14])([C:6]3([H:15])[H:16])[N:7]12>>[C:1]([C@@:2]1([H:10])[C@:3]2([H:11])[C:4]([H:12])([H:13])[C@:6]2([H:16])[C:5]([H:14])=[N:7]1)([H:8])([H:9])[H:15]"
C        1.47575711       1.11377908       0.34627505
C        1.08127366      -0.32847475       0.29310468
C       -0.34826507      -0.42266539       0.84598519
C       -1.11041450      -1.25483855      -0.19076798
C       -0.52674249      -0.10290271      -1.21882956
C       -0.89385075       0.72204912       0.01661346
N        0.82769460      -0.30879558      -1.15798788
H        2.36721569       1.35777917      -0.21653760
H        1.40010431       1.65263692       1.29156453
H        1.78109778      -1.09157655       0.63172930
H       -0.51775831      -0.51562617       1.91404526
H       -0.74523273      -2.23239250      -0.49317107
H       -2.18493294      -1.27659041      -0.02358778
H       -0.96670065       0.07645874      -2.19442511
H        0.26844674       1.53204740      -0.04165982
H       -1.90769248       1.07911215       0.19764934
16
Frame=1 idx=008604 GeodesicLength=0.08043963191221708 rxn_smarts="[C:1]1([H:8])([H:9])[C@@:2]2([H:10])[C@@:3]3([H:11])[C:4]([H:12])([H:13])[C@:5]([H:14])([C:6]3([H:15])[H:16])[N:7]12>>[C:1]([C@@:2]1([H:10])[C@:3]2([H:11])[C:4]([H:12])([H:13])[C@:6]2([H:16])[C:5]([H:14])=[N:7]1)([H:8])([H:9])[H:15]"
C        1.48093375       1.11142928       0.33566634
C        1.07995350      -0.32936857       0.29660635
C       -0.34912311      -0.42376964       0.84798042
C       -1.11580119      -1.25303159      -0.18564772
C       -0.52183630      -0.09727004      -1.22431066
C       -0.90754474       0.71161455       0.01450486
N        0.83371290      -0.29456601      -1.15488707
H        2.38196299       1.34693065      -0.21599832
H        1.41259321       1.65038603       1.28111198
H        1.77866987      -1.09573783       0.62883908
H       -0.51819560      -0.51087720       1.91647676
H       -0.74401801      -2.22769046      -0.48979520
H       -2.18888606      -1.28618508      -0.01237219
H       -0.95598997       0.08429921      -2.20225893
H        0.25643559       1.54805490      -0.02412623
H       -1.92286684       1.06578180       0.18821053
16
Frame=2 idx=008604 GeodesicLength=0.1608786170197105 rxn_smarts="[C:1]1([H:8])([H:9])[C@@:2]2([H:10])[C@@:3]3([H:11])[C:4]([H:12])([H:13])[C@:5]([H:14])([C:6]3([H:15])[H:16])[N:7]12>>[C:1]([C@@:2]1([H:10])[C@:3]2([H:11])[C:4]([H:12])([H:13])[C@:6]2([H:16])[C:5]([H:14])=[N:7]1)([H:8])([H:9])[H:15]"
C        1.48601820       1.10916213       0.32499050
C        1.07866896      -0.33015919       0.29989645
C       -0.34997970      -0.42475523       0.84983825
C       -1.12124860      -1.25135084      -0.18043184
C       -0.51695770      -0.09155477      -1.22979645
C       -0.92110711       0.70109570       0.01209349
N        0.83958370      -0.28045454      -1.15183222
H        2.39667967       1.33590469      -0.21504936
H        1.42487865       1.64816575       1.27056375
H        1.77620753      -1.09979999       0.62572430
H       -0.51861681      -0.50582965       1.91875687
H       -0.74287700      -2.22301654      -0.48646418
H       -2.19268854      -1.29601349      -0.00070951
H       -0.94531608       0.09232392      -2.21002970
H        0.24457427       1.56382230      -0.00601428
H       -1.93781944       1.05245975       0.17846393
16
Frame=3 idx=008604 GeodesicLength=0.24131680514744075 rxn_smarts="[C:1]1([H:8])([H:9])[C@@:2]2([H:10])[C@@:3]3([H:11])[C:4]([H:12])([H:13])[C@:5]([H:14])([C:6]3([H:15])[H:16])[N:7]12>>[C:1]([C@@:2]1([H:10])[C@:3]2([H:11])[C:4]([H:12])([H:13])[C@:6]2([H:16])[C:5]([H:14])=[N:7]1)([H:8])([H:9])[H:15]"
C        1.49103136       1.10696397       0.31427437
C        1.07742042      -0.33085354       0.30297991
C       -0.35083440      -0.42562486       0.85155972
C       -1.12675653      -1.24979964      -0.17511525
C       -0.51210349      -0.08575594      -1.23528822
C       -0.93452896       0.69049151       0.00938424
N        0.84531302      -0.26647288      -1.14882636
H        2.41131539       1.32472274      -0.21372490
H        1.43693558       1.64598984       1.25992979
H        1.77370544      -1.10377458       0.62239102
H       -0.51902475      -0.50048596       1.92088325
H       -0.74181378      -2.21837212      -0.48317921
H       -2.19633183      -1.30605713       0.01139786
H       -0.93467548       0.10054082      -2.21773745
H        0.23288842       1.57933913       0.01265359
H       -1.95254040       1.03914866       0.16841764
16
Frame=4 idx=008604 GeodesicLength=0.32175736038284836 rxn_smarts="[C:1]1([H:8])([H:9])[C@@:2]2([H:10])[C@@:3]3([H:11])[C:4]([H:12])([H:13])[C@:5]([H:14])([C:6]3([H:15])[H:16])[N:7]12>>[C:1]([C@@:2]1([H:10])[C@:3]2([H:11])[C:4]([H:12])([H:13])[C@:6]2([H:16])[C:5]([H:14])=[N:7]1)([H:8])([H:9])[H:15]"
C        1.49599467       1.10482061       0.30354365
C        1.07620791      -0.33146004       0.30586243
C       -0.35168795      -0.42638170       0.85314728
C       -1.13232467      -1.24838256      -0.16969207
C       -0.50726979      -0.07987223      -1.24078761
C       -0.94780356       0.67980102       0.00638243
N        0.85090835      -0.25263111      -1.14587270
H        2.42582542       1.31340811      -0.21206238
H        1.44874095       1.64387180       1.24922111
H        1.77115819      -1.10767561       0.61884561
H       -0.51942412      -0.49484933       1.92285578
H       -0.74083180      -2.21376064      -0.47994136
H       -2.19980876      -1.31629822       0.02394648
H       -0.92406332       0.10895833      -2.22538329
H        0.22140135       1.59460063       0.03185389
H       -1.96702287       1.02585095       0.15808074
16
Frame=5 idx=008604 GeodesicLength=0.40218932314391653 rxn_smarts="[C:1]1([H:8])([H:9])[C@@:2]2([H:10])[C@@:3]3([H:11])[C:4]([H:12])([H:13])[C@:5]([H:14])([C:6]3([H:15])[H:16])[N:7]12>>[C:1]([C@@:2]1([H:10])[C@:3]2([H:11])[C:4]([H:12])([H:13])[C@:6]2([H:16])[C:5]([H:14])=[N:7]1)([H:8])([H:9])[H:15]"
C        1.50092810       1.10271543       0.29282474
C        1.07502951      -0.33198433       0.30855176
C       -0.35254008      -0.42702662       0.85460053
C       -1.13795138      -1.24710062      -0.16415803
C       -0.50245476      -0.07390283      -1.24629240
C       -0.96092494       0.66901839       0.00309179
N        0.85637360      -0.23893595      -1.14296780
H        2.44016864       1.30197954      -0.21010003
H        1.46027723       1.64182070       1.23844678
H        1.76855809      -1.11150981       0.61509610
H       -0.51981640      -0.48892014       1.92466753
H       -0.73993400      -2.20917724      -0.47675162
H       -2.20310953      -1.32671703       0.03692765
H       -0.91347843       0.11758151      -2.23296182
H        0.21013388       1.60959844       0.05156619
H       -1.98125952       1.01256058       0.14745861
16
Frame=6 idx=008604 GeodesicLength=0.4826304859625604 rxn_smarts="[C:1]1([H:8])([H:9])[C@@:2]2([H:10])[C@@:3]3([H:11])[C:4]([H:12])([H:13])[C@:5]([H:14])([C:6]3([H:15])[H:16])[N:7]12>>[C:1]([C@@:2]1([H:10])[C@:3]2([H:11])[C:4]([H:12])([H:13])[C@:6]2([H:16])[C:5]([H:14])=[N:7]1)([H:8])([H:9])[H:15]"
C        1.50585280       1.10063601       0.28213401
C        1.07388304      -0.33243540       0.31105290
C       -0.35339423      -0.42756123       0.85592474
C       -1.14363570      -1.24596082      -0.15850525
C       -0.49765569      -0.06784467      -1.25180628
C       -0.97389404       0.65814290      -0.00048256
N        0.86171618      -0.22539122      -1.14011785
H        2.45432123       1.29045103      -0.20787042
H        1.47153161       1.63984874       1.22761579
H        1.76589535      -1.11529762       0.61114324
H       -0.52020821      -0.48269200       1.92632409
H       -0.73911976      -2.20462969      -0.47360766
H       -2.20622688      -1.33730617       0.05034553
H       -0.90290725       0.12643051      -2.24047988
H        0.19909902       1.62434081       0.07177638
H       -1.99525747       0.99926883       0.13655322
16
Frame=7 idx=008604 GeodesicLength=0.5630694658970966 rxn_smarts="[C:1]1([H:8])([H:9])[C@@:2]2([H:10])[C@@:3]3([H:11])[C:4]([H:12])([H:13])[C@:5]([H:14])([C:6]3([H:15])[H:16])[N:7]12>>[C:1]([C@@:2]1([H:10])[C@:3]2([H:11])[C:4]([H:12])([H:13])[C@:6]2([H:16])[C:5]([H:14])=[N:7]1)([H:8])([H:9])[H:15]"
C        1.51078913       1.09856345       0.27149692
C        1.07276769      -0.33282157       0.31337414
C       -0.35425128      -0.42798833       0.85712034
C       -1.14937605      -1.24496622      -0.15272789
C       -0.49286862      -0.06169724      -1.25732628
C       -0.98670644       0.64716743      -0.00433677
N        0.86694351      -0.21200320      -1.13731823
H        2.46825130       1.27885174      -0.20541513
H        1.48248564       1.63796318       1.21673889
H        1.76316719      -1.11904461       0.60699962
H       -0.52060541      -0.47617464       1.92781882
H       -0.73839346      -2.20011593      -0.47051211
H       -2.20915653      -1.34804006       0.06418221
H       -0.89235421       0.13550063      -2.24792935
H        0.18831558       1.63882852       0.09245596
H       -2.00900805       0.98597686       0.12537886
16
Frame=8 idx=008604 GeodesicLength=0.6435068569525162 rxn_smarts="[C:1]1([H:8])([H:9])[C@@:2]2([H:10])[C@@:3]3([H:11])[C:4]([H:12])([H:13])[C@:5]([H:14])([C:6]3([H:15])[H:16])[N:7]12>>[C:1]([C@@:2]1([H:10])[C@:3]2([H:11])[C:4]([H:12])([H:13])[C@:6]2([H:16])[C:5]([H:14])=[N:7]1)([H:8])([H:9])[H:15]"
C        1.51575629       1.09648423       0.26093137
C        1.07168038      -0.33315111       0.31552323
C       -0.35511425      -0.42830931       0.85819143
C       -1.15517015      -1.24412309      -0.14681930
C       -0.48809086      -0.05545767      -1.26285377
C       -0.99936308       0.63608725      -0.00846721
N        0.87206177      -0.19877430      -1.13456977
H        2.48194201       1.26719763      -0.20277159
H        1.49312942       1.63617435       1.20582529
H        1.76036588      -1.12276356       0.60267280
H       -0.52101461      -0.46936860       1.92915350
H       -0.73775551      -2.19564041      -0.46746544
H       -2.21189271      -1.35890483       0.07842874
H       -0.88181537       0.14479933      -2.25531193
H        0.17779426       1.65307167       0.11358936
H       -2.02251347       0.97267841       0.11394326
16
Frame=9 idx=008604 GeodesicLength=0.7239419527147478 rxn_smarts="[C:1]1([H:8])([H:9])[C@@:2]2([H:10])[C@@:3]3([H:11])[C:4]([H:12])([H:13])[C@:5]([H:14])([C:6]3([H:15])[H:16])[N:7]12>>[C:1]([C@@:2]1([H:10])[C@:3]2([H:11])[C:4]([H:12])([H:13])[C@:6]2([H:16])[C:5]([H:14])=[N:7]1)([H:8])([H:9])[H:15]"
C        1.52077248       1.09438390       0.25045148
C        1.07061776      -0.33343030       0.31750681
C       -0.35598604      -0.42852414       0.85914013
C       -1.16101513      -1.24343646      -0.14077222
C       -0.48332104      -0.04912320      -1.26838793
C       -1.01186693       0.62489472      -0.01287143
N        0.87707597      -0.18570442      -1.13187108
H        2.49538561       1.25550002      -0.19996890
H        1.50345551       1.63448933       1.19488037
H        1.75748410      -1.12646299       0.59816872
H       -0.52144160      -0.46227231       1.93032573
H       -0.73720559      -2.19120397      -0.46446695
H       -2.21443011      -1.36988627       0.09307519
H       -0.87128897       0.15433294      -2.26262506
H        0.16754245       1.66708132       0.13516267
H       -2.03577847       0.95936182       0.10225247
16
Frame=10 idx=008604 GeodesicLength=0.8043747787792976 rxn_smarts="[C:1]1([H:8])([H:9])[C@@:2]2([H:10])[C@@:3]3([H:11])[C:4]([H:12])([H:13])[C@:5]([H:14])([C:6]3([H:15])[H:16])[N:7]12>>[C:1]([C@@:2]1([H:10])[C@:3]2([H:11])[C:4]([H:12])([H:13])[C@:6]2([H:16])[C:5]([H:14])=[N:7]1)([H:8])([H:9])[H:15]"
C        1.52585492       1.09224947       0.24006791
C        1.06957601      -0.33366474       0.31933128
C       -0.35687010      -0.42863220       0.85996884
C       -1.16690765      -1.24291213      -0.13457919
C       -0.47855819      -0.04269033      -1.27392852
C       -1.02422265       0.61358154      -0.01754784
N        0.88199071      -0.17279234      -1.12922130
H        2.50858128       1.24376617      -0.19703333
H        1.51345973       1.63291520       1.18390754
H        1.75451434      -1.13015072       0.59349329
H       -0.52189275      -0.45488315       1.93133383
H       -0.73674255      -2.18680848      -0.46151579
H       -2.21676390      -1.38097192       0.10811157
H       -0.86077357       0.16410824      -2.26986714
H        0.15756439       1.68087154       0.15716710
H       -2.04881000       0.94601383       0.09031174
16
Frame=11 idx=008604 GeodesicLength=0.8848054331626324 rxn_smarts="[C:1]1([H:8])([H:9])[C@@:2]2([H:10])[C@@:3]3([H:11])[C:4]([H:12])([H:13])[C@:5]([H:14])([C:6]3([H:15])[H:16])[N:7]12>>[C:1]([C@@:2]1([H:10])[C@:3]2([H:11])[C:4]([H:12])([H:13])[C@:6]2([H:16])[C:5]([H:14])=[N:7]1)([H:8])([H:9])[H:15]"
C        1.53101981       1.09006898       0.22978806
C        1.06855097      -0.33385909       0.32100256
C       -0.35777019      -0.42863208       0.86067971
C       -1.17284389      -1.24255623      -0.12823246
C       -0.47380186      -0.03615497      -1.27947537
C       -1.03643622       0.60213835      -0.02249581
N        0.88680993      -0.16003581      -1.12661969
H        2.52153422       1.23199928      -0.19398701
H        1.52314040       1.63145869       1.17290771
H        1.75144906      -1.13383319       0.58865190
H       -0.52237462      -0.44719714       1.93217575
H       -0.73636468      -2.18245587      -0.45861057
H       -2.21888967      -1.39215047       0.12352789
H       -0.85026830       0.17413235      -2.27703658
H        0.14786178       1.69445826       0.17959861
H       -2.06161675       0.93261892       0.07812531
16
Frame=12 idx=008604 GeodesicLength=0.9652349672815286 rxn_smarts="[C:1]1([H:8])([H:9])[C@@:2]2([H:10])[C@@:3]3([H:11])[C:4]([H:12])([H:13])[C@:5]([H:14])([C:6]3([H:15])[H:16])[N:7]12>>[C:1]([C@@:2]1([H:10])[C@:3]2([H:11])[C:4]([H:12])([H:13])[C@:6]2([H:16])[C:5]([H:14])=[N:7]1)([H:8])([H:9])[H:15]"
C        1.53628288       1.08783184       0.21961612
C        1.06753843      -0.33401692       0.32252600
C       -0.35869056      -0.42852153       0.86127477
C       -1.17881998      -1.24237544      -0.12172409
C       -0.46905203      -0.02951264      -1.28502874
C       -1.04851480       0.59055472      -0.02771569
N        0.89153731      -0.14743199      -1.12406606
H        2.53425532       1.22019906      -0.19084829
H        1.53249864       1.63012679       1.16187940
H        1.74828096      -1.13751542       0.58364948
H       -0.52289446      -0.43920876       1.93284937
H       -0.73607013      -2.17814869      -0.45574974
H       -2.22080419      -1.40341225       0.13931433
H       -0.83977269       0.18441281      -2.28413221
H        0.13843448       1.70785902       0.20245872
H       -2.07420917       0.91915939       0.06569663
16
Frame=13 idx=008604 GeodesicLength=1.0456602401638375 rxn_smarts="[C:1]1([H:8])([H:9])[C@@:2]2([H:10])[C@@:3]3([H:11])[C:4]([H:12])([H:13])[C@:5]([H:14])([C:6]3([H:15])[H:16])[N:7]12>>[C:1]([C@@:2]1([H:10])[C@:3]2([H:11])[C:4]([H:12])([H:13])[C@:6]2([H:16])[C:5]([H:14])=[N:7]1)([H:8])([H:9])[H:15]"
C        1.54165669       1.08552687       0.20955383
C        1.06653312      -0.33414115       0.32390699
C       -0.35963475      -0.42829766       0.86175477
C       -1.18482970      -1.24237503      -0.11504615
C       -0.46430885      -0.02275721      -1.29058808
C       -1.06046528       0.57881912      -0.03320994
N        0.89617485      -0.13497724      -1.12155885
H        2.54675440       1.20835936      -0.18763313
H        1.54153556       1.62892394       1.15081763
H        1.74500171      -1.14120110       0.57849197
H       -0.52345803      -0.43091172       1.93335003
H       -0.73585487      -2.17388709      -0.45293028
H       -2.22250077      -1.41474593       0.15546266
H       -0.82928670       0.19495874      -2.29115141
H        0.12927938       1.72109016       0.22575375
H       -2.08659675       0.90561593       0.05302621
16
Frame=14 idx=008604 GeodesicLength=1.1260776052655148 rxn_smarts="[C:1]1([H:8])([H:9])[C@@:2]2([H:10])[C@@:3]3([H:11])[C:4]([H:12])([H:13])[C@:5]([H:14])([C:6]3([H:15])[H:16])[N:7]12>>[C:1]([C@@:2]1([H:10])[C@:3]2([H:11])[C:4]([H:12])([H:13])[C@:6]2([H:16])[C:5]([H:14])=[N:7]1)([H:8])([H:9])[H:15]"
C        1.54715678       1.08314451       0.19960401
C        1.06553302      -0.33423491       0.32515172
C       -0.36060679      -0.42795973       0.86212221
C       -1.19087005      -1.24256343      -0.10818965
C       -0.45957114      -0.01588551      -1.29615301
C       -1.07229307       0.56691803      -0.03897863
N        0.90072810      -0.12267226      -1.11909728
H        2.55904297       1.19649205      -0.18436462
H        1.55025439       1.62785556       1.13972121
H        1.74160886      -1.14489120       0.57318870
H       -0.52407558      -0.42230700       1.93367584
H       -0.73572046      -2.16967641      -0.45015095
H       -2.22398670      -1.42613415       0.17194669
H       -0.81881263       0.20576510      -2.29809307
H        0.12039722       1.73417236       0.24948741
H       -2.09878492       0.89197700       0.04012943
16
Frame=15 idx=008604 GeodesicLength=1.2064917622684137 rxn_smarts="[C:1]1([H:8])([H:9])[C@@:2]2([H:10])[C@@:3]3([H:11])[C:4]([H:12])([H:13])[C@:5]([H:14])([C:6]3([H:15])[H:16])[N:7]12>>[C:1]([C@@:2]1([H:10])[C@:3]2([H:11])[C:4]([H:12])([H:13])[C@:6]2([H:16])[C:5]([H:14])=[N:7]1)([H:8])([H:9])[H:15]"
C        1.55279355       1.08067651       0.18975829
C        1.06453058      -0.33429793       0.32626231
C       -0.36161181      -0.42750011       0.86237640
C       -1.19693342      -1.24294543      -0.10114622
C       -0.45484125      -0.00888792      -1.30172456
C       -1.08400878       0.55483895      -0.04502832
N        0.90519613      -0.11050939      -1.11668261
H        2.57114489       1.18456947      -0.18104001
H        1.55866136       1.62692846       1.12857405
H        1.73808970      -1.14858870       0.56773946
H       -0.52475249      -0.41337669       1.93382067
H       -0.73565971      -2.16551567      -0.44740595
H       -2.22524960      -1.43757826       0.18877452
H       -0.80834872       0.21685556      -2.30495519
H        0.11178136       1.74712132       0.27368587
H       -2.11079179       0.87820984       0.02699132
16
Frame=16 idx=008604 GeodesicLength=1.2869052011126059 rxn_smarts="[C:1]1([H:8])([H:9])[C@@:2]2([H:10])[C@@:3]3([H:11])[C:4]([H:12])([H:13])[C@:5]([H:14])([C:6]3([H:15])[H:16])[N:7]12>>[C:1]([C@@:2]1([H:10])[C@:3]2([H:11])[C:4]([H:12])([H:13])[C@:6]2([H:16])[C:5]([H:14])=[N:7]1)([H:8])([H:9])[H:15]"
C        1.55858018       1.07811557       0.18001158
C        1.06352196      -0.33433018       0.32724246
C       -0.36265505      -0.42691362       0.86251753
C       -1.20301512      -1.24352813      -0.09390783
C       -0.45012013      -0.00175774      -1.30730422
C       -1.09562108       0.54256690      -0.05136411
N        0.90958192      -0.09848602      -1.11431611
H        2.58308057       1.17258039      -0.17766712
H        1.56676404       1.62615027       1.11736508
H        1.73443834      -1.15229343       0.56214928
H       -0.52549761      -0.40410989       1.93377981
H       -0.73567072      -2.16140791      -0.44469247
H       -2.22628887      -1.44907051       0.20593950
H       -0.79789571       0.22824018      -2.31173729
H        0.10342826       1.75995444       0.29837408
H       -2.12263096       0.86428968       0.01360984
