12
Frame=0 idx=008187 GeodesicLength=0.0 rxn_smarts="[O:1]([C:2]([C@@:3]([C:4]#[C:5][H:12])([C:6]#[N:7])[H:11])([H:9])[H:10])[H:8]>>[C:3]([C:4]#[C:5][H:12])(=[C:6]=[N:7][H:8])[H:11].[O:1]=[C:2]([H:9])[H:10]"
O       -1.43883939      -1.24864953       1.19902453
C       -1.32335624      -0.67853169       0.08413832
C        0.85890450      -0.25108080      -0.34167185
C        0.82802121       1.05702456      -0.91000279
C        0.74688275       2.14292358      -1.41072647
C        1.01423834      -0.44351007       0.99933512
N        0.76338222      -0.74423193       2.11215807
H       -0.42968730      -0.99854518       1.94029958
H       -1.40084204      -1.27764846      -0.82744019
H       -1.51362078       0.39533761      -0.01582321
H        1.19597523      -1.06346210      -0.97733548
H        0.69894152       3.11037406      -1.85195567
12
Frame=1 idx=008187 GeodesicLength=0.11737616956430025 rxn_smarts="[O:1]([C:2]([C@@:3]([C:4]#[C:5][H:12])([C:6]#[N:7])[H:11])([H:9])[H:10])[H:8]>>[C:3]([C:4]#[C:5][H:12])(=[C:6]=[N:7][H:8])[H:11].[O:1]=[C:2]([H:9])[H:10]"
O       -1.44087671      -1.30810165       1.16982286
C       -1.32768648      -0.67114618       0.08874877
C        0.85415907      -0.22874906      -0.31763064
C        0.82444699       1.07274801      -0.90190039
C        0.74108251       2.13751797      -1.44600778
C        1.01982034      -0.40152571       1.02647459
N        0.77262585      -0.74763111       2.12712671
H       -0.42703754      -1.09727344       1.92439352
H       -1.44210666      -1.20645354      -0.85820614
H       -1.52240921       0.40623294       0.05993505
H        1.22292749      -1.03947534      -0.93847286
H        0.72505434       3.08385713      -1.93428369
12
Frame=2 idx=008187 GeodesicLength=0.23469686558364705 rxn_smarts="[O:1]([C:2]([C@@:3]([C:4]#[C:5][H:12])([C:6]#[N:7])[H:11])([H:9])[H:10])[H:8]>>[C:3]([C:4]#[C:5][H:12])(=[C:6]=[N:7][H:8])[H:11].[O:1]=[C:2]([H:9])[H:10]"
O       -1.44413994      -1.36191357       1.13755432
C       -1.33288454      -0.66190201       0.09310153
C        0.84954740      -0.20560170      -0.29189522
C        0.82177081       1.09085185      -0.88835021
C        0.76557956       2.13675028      -1.47121327
C        1.02386047      -0.36305209       1.05484196
N        0.77990925      -0.75498274       2.14114467
H       -0.42144566      -1.19527721       1.89931625
H       -1.48324201      -1.13183710      -0.88329091
H       -1.53083978       0.41453564       0.13472156
H        1.24856182      -1.01249992      -0.89982231
H        0.72332262       3.04492856      -2.02610838
12
Frame=3 idx=008187 GeodesicLength=0.3505337443307345 rxn_smarts="[O:1]([C:2]([C@@:3]([C:4]#[C:5][H:12])([C:6]#[N:7])[H:11])([H:9])[H:10])[H:8]>>[C:3]([C:4]#[C:5][H:12])(=[C:6]=[N:7][H:8])[H:11].[O:1]=[C:2]([H:9])[H:10]"
O       -1.44403993      -1.41451634       1.10652114
C       -1.33925575      -0.65799691       0.09843263
C        0.84201883      -0.18106851      -0.26841130
C        0.81103063       1.10984229      -0.87785501
C        0.75140428       2.13308834      -1.49938286
C        1.02647325      -0.32168471       1.08084863
N        0.78919607      -0.75663481       2.15267086
H       -0.40975673      -1.28550166       1.86867318
H       -1.52523826      -1.06547568      -0.89985941
H       -1.54386022       0.41267987       0.20622680
H        1.27254558      -0.98218382      -0.86334423
H        0.76948226       3.00945195      -2.10452042
12
Frame=4 idx=008187 GeodesicLength=0.46669217821198294 rxn_smarts="[O:1]([C:2]([C@@:3]([C:4]#[C:5][H:12])([C:6]#[N:7])[H:11])([H:9])[H:10])[H:8]>>[C:3]([C:4]#[C:5][H:12])(=[C:6]=[N:7][H:8])[H:11].[O:1]=[C:2]([H:9])[H:10]"
O       -1.44491600      -1.46214197       1.07205662
C       -1.34587290      -0.65258014       0.10210456
C        0.83520104      -0.15744199      -0.24440926
C        0.80349876       1.12907270      -0.86435801
C        0.77671399       2.13563802      -1.51501266
C        1.02825765      -0.28455142       1.10713892
N        0.79725309      -0.76029357       2.16346603
H       -0.39856374      -1.36900170       1.83218356
H       -1.56840277      -0.99742344      -0.91239942
H       -1.55564374       0.40869664       0.27460240
H        1.29542018      -0.95158919      -0.82744337
H        0.77705444       2.96161607      -2.18792937
12
Frame=5 idx=008187 GeodesicLength=0.5815841596636133 rxn_smarts="[O:1]([C:2]([C@@:3]([C:4]#[C:5][H:12])([C:6]#[N:7])[H:11])([H:9])[H:10])[H:8]>>[C:3]([C:4]#[C:5][H:12])(=[C:6]=[N:7][H:8])[H:11].[O:1]=[C:2]([H:9])[H:10]"
O       -1.44457007      -1.50592230       1.03524514
C       -1.35172986      -0.64677192       0.10472591
C        0.82969092      -0.13511814      -0.22089548
C        0.79789330       1.14682426      -0.85174388
C        0.77683104       2.13115063      -1.53613007
C        1.03021892      -0.24815507       1.13305909
N        0.80625520      -0.76198436       2.17359142
H       -0.38618604      -1.44475202       1.79158432
H       -1.61117814      -0.92938940      -0.92042229
H       -1.56590407       0.40160979       0.34005862
H        1.31887612      -0.92180240      -0.79149619
H        0.79980268       2.91431092      -2.25757661
12
Frame=6 idx=008187 GeodesicLength=0.6963240129296417 rxn_smarts="[O:1]([C:2]([C@@:3]([C:4]#[C:5][H:12])([C:6]#[N:7])[H:11])([H:9])[H:10])[H:8]>>[C:3]([C:4]#[C:5][H:12])(=[C:6]=[N:7][H:8])[H:11].[O:1]=[C:2]([H:9])[H:10]"
O       -1.44526637      -1.54423582       0.99544970
C       -1.35688251      -0.63929760       0.10513360
C        0.82633682      -0.11595110      -0.19764986
C        0.79764484       1.16076180      -0.84076778
C        0.79654201       2.12285625      -1.55664010
C        1.03219095      -0.21422297       1.15898774
N        0.81409028      -0.76155738       2.18425722
H       -0.37571124      -1.51292962       1.74782651
H       -1.65351997      -0.86057817      -0.92523118
H       -1.57354216       0.39336652       0.40069741
H        1.34276099      -0.89608397      -0.75433570
H        0.79535636       2.86787206      -2.31772757
12
Frame=7 idx=008187 GeodesicLength=0.8104340362929081 rxn_smarts="[O:1]([C:2]([C@@:3]([C:4]#[C:5][H:12])([C:6]#[N:7])[H:11])([H:9])[H:10])[H:8]>>[C:3]([C:4]#[C:5][H:12])(=[C:6]=[N:7][H:8])[H:11].[O:1]=[C:2]([H:9])[H:10]"
O       -1.44466324      -1.58088407       0.95354863
C       -1.36196488      -0.63228048       0.10526070
C        0.82279391      -0.09668805      -0.17493895
C        0.79692342       1.17517998      -0.82939742
C        0.79840733       2.11384414      -1.57605893
C        1.03405320      -0.18082979       1.18420133
N        0.82329421      -0.75932461       2.19450064
H       -0.36373683      -1.57717310       1.70044198
H       -1.69710459      -0.79252083      -0.92486769
H       -1.58130842       0.38109984       0.46027730
H        1.36604667      -0.86897557      -0.71820316
H        0.80725922       2.81855253      -2.37476443
12
Frame=8 idx=008187 GeodesicLength=0.9243799463224345 rxn_smarts="[O:1]([C:2]([C@@:3]([C:4]#[C:5][H:12])([C:6]#[N:7])[H:11])([H:9])[H:10])[H:8]>>[C:3]([C:4]#[C:5][H:12])(=[C:6]=[N:7][H:8])[H:11].[O:1]=[C:2]([H:9])[H:10]"
O       -1.44419767      -1.61453842       0.90932803
C       -1.36700167      -0.62493275       0.10433007
C        0.81975816      -0.07870391      -0.15270893
C        0.79775377       1.18786387      -0.81929216
C        0.80946817       2.10313533      -1.59469788
C        1.03554523      -0.14816540       1.20898534
N        0.83212042      -0.75416534       2.20529640
H       -0.35192746      -1.63723079       1.64971300
H       -1.74114173      -0.72509463      -0.92024719
H       -1.58836181       0.36608200       0.51715988
H        1.38882161      -0.84326227      -0.68173015
H        0.80916298       2.76901232      -2.42613641
12
Frame=9 idx=008187 GeodesicLength=1.0380661988899167 rxn_smarts="[O:1]([C:2]([C@@:3]([C:4]#[C:5][H:12])([C:6]#[N:7])[H:11])([H:9])[H:10])[H:8]>>[C:3]([C:4]#[C:5][H:12])(=[C:6]=[N:7][H:8])[H:11].[O:1]=[C:2]([H:9])[H:10]"
O       -1.44225900      -1.64812622       0.86441300
C       -1.37330119      -0.61947132       0.10445521
C        0.81459847      -0.06022106      -0.13185106
C        0.79416864       1.20069826      -0.81095138
C        0.81175942       2.09225498      -1.61373705
C        1.03610403      -0.11432885       1.23209019
N        0.84239529      -0.74504903       2.21564824
H       -0.33731744      -1.69499547       1.59537259
H       -1.78788561      -0.66082601      -0.90888343
H       -1.59703448       0.34551488       0.57434036
H        1.40920389      -0.81589671      -0.64688688
H        0.82956798       2.72044655      -2.47400979
12
Frame=10 idx=008187 GeodesicLength=1.15165634283387 rxn_smarts="[O:1]([C:2]([C@@:3]([C:4]#[C:5][H:12])([C:6]#[N:7])[H:11])([H:9])[H:10])[H:8]>>[C:3]([C:4]#[C:5][H:12])(=[C:6]=[N:7][H:8])[H:11].[O:1]=[C:2]([H:9])[H:10]"
O       -1.44043459      -1.67884464       0.81628909
C       -1.37942109      -0.61304215       0.10352979
C        0.81012255      -0.04238194      -0.11083066
C        0.79269865       1.21262554      -0.80279485
C        0.82068073       2.08040012      -1.63130960
C        1.03614254      -0.08082129       1.25541091
N        0.85212110      -0.73361304       2.22709144
H       -0.32255219      -1.75031140       1.53626337
H       -1.83541371      -0.59650125      -0.89296649
H       -1.60473638       0.32244582       0.62956733
H        1.42946405      -0.78913218      -0.61115762
H        0.84132836       2.66917642      -2.51909271
12
Frame=11 idx=008187 GeodesicLength=1.2649874564121224 rxn_smarts="[O:1]([C:2]([C@@:3]([C:4]#[C:5][H:12])([C:6]#[N:7])[H:11])([H:9])[H:10])[H:8]>>[C:3]([C:4]#[C:5][H:12])(=[C:6]=[N:7][H:8])[H:11].[O:1]=[C:2]([H:9])[H:10]"
O       -1.43854593      -1.70722588       0.76586208
C       -1.38578821      -0.60615599       0.10260850
C        0.80564258      -0.02493756      -0.08998523
C        0.79145015       1.22382727      -0.79520098
C        0.82432519       2.06670597      -1.64920153
C        1.03580727      -0.04719455       1.27844656
N        0.86197049      -0.71935562       2.23946485
H       -0.30673311      -1.80371762       1.47202775
H       -1.88333037      -0.53290934      -0.87162791
H       -1.61176118       0.29621154       0.68391858
H        1.44905256      -0.76235552      -0.57528634
H        0.85791057       2.61710732      -2.56102632
12
Frame=12 idx=008187 GeodesicLength=1.3781193319096456 rxn_smarts="[O:1]([C:2]([C@@:3]([C:4]#[C:5][H:12])([C:6]#[N:7])[H:11])([H:9])[H:10])[H:8]>>[C:3]([C:4]#[C:5][H:12])(=[C:6]=[N:7][H:8])[H:11].[O:1]=[C:2]([H:9])[H:10]"
O       -1.43709460      -1.73226671       0.71228037
C       -1.39186705      -0.59787866       0.10101463
C        0.80207808      -0.00814352      -0.06871063
C        0.79263551       1.23410896      -0.78745343
C        0.82604660       2.05102240      -1.66664335
C        1.03523801      -0.01378593       1.30191700
N        0.87134665      -0.70269776       2.25348190
H       -0.29061387      -1.85524295       1.40170783
H       -1.93102881      -0.46932535      -0.84543604
H       -1.61737563       0.26767825       0.73655255
H        1.46882143      -0.73614317      -0.53831535
H        0.87181366       2.56267444      -2.60039547
12
Frame=13 idx=008187 GeodesicLength=1.4911088972614923 rxn_smarts="[O:1]([C:2]([C@@:3]([C:4]#[C:5][H:12])([C:6]#[N:7])[H:11])([H:9])[H:10])[H:8]>>[C:3]([C:4]#[C:5][H:12])(=[C:6]=[N:7][H:8])[H:11].[O:1]=[C:2]([H:9])[H:10]"
O       -1.43655207      -1.75344040       0.65530578
C       -1.39752798      -0.58792550       0.09835123
C        0.79979118       0.00759092      -0.04679711
C        0.79730343       1.24270993      -0.77987180
C        0.83542545       2.03373896      -1.68256678
C        1.03428720       0.01946299       1.32610291
N        0.87947942      -0.68310181       2.26984859
H       -0.27482130      -1.90468894       1.32477683
H       -1.97784092      -0.40598695      -0.81498082
H       -1.62144960       0.23720167       0.78664225
H        1.48898303      -0.71146749      -0.49941396
H        0.87292216       2.50590661      -2.63739712
12
Frame=14 idx=008187 GeodesicLength=1.6038446512125542 rxn_smarts="[O:1]([C:2]([C@@:3]([C:4]#[C:5][H:12])([C:6]#[N:7])[H:11])([H:9])[H:10])[H:8]>>[C:3]([C:4]#[C:5][H:12])(=[C:6]=[N:7][H:8])[H:11].[O:1]=[C:2]([H:9])[H:10]"
O       -1.43656933      -1.77192413       0.59655598
C       -1.40381285      -0.57740585       0.09667739
C        0.79710814       0.02296099      -0.02498797
C        0.80149334       1.25032698      -0.77308979
C        0.83746640       2.01441852      -1.69909170
C        1.03293282       0.05346409       1.34991857
N        0.88800933      -0.65988118       2.28775792
H       -0.25772440      -1.95261861       1.24014457
H       -2.02439283      -0.34419526      -0.77834707
H       -1.62475471       0.20328524       0.83643688
H        1.50814095      -0.68677395      -0.46026608
H        0.88210314       2.44834316      -2.67170871
12
Frame=15 idx=008187 GeodesicLength=1.7166835905416677 rxn_smarts="[O:1]([C:2]([C@@:3]([C:4]#[C:5][H:12])([C:6]#[N:7])[H:11])([H:9])[H:10])[H:8]>>[C:3]([C:4]#[C:5][H:12])(=[C:6]=[N:7][H:8])[H:11].[O:1]=[C:2]([H:9])[H:10]"
O       -1.43710837      -1.78704097       0.53387072
C       -1.41023335      -0.56545445       0.09496547
C        0.79489626       0.03791672      -0.00230347
C        0.80755711       1.25660250      -0.76654185
C        0.84674027       1.99301941      -1.71489865
C        1.03061968       0.08842678       1.37454765
N        0.89550201      -0.63280372       2.30839421
H       -0.24000163      -1.99864857       1.14578173
H       -2.07103769      -0.28295374      -0.73567000
H       -1.62694563       0.16593551       0.88524044
H        1.52719065      -0.66274429      -0.41883941
H        0.88282071       2.38774483      -2.70454685
12
Frame=16 idx=008187 GeodesicLength=1.8295904952386797 rxn_smarts="[O:1]([C:2]([C@@:3]([C:4]#[C:5][H:12])([C:6]#[N:7])[H:11])([H:9])[H:10])[H:8]>>[C:3]([C:4]#[C:5][H:12])(=[C:6]=[N:7][H:8])[H:11].[O:1]=[C:2]([H:9])[H:10]"
O       -1.43817203      -1.79925138       0.46832056
C       -1.41761735      -0.55279151       0.09489349
C        0.79194898       0.05288090       0.02076140
C        0.81276515       1.26189246      -0.76073222
C        0.85319428       1.96930176      -1.73116670
C        1.02732382       0.12506379       1.39920068
N        0.90318937      -0.60108524       2.33128344
H       -0.22066679      -2.04260585       1.03961744
H       -2.11857185      -0.22348395      -0.68484825
H       -1.62822790       0.12380121       0.93468611
H        1.54510738      -0.63832068      -0.37628730
H        0.88972692       2.32459849      -2.73572865
