8
Frame=0 idx=003777 GeodesicLength=0.0 rxn_smarts="[n:1]1([H:6])[c:2]([H:7])[n:3][c:4]([H:8])[n:5]1>>[N:1]([C:2]([N+:3]#[C:4][H:8])[H:7])([N-:5])[H:6]"
N       -1.01556160       0.97081628      -0.06228480
C       -0.51770640      -0.40406948       0.11435170
N        0.72548512      -0.60853324       0.13421920
C        1.92479788      -0.73527153       0.30297295
N       -1.10987264       1.78034787       0.82569122
H       -1.29403472       1.17644977      -1.04163547
H       -1.23887067      -1.18701466       0.29830496
H        2.52576302      -0.99272501      -0.57161979
8
Frame=1 idx=003777 GeodesicLength=0.0915753216493359 rxn_smarts="[n:1]1([H:6])[c:2]([H:7])[n:3][c:4]([H:8])[n:5]1>>[N:1]([C:2]([N+:3]#[C:4][H:8])[H:7])([N-:5])[H:6]"
N       -0.98781134       0.95509122      -0.06817528
C       -0.54461044      -0.43541161       0.07785135
N        0.69232844      -0.68065021       0.08005018
C        1.88978022      -0.66684179       0.32167861
N       -0.92734410       1.78968734       0.80476989
H       -1.40171450       1.16036880      -0.99751793
H       -1.28583781      -1.19534410       0.27687292
H        2.56520953      -0.92689965      -0.49552975
8
Frame=2 idx=003777 GeodesicLength=0.1854340862879431 rxn_smarts="[n:1]1([H:6])[c:2]([H:7])[n:3][c:4]([H:8])[n:5]1>>[N:1]([C:2]([N+:3]#[C:4][H:8])[H:7])([N-:5])[H:6]"
N       -0.96462512       0.93971362      -0.07646829
C       -0.56244967      -0.45958264       0.04201508
N        0.67048631      -0.73159261       0.03829216
C        1.85342990      -0.60881382       0.33573528
N       -0.76843409       1.78789355       0.76856715
H       -1.50131326       1.15291714      -0.93771253
H       -1.31663360      -1.20320231       0.25313288
H        2.58953954      -0.87733293      -0.42356173
8
Frame=3 idx=003777 GeodesicLength=0.28163296520375913 rxn_smarts="[n:1]1([H:6])[c:2]([H:7])[n:3][c:4]([H:8])[n:5]1>>[N:1]([C:2]([N+:3]#[C:4][H:8])[H:7])([N-:5])[H:6]"
N       -0.94781666       0.92490334      -0.08166226
C       -0.57470499      -0.47809045       0.01183332
N        0.65579991      -0.76851444       0.00244714
C        1.81817494      -0.55447590       0.34444511
N       -0.62339379       1.78623580       0.71486761
H       -1.59685455       1.14638011      -0.85831832
H       -1.33864149      -1.21329907       0.21672599
H        2.60743663      -0.84313939      -0.35033861
8
Frame=4 idx=003777 GeodesicLength=0.3770068447017713 rxn_smarts="[n:1]1([H:6])[c:2]([H:7])[n:3][c:4]([H:8])[n:5]1>>[N:1]([C:2]([N+:3]#[C:4][H:8])[H:7])([N-:5])[H:6]"
N       -0.93675277       0.91024825      -0.08455459
C       -0.58442622      -0.49342360      -0.01570684
N        0.64517211      -0.79511097      -0.03032265
C        1.78450386      -0.50469755       0.34729961
N       -0.49825102       1.78070825       0.65127375
H       -1.67599444       1.14472123      -0.77036707
H       -1.35429939      -1.22458786       0.18083621
H        2.62004786      -0.81785775      -0.27845842
8
Frame=5 idx=003777 GeodesicLength=0.4719385747661672 rxn_smarts="[n:1]1([H:6])[c:2]([H:7])[n:3][c:4]([H:8])[n:5]1>>[N:1]([C:2]([N+:3]#[C:4][H:8])[H:7])([N-:5])[H:6]"
N       -0.92963017       0.89626677      -0.08286655
C       -0.59203892      -0.50588185      -0.03774740
N        0.63746123      -0.81486168      -0.05858730
C        1.75355073      -0.45568687       0.34330500
N       -0.38800522       1.77564880       0.57634000
H       -1.74319229       1.14348134      -0.67204240
H       -1.36661989      -1.23736267       0.13731868
H        2.62847452      -0.80160383      -0.20572004
8
Frame=6 idx=003777 GeodesicLength=0.5661465338497269 rxn_smarts="[n:1]1([H:6])[c:2]([H:7])[n:3][c:4]([H:8])[n:5]1>>[N:1]([C:2]([N+:3]#[C:4][H:8])[H:7])([N-:5])[H:6]"
N       -0.92240029       0.88298568      -0.07972470
C       -0.59841508      -0.51686189      -0.05509513
N        0.63104929      -0.83254364      -0.08005465
C        1.72476525      -0.41019253       0.33553650
N       -0.29046589       1.76972947       0.49071414
H       -1.79831848       1.14232049      -0.56340627
H       -1.37845603      -1.24959901       0.08640578
H        2.63224123      -0.78583857      -0.13437567
8
Frame=7 idx=003777 GeodesicLength=0.6594306619815776 rxn_smarts="[n:1]1([H:6])[c:2]([H:7])[n:3][c:4]([H:8])[n:5]1>>[N:1]([C:2]([N+:3]#[C:4][H:8])[H:7])([N-:5])[H:6]"
N       -0.91287879       0.87034941      -0.07805413
C       -0.60419542      -0.52721864      -0.06505676
N        0.62473680      -0.85136590      -0.08963531
C        1.69785097      -0.36907383       0.32773057
N       -0.20283282       1.76298512       0.39093397
H       -1.84192843       1.14006271      -0.43977301
H       -1.39187428      -1.26011177       0.02127161
H        2.63112196      -0.76562710      -0.06741694
8
Frame=8 idx=003777 GeodesicLength=0.7518229598589837 rxn_smarts="[n:1]1([H:6])[c:2]([H:7])[n:3][c:4]([H:8])[n:5]1>>[N:1]([C:2]([N+:3]#[C:4][H:8])[H:7])([N-:5])[H:6]"
N       -0.90191914       0.85756997      -0.07985795
C       -0.61054714      -0.53808791      -0.07005053
N        0.61743010      -0.87246811      -0.08592878
C        1.67080300      -0.33328879       0.32528128
N       -0.12347701       1.75309924       0.27073298
H       -1.87181149       1.13809400      -0.29346880
H       -1.40571675      -1.26773119      -0.06125364
H        2.62523842      -0.73718721      -0.00545456
8
Frame=9 idx=003777 GeodesicLength=0.8429398730001257 rxn_smarts="[n:1]1([H:6])[c:2]([H:7])[n:3][c:4]([H:8])[n:5]1>>[N:1]([C:2]([N+:3]#[C:4][H:8])[H:7])([N-:5])[H:6]"
N       -0.89233810       0.84357075      -0.08084897
C       -0.61841252      -0.55030339      -0.08151808
N        0.60830543      -0.89527855      -0.07142875
C        1.64055964      -0.30110537       0.33089355
N       -0.05475574       1.73623198       0.12499864
H       -1.87972534       1.13822230      -0.11990920
H       -1.41762465      -1.27159448      -0.15707272
H        2.61399128      -0.69974325       0.05488553
8
Frame=10 idx=003777 GeodesicLength=0.9338844767229576 rxn_smarts="[n:1]1([H:6])[c:2]([H:7])[n:3][c:4]([H:8])[n:5]1>>[N:1]([C:2]([N+:3]#[C:4][H:8])[H:7])([N-:5])[H:6]"
N       -0.88440113       0.82786557      -0.07795568
C       -0.62861565      -0.56438047      -0.09981008
N        0.59548573      -0.91961811      -0.04166946
C        1.60610170      -0.26794621       0.34003952
N       -0.00344138       1.70714856      -0.03750620
H       -1.85428949       1.14194319       0.06974429
H       -1.42727746      -1.27128698      -0.26417468
H        2.59643768      -0.65372555       0.11133230
8
Frame=11 idx=003777 GeodesicLength=1.0269969953691538 rxn_smarts="[n:1]1([H:6])[c:2]([H:7])[n:3][c:4]([H:8])[n:5]1>>[N:1]([C:2]([N+:3]#[C:4][H:8])[H:7])([N-:5])[H:6]"
N       -0.87854675       0.81145204      -0.07697018
C       -0.64220321      -0.57988007      -0.11134740
N        0.57763576      -0.94242161       0.00342779
C        1.56895009      -0.23217127       0.34436701
N        0.02691679       1.66518696      -0.19008192
H       -1.79452652       1.14802771       0.24938946
H       -1.43129169      -1.26631770      -0.37703474
H        2.57306554      -0.60387605       0.15824998
8
Frame=12 idx=003777 GeodesicLength=1.123973783162985 rxn_smarts="[n:1]1([H:6])[c:2]([H:7])[n:3][c:4]([H:8])[n:5]1>>[N:1]([C:2]([N+:3]#[C:4][H:8])[H:7])([N-:5])[H:6]"
N       -0.87654244       0.79492666      -0.07572724
C       -0.65930802      -0.59614034      -0.11530558
N        0.55558491      -0.96096849       0.05499765
C        1.52927486      -0.19680079       0.34402737
N        0.04080696       1.61331931      -0.32403956
H       -1.70868649       1.15571609       0.40796794
H       -1.42614789      -1.25741276      -0.48842786
H        2.54501810      -0.55263968       0.19650728
8
Frame=13 idx=003777 GeodesicLength=1.224891027152685 rxn_smarts="[n:1]1([H:6])[c:2]([H:7])[n:3][c:4]([H:8])[n:5]1>>[N:1]([C:2]([N+:3]#[C:4][H:8])[H:7])([N-:5])[H:6]"
N       -0.87797625       0.77911193      -0.07125516
C       -0.67917738      -0.61214080      -0.11455349
N        0.53064732      -0.97479974       0.10731867
C        1.48799448      -0.16372134       0.33926529
N        0.04291494       1.55565796      -0.43756753
H       -1.60697805       1.16321263       0.54165920
H       -1.41111620      -1.24490908      -0.59305408
H        2.51369115      -0.50241156       0.22818710
8
Frame=14 idx=003777 GeodesicLength=1.32926680152278 rxn_smarts="[n:1]1([H:6])[c:2]([H:7])[n:3][c:4]([H:8])[n:5]1>>[N:1]([C:2]([N+:3]#[C:4][H:8])[H:7])([N-:5])[H:6]"
N       -0.88145396       0.76464223      -0.06283148
C       -0.70072736      -0.62709046      -0.11150850
N        0.50397828      -0.98461464       0.15779635
C        1.44625793      -0.13416676       0.33093394
N        0.03747024       1.49578125      -0.53126932
H       -1.49851260       1.16890591       0.65047687
H       -1.38748312      -1.22907137      -0.68782668
H        2.48047058      -0.45438617       0.25422882
8
Frame=15 idx=003777 GeodesicLength=1.435878602830806 rxn_smarts="[n:1]1([H:6])[c:2]([H:7])[n:3][c:4]([H:8])[n:5]1>>[N:1]([C:2]([N+:3]#[C:4][H:8])[H:7])([N-:5])[H:6]"
N       -0.88532979       0.75195441      -0.05154795
C       -0.72245919      -0.64030116      -0.10844717
N        0.47724278      -0.99145424       0.20297105
C        1.40541452      -0.10869878       0.31975594
N        0.02854818       1.43724177      -0.60608641
H       -1.39105037       1.17128814       0.73587988
H       -1.35931571      -1.21096208      -0.76903655
H        2.44694959      -0.40906806       0.27651121
8
Frame=16 idx=003777 GeodesicLength=1.5437667550285006 rxn_smarts="[n:1]1([H:6])[c:2]([H:7])[n:3][c:4]([H:8])[n:5]1>>[N:1]([C:2]([N+:3]#[C:4][H:8])[H:7])([N-:5])[H:6]"
N       -0.88821983       0.74095301      -0.03815492
C       -0.74332902      -0.65166202      -0.10626052
N        0.45157913      -0.99655553       0.24184053
C        1.36637587      -0.08725468       0.30690677
N        0.01888597       1.38162322      -0.66540219
H       -1.28927920       1.17020432       0.80168480
H       -1.33020235      -1.19133446      -0.83678495
H        2.41418944      -0.36597386       0.29617048
