9
Frame=0 idx=002211 GeodesicLength=0.0 rxn_smarts="[N:1]([c+:2]1[n-:3][c:4]([H:9])[n:5][o:6]1)([H:7])[H:8]>>[N:1]([C:2]([N:3]1[C:4]([H:9])=[N:5]1)=[O:6])([H:7])[H:8]"
N        1.73203680       0.05073210      -0.02149330
C        0.45292932      -0.40225952       0.12681052
N       -0.44669117       0.44781400      -0.48124090
C       -1.78375965       0.37814364      -0.19691521
N       -2.04868171      -0.80620585       0.02981160
O        0.19452335      -1.43784659       0.71773179
H        1.91047712       0.97697189      -0.35777988
H        2.44599710      -0.43448232       0.48738854
H       -2.45683113       1.22713264      -0.30431318
9
Frame=1 idx=002211 GeodesicLength=0.05672816509780067 rxn_smarts="[N:1]([c+:2]1[n-:3][c:4]([H:9])[n:5][o:6]1)([H:7])[H:8]>>[N:1]([C:2]([N:3]1[C:4]([H:9])=[N:5]1)=[O:6])([H:7])[H:8]"
N        1.73301180       0.04656918      -0.02239162
C        0.44746445      -0.37335312       0.15158740
N       -0.44716388       0.45324556      -0.49447325
C       -1.78013530       0.37647984      -0.18808541
N       -2.02293315      -0.82170887      -0.00565769
O        0.17033628      -1.41578091       0.72763881
H        1.92267808       0.96563800      -0.37240065
H        2.44322784      -0.44681162       0.48408799
H       -2.46648615       1.21572194      -0.28030558
9
Frame=2 idx=002211 GeodesicLength=0.1138983491494947 rxn_smarts="[N:1]([c+:2]1[n-:3][c:4]([H:9])[n:5][o:6]1)([H:7])[H:8]>>[N:1]([C:2]([N:3]1[C:4]([H:9])=[N:5]1)=[O:6])([H:7])[H:8]"
N        1.73327788       0.04235737      -0.02304351
C        0.44238628      -0.34608570       0.17210910
N       -0.44742947       0.45896763      -0.50647988
C       -1.77639314       0.37412705      -0.18073519
N       -1.99649256      -0.83516097      -0.03825098
O        0.14694214      -1.39270198       0.73714661
H        1.93405893       0.95429946      -0.38534386
H        2.43928584      -0.45915673       0.48128397
H       -2.47563590       1.20335389      -0.25668625
9
Frame=3 idx=002211 GeodesicLength=0.17092655584696648 rxn_smarts="[N:1]([c+:2]1[n-:3][c:4]([H:9])[n:5][o:6]1)([H:7])[H:8]>>[N:1]([C:2]([N:3]1[C:4]([H:9])=[N:5]1)=[O:6])([H:7])[H:8]"
N        1.73324601       0.03831172      -0.02335639
C        0.43779107      -0.32168818       0.18692597
N       -0.44769636       0.46404244      -0.51929638
C       -1.77251855       0.37140538      -0.17472146
N       -1.97035996      -0.84683321      -0.06769137
O        0.12417322      -1.36953242       0.74619107
H        1.94470156       0.94331829      -0.39714329
H        2.43435334      -0.47009727       0.48102805
H       -2.48369033       1.19107325      -0.23193620
9
Frame=4 idx=002211 GeodesicLength=0.22833379430946577 rxn_smarts="[N:1]([c+:2]1[n-:3][c:4]([H:9])[n:5][o:6]1)([H:7])[H:8]>>[N:1]([C:2]([N:3]1[C:4]([H:9])=[N:5]1)=[O:6])([H:7])[H:8]"
N        1.73288424       0.03429824      -0.02323584
C        0.43343045      -0.29896218       0.19788679
N       -0.44789904       0.46894202      -0.53246521
C       -1.76848094       0.36832228      -0.17006326
N       -1.94430365      -0.85711763      -0.09550030
O        0.10183325      -1.34636092       0.75428661
H        1.95486151       0.93161188      -0.40945796
H        2.42836916      -0.47928417       0.48378048
H       -2.49069498       1.17855049      -0.20523131
9
Frame=5 idx=002211 GeodesicLength=0.28580881727451657 rxn_smarts="[N:1]([c+:2]1[n-:3][c:4]([H:9])[n:5][o:6]1)([H:7])[H:8]>>[N:1]([C:2]([N:3]1[C:4]([H:9])=[N:5]1)=[O:6])([H:7])[H:8]"
N        1.73228731       0.03043070      -0.02293365
C        0.42932155      -0.27749169       0.20660910
N       -0.44815198       0.47385121      -0.54504934
C       -1.76441894       0.36524488      -0.16572490
N       -1.91834928      -0.86594983      -0.12086871
O        0.08018133      -1.32327775       0.76170542
H        1.96450762       0.92028523      -0.42035427
H        2.42203992      -0.48849940       0.48643590
H       -2.49741752       1.16540665      -0.17981955
9
Frame=6 idx=002211 GeodesicLength=0.3433121271187564 rxn_smarts="[N:1]([c+:2]1[n-:3][c:4]([H:9])[n:5][o:6]1)([H:7])[H:8]>>[N:1]([C:2]([N:3]1[C:4]([H:9])=[N:5]1)=[O:6])([H:7])[H:8]"
N        1.73151804       0.02673301      -0.02233464
C        0.42538427      -0.25711127       0.21320063
N       -0.44847801       0.47852370      -0.55776080
C       -1.76033119       0.36215178      -0.16201516
N       -1.89282038      -0.87364158      -0.14422803
O        0.05910920      -1.30067130       0.76815215
H        1.97374369       0.90899732      -0.43075586
H        2.41533667      -0.49700675       0.49016338
H       -2.50346229       1.15202508      -0.15442166
9
Frame=7 idx=002211 GeodesicLength=0.40096606595033824 rxn_smarts="[N:1]([c+:2]1[n-:3][c:4]([H:9])[n:5][o:6]1)([H:7])[H:8]>>[N:1]([C:2]([N:3]1[C:4]([H:9])=[N:5]1)=[O:6])([H:7])[H:8]"
N        1.73057286       0.02307363      -0.02137323
C        0.42155177      -0.23711095       0.21863070
N       -0.44879385       0.48372824      -0.56989443
C       -1.75634440       0.35896339      -0.15908118
N       -1.86728813      -0.88050468      -0.16705900
O        0.03841870      -1.27814543       0.77393195
H        1.98288244       0.89689460      -0.44184520
H        2.40822719      -0.50487349       0.49508032
H       -2.50922660       1.13797469      -0.12838992
9
Frame=8 idx=002211 GeodesicLength=0.4588087350667233 rxn_smarts="[N:1]([c+:2]1[n-:3][c:4]([H:9])[n:5][o:6]1)([H:7])[H:8]>>[N:1]([C:2]([N:3]1[C:4]([H:9])=[N:5]1)=[O:6])([H:7])[H:8]"
N        1.72942692       0.01937363      -0.02020321
C        0.41779108      -0.21730929       0.22344121
N       -0.44908936       0.48960782      -0.58112608
C       -1.75249445       0.35571265      -0.15688885
N       -1.84145010      -0.88651252      -0.18957255
O        0.01808586      -1.25533408       0.77940909
H        1.99192712       0.88405508      -0.45325689
H        2.40077220      -0.51258338       0.50035724
H       -2.51496926       1.12299010      -0.10215996
9
Frame=9 idx=002211 GeodesicLength=0.5167553837464028 rxn_smarts="[N:1]([c+:2]1[n-:3][c:4]([H:9])[n:5][o:6]1)([H:7])[H:8]>>[N:1]([C:2]([N:3]1[C:4]([H:9])=[N:5]1)=[O:6])([H:7])[H:8]"
N        1.72810015       0.01585101      -0.01871992
C        0.41410720      -0.19801620       0.22716685
N       -0.44942806       0.49550233      -0.59232158
C       -1.74866614       0.35253689      -0.15520944
N       -1.81588484      -0.89166800      -0.21086746
O       -0.00180400      -1.23290066       0.78405949
H        2.00067270       0.87092983      -0.46458036
H        2.39303133      -0.51978556       0.50633058
H       -2.52012834       1.10755036      -0.07585817
9
Frame=10 idx=002211 GeodesicLength=0.5748288820486633 rxn_smarts="[N:1]([c+:2]1[n-:3][c:4]([H:9])[n:5][o:6]1)([H:7])[H:8]>>[N:1]([C:2]([N:3]1[C:4]([H:9])=[N:5]1)=[O:6])([H:7])[H:8]"
N        1.72659652       0.01242332      -0.01677683
C        0.41047098      -0.17881712       0.23030546
N       -0.44975539       0.50204232      -0.60298535
C       -1.74498066       0.34939512      -0.15421513
N       -1.79022868      -0.89607100      -0.23205425
O       -0.02138945      -1.21062081       0.78793555
H        2.00932478       0.85660907      -0.47698014
H        2.38495282      -0.52623866       0.51353233
H       -2.52499091       1.09127776      -0.04876165
9
Frame=11 idx=002211 GeodesicLength=0.6332425173499857 rxn_smarts="[N:1]([c+:2]1[n-:3][c:4]([H:9])[n:5][o:6]1)([H:7])[H:8]>>[N:1]([C:2]([N:3]1[C:4]([H:9])=[N:5]1)=[O:6])([H:7])[H:8]"
N        1.72484768       0.00905806      -0.01458159
C        0.40685979      -0.15968548       0.23302892
N       -0.45004178       0.50907766      -0.61311391
C       -1.74136674       0.34631748      -0.15383539
N       -1.76432726      -0.89966318      -0.25285621
O       -0.04068254      -1.18821575       0.79133187
H        2.01774671       0.84145825      -0.48968733
H        2.37649874      -0.53239199       0.52112076
H       -2.52953462       1.07404495      -0.02140713
9
Frame=12 idx=002211 GeodesicLength=0.6916525697739836 rxn_smarts="[N:1]([c+:2]1[n-:3][c:4]([H:9])[n:5][o:6]1)([H:7])[H:8]>>[N:1]([C:2]([N:3]1[C:4]([H:9])=[N:5]1)=[O:6])([H:7])[H:8]"
N        1.72293695       0.00586681      -0.01200405
C        0.40329610      -0.14079516       0.23515954
N       -0.45036266       0.51648267      -0.62301815
C       -1.73786542       0.34340597      -0.15396524
N       -1.73855709      -0.90250062      -0.27318537
O       -0.05964272      -1.16620608       0.79388172
H        2.02593247       0.82538978      -0.50303226
H        2.36780104      -0.53776761       0.52973245
H       -2.53353867       1.05612423       0.00643136
9
Frame=13 idx=002211 GeodesicLength=0.7503633562867862 rxn_smarts="[N:1]([c+:2]1[n-:3][c:4]([H:9])[n:5][o:6]1)([H:7])[H:8]>>[N:1]([C:2]([N:3]1[C:4]([H:9])=[N:5]1)=[O:6])([H:7])[H:8]"
N        1.72080138       0.00295387      -0.00893716
C        0.39971395      -0.12225844       0.23655520
N       -0.45069656       0.52402655      -0.63285728
C       -1.73438661       0.34069030      -0.15451650
N       -1.71298784      -0.90448980      -0.29298340
O       -0.07828092      -1.14473247       0.79524388
H        2.03373832       0.80819700      -0.51708609
H        2.35877146      -0.54196749       0.53964270
H       -2.53667319       1.03758047       0.03493865
9
Frame=14 idx=002211 GeodesicLength=0.8091431341496226 rxn_smarts="[N:1]([c+:2]1[n-:3][c:4]([H:9])[n:5][o:6]1)([H:7])[H:8]>>[N:1]([C:2]([N:3]1[C:4]([H:9])=[N:5]1)=[O:6])([H:7])[H:8]"
N        1.71850169       0.00028827      -0.00562390
C        0.39618165      -0.10429728       0.23719687
N       -0.45111177       0.53143249      -0.64273241
C       -1.73091657       0.33826448      -0.15516965
N       -1.68789587      -0.90568475      -0.31175790
O       -0.09646146      -1.12400612       0.79552399
H        2.04106850       0.79048903      -0.53112084
H        2.34957731      -0.54520998       0.55033102
H       -2.53894348       1.01872387       0.06335281
9
Frame=15 idx=002211 GeodesicLength=0.8679691921920688 rxn_smarts="[N:1]([c+:2]1[n-:3][c:4]([H:9])[n:5][o:6]1)([H:7])[H:8]>>[N:1]([C:2]([N:3]1[C:4]([H:9])=[N:5]1)=[O:6])([H:7])[H:8]"
N        1.71605760      -0.00205519      -0.00197107
C        0.39267677      -0.08698446       0.23704381
N       -0.45162444       0.53867631      -0.65269268
C       -1.72745801       0.33615116      -0.15585636
N       -1.66342227      -0.90611376      -0.32966758
O       -0.11418985      -1.10424221       0.79452901
H        2.04791771       0.77204920      -0.54539856
H        2.34025304      -0.54714856       0.56213516
H       -2.54021055       0.99966751       0.09187828
9
Frame=16 idx=002211 GeodesicLength=0.926900424958886 rxn_smarts="[N:1]([c+:2]1[n-:3][c:4]([H:9])[n:5][o:6]1)([H:7])[H:8]>>[N:1]([C:2]([N:3]1[C:4]([H:9])=[N:5]1)=[O:6])([H:7])[H:8]"
N        1.71347058      -0.00401684       0.00201131
C        0.38918546      -0.07040163       0.23607954
N       -0.45224646       0.54560745      -0.66279125
C       -1.72398605       0.33435184      -0.15646190
N       -1.63967903      -0.90581481      -0.34665267
O       -0.13144065      -1.08552375       0.79223807
H        2.05424749       0.75297364      -0.55973637
H        2.33082397      -0.54774179       0.57492835
H       -2.54037532       0.98056588       0.12038492
