12
Frame=0 idx=002569 GeodesicLength=0.0 rxn_smarts="[N:1]1([H:7])[C@@:2]2([H:8])[C@:3]1([H:9])[C@@:4]1([H:10])[N:5]([H:11])[C@@:6]21[H:12]>>[N:1]1([H:7])[C@@:2]([C@@:6]2([H:12])[C:4][N:5]2[H:11])([H:8])[C:3]1([H:9])[H:10]"
N       -0.92108204      -1.15912551      -0.32053407
C       -0.03657838      -0.24400825      -1.01084662
C       -1.21216715       0.20880806      -0.26777629
C        0.45717418       1.11334676       0.88881598
N        1.15343018      -0.01877975       1.19554371
C        1.10234981       0.34501758      -0.20657340
H       -0.57181353      -1.60827541       0.52758398
H        0.05234274      -0.36999570      -2.08224222
H       -2.14206896       0.65638025      -0.58964121
H       -0.64772295       1.30488063       0.97552562
H        0.73094783      -0.86585298       1.56177610
H        2.03518827       0.63760433      -0.67163158
12
Frame=1 idx=002569 GeodesicLength=0.08257205531653242 rxn_smarts="[N:1]1([H:7])[C@@:2]2([H:8])[C@:3]1([H:9])[C@@:4]1([H:10])[N:5]([H:11])[C@@:6]21[H:12]>>[N:1]1([H:7])[C@@:2]([C@@:6]2([H:12])[C:4][N:5]2[H:11])([H:8])[C:3]1([H:9])[H:10]"
N       -0.92900050      -1.15413414      -0.31638124
C       -0.03654980      -0.24767501      -1.00722847
C       -1.21115072       0.21903281      -0.26899398
C        0.45297308       1.09600990       0.90112130
N        1.16760906      -0.02672330       1.19422036
C        1.10343258       0.34294188      -0.20433131
H       -0.58578610      -1.59661539       0.53706140
H        0.05340321      -0.37773944      -2.07805557
H       -2.13737743       0.66201782      -0.60783227
H       -0.66988819       1.30962967       0.96271976
H        0.76528359      -0.88236047       1.56240757
H        2.02705122       0.65561567      -0.67470757
12
Frame=2 idx=002569 GeodesicLength=0.1652404632244003 rxn_smarts="[N:1]1([H:7])[C@@:2]2([H:8])[C@:3]1([H:9])[C@@:4]1([H:10])[N:5]([H:11])[C@@:6]21[H:12]>>[N:1]1([H:7])[C@@:2]([C@@:6]2([H:12])[C:4][N:5]2[H:11])([H:8])[C:3]1([H:9])[H:10]"
N       -0.93697057      -1.14914201      -0.31211069
C       -0.03660150      -0.25140180      -1.00344874
C       -1.21015460       0.22920126      -0.27023756
C        0.44851630       1.07780011       0.91391661
N        1.18176178      -0.03501143       1.19286588
C        1.10437391       0.34090930      -0.20186935
H       -0.59963811      -1.58482489       0.54654566
H        0.05448145      -0.38561792      -2.07367090
H       -2.13255176       0.66740559      -0.62579879
H       -0.69171922       1.31592590       0.94869410
H        0.80016964      -0.89924879       1.56225503
H        2.01833269       0.67400467      -0.67714126
12
Frame=3 idx=002569 GeodesicLength=0.24791980520765877 rxn_smarts="[N:1]1([H:7])[C@@:2]2([H:8])[C@:3]1([H:9])[C@@:4]1([H:10])[N:5]([H:11])[C@@:6]21[H:12]>>[N:1]1([H:7])[C@@:2]([C@@:6]2([H:12])[C:4][N:5]2[H:11])([H:8])[C:3]1([H:9])[H:10]"
N       -0.94499519      -1.14416247      -0.30773676
C       -0.03674393      -0.25518155      -0.99950215
C       -1.20918367       0.23929619      -0.27147158
C        0.44376068       1.05869333       0.92717652
N        1.19586200      -0.04361145       1.19149973
C        1.10516271       0.33891736      -0.19916630
H       -0.61334985      -1.57297140       0.55598609
H        0.05556048      -0.39358874      -2.06908651
H       -2.12761154       0.67251831      -0.64349867
H       -0.71306718       1.32379555       0.93334402
H        0.83559984      -0.91645575       1.56132433
H        2.00900566       0.69275063      -0.67886872
12
Frame=4 idx=002569 GeodesicLength=0.3305909821101149 rxn_smarts="[N:1]1([H:7])[C@@:2]2([H:8])[C@:3]1([H:9])[C@@:4]1([H:10])[N:5]([H:11])[C@@:6]21[H:12]>>[N:1]1([H:7])[C@@:2]([C@@:6]2([H:12])[C:4][N:5]2[H:11])([H:8])[C:3]1([H:9])[H:10]"
N       -0.95307713      -1.13920674      -0.30328098
C       -0.03698623      -0.25900612      -0.99539049
C       -1.20824087       0.24930388      -0.27266778
C        0.43867770       1.03868737       0.94085149
N        1.20987582      -0.05246927       1.19014032
C        1.10579241       0.33696012      -0.19621032
H       -0.62690628      -1.56111976       0.56533036
H        0.05662326      -0.40160899      -2.06430833
H       -2.12257269       0.67734143      -0.66089467
H       -0.73380022       1.33320128       0.91662890
H        0.87156228      -0.93388569       1.55963529
H        1.99905195       0.71180249      -0.67983379
12
Frame=5 idx=002569 GeodesicLength=0.41308998160987287 rxn_smarts="[N:1]1([H:7])[C@@:2]2([H:8])[C@:3]1([H:9])[C@@:4]1([H:10])[N:5]([H:11])[C@@:6]21[H:12]>>[N:1]1([H:7])[C@@:2]([C@@:6]2([H:12])[C:4][N:5]2[H:11])([H:8])[C:3]1([H:9])[H:10]"
N       -0.96122069      -1.13428236      -0.29877052
C       -0.03733795      -0.26286720      -0.99112427
C       -1.20732968       0.25921544      -0.27380357
C        0.43323340       1.01780475       0.95486126
N        1.22375746      -0.06150389       1.18881107
C        1.10625864       0.33502658      -0.19300081
H       -0.64028918      -1.54933065       0.57452083
H        0.05765161      -0.40963942      -2.05935232
H       -2.11745285       0.68187485      -0.67794300
H       -0.75375956       1.34402140       0.89855767
H        0.90801949      -0.95141550       1.55723128
H        1.98846931       0.73109599      -0.67998763
12
Frame=6 idx=002569 GeodesicLength=0.4956007146511333 rxn_smarts="[N:1]1([H:7])[C@@:2]2([H:8])[C@:3]1([H:9])[C@@:4]1([H:10])[N:5]([H:11])[C@@:6]21[H:12]>>[N:1]1([H:7])[C@@:2]([C@@:6]2([H:12])[C:4][N:5]2[H:11])([H:8])[C:3]1([H:9])[H:10]"
N       -0.96942738      -1.12939399      -0.29423938
C       -0.03780444      -0.26674883      -0.98672049
C       -1.20644221       0.26902803      -0.27486054
C        0.42746075       0.99612002       0.96910838
N        1.23746687      -0.07064167       1.18752598
C        1.10656976       0.33309162      -0.18954368
H       -0.65349294      -1.53766665       0.58350150
H        0.05862393      -0.41762535      -2.05424108
H       -2.11225552       0.68612883      -0.69460773
H       -0.77293243       1.35605908       0.87924235
H        0.94490721      -0.96886465       1.55418014
H        1.97732642       0.75051357      -0.67934546
12
Frame=7 idx=002569 GeodesicLength=0.5779494232473174 rxn_smarts="[N:1]1([H:7])[C@@:2]2([H:8])[C@:3]1([H:9])[C@@:4]1([H:10])[N:5]([H:11])[C@@:6]21[H:12]>>[N:1]1([H:7])[C@@:2]([C@@:6]2([H:12])[C:4][N:5]2[H:11])([H:8])[C:3]1([H:9])[H:10]"
N       -0.97769903      -1.12453632      -0.28972751
C       -0.03838714      -0.27064593      -0.98220479
C       -1.20557127       0.27874615      -0.27583767
C        0.42136204       0.97369707       0.98346625
N        1.25096125      -0.07977543       1.18630165
C        1.10673760       0.33114066      -0.18586940
H       -0.66651592      -1.52616073       0.59221927
H        0.05952814      -0.42554335      -2.04900646
H       -2.10698113       0.69013110      -0.71087332
H       -0.79124324       1.36909098       0.85885249
H        0.98218446      -0.98608107       1.55056718
H        1.96562424       0.76993688      -0.67788769
12
Frame=8 idx=002569 GeodesicLength=0.660362890779866 rxn_smarts="[N:1]1([H:7])[C@@:2]2([H:8])[C@:3]1([H:9])[C@@:4]1([H:10])[N:5]([H:11])[C@@:6]21[H:12]>>[N:1]1([H:7])[C@@:2]([C@@:6]2([H:12])[C:4][N:5]2[H:11])([H:8])[C:3]1([H:9])[H:10]"
N       -0.98603750      -1.11971110      -0.28526824
C       -0.03908860      -0.27453787      -0.97759801
C       -1.20470114       0.28837386      -0.27671709
C        0.41501144       0.95063327       0.99784319
N        1.26421070      -0.08885201       1.18514503
C        1.10678044       0.32914271      -0.18199272
H       -0.67936472      -1.51486928       0.60063350
H        0.06034014      -0.43333498      -2.04367637
H       -2.10162394       0.69390375      -0.72670754
H       -0.80878530       1.38290154       0.83753147
H        1.01978108      -1.00288321       1.54647298
H        1.95347740       0.78923333      -0.67566619
12
Frame=9 idx=002569 GeodesicLength=0.742555441387598 rxn_smarts="[N:1]1([H:7])[C@@:2]2([H:8])[C@:3]1([H:9])[C@@:4]1([H:10])[N:5]([H:11])[C@@:6]21[H:12]>>[N:1]1([H:7])[C@@:2]([C@@:6]2([H:12])[C:4][N:5]2[H:11])([H:8])[C:3]1([H:9])[H:10]"
N       -0.99443046      -1.11490416      -0.28089168
C       -0.03990484      -0.27840651      -0.97292407
C       -1.20382351       0.29792396      -0.27749697
C        0.40841844       0.92705205       1.01211779
N        1.27717620      -0.09776706       1.18407796
C        1.10671276       0.32708327      -0.17794608
H       -0.69202132      -1.50380016       0.60870147
H        0.06105189      -0.44097143      -2.03827908
H       -2.09620188       0.69747489      -0.74208975
H       -0.82558005       1.39722896       0.81549035
H        1.05760788      -1.01916901       1.54199116
H        1.94099490       0.80825519      -0.67275110
12
Frame=10 idx=002569 GeodesicLength=0.8247551479900501 rxn_smarts="[N:1]1([H:7])[C@@:2]2([H:8])[C@:3]1([H:9])[C@@:4]1([H:10])[N:5]([H:11])[C@@:6]21[H:12]>>[N:1]1([H:7])[C@@:2]([C@@:6]2([H:12])[C:4][N:5]2[H:11])([H:8])[C:3]1([H:9])[H:10]"
N       -1.00288965      -1.11011885      -0.27663636
C       -0.04083492      -0.28225198      -0.96820298
C       -1.20291549       0.30739913      -0.27816467
C        0.40168395       0.90296788       1.02623382
N        1.28985808      -0.10651803       1.18309111
C        1.10656058       0.32493499      -0.17375630
H       -0.70453587      -1.49300466       0.61639434
H        0.06164499      -0.44841918      -2.03284416
H       -2.09068124       0.70087345      -0.75701455
H       -0.84173741       1.41199776       0.79281923
H        1.09568500      -1.03478988       1.53721460
H        1.92816198       0.82692938      -0.66913409
12
Frame=11 idx=002569 GeodesicLength=0.9069678505293026 rxn_smarts="[N:1]1([H:7])[C@@:2]2([H:8])[C@:3]1([H:9])[C@@:4]1([H:10])[N:5]([H:11])[C@@:6]21[H:12]>>[N:1]1([H:7])[C@@:2]([C@@:6]2([H:12])[C:4][N:5]2[H:11])([H:8])[C:3]1([H:9])[H:10]"
N       -1.01141536      -1.10535373      -0.27252795
C       -0.04187884      -0.28606393      -0.96344886
C       -1.20196387       0.31680423      -0.27870146
C        0.39486363       0.87842348       1.04014626
N        1.30224756      -0.11508669       1.18218943
C        1.10633790       0.32267689      -0.16944195
H       -0.71692910      -1.48251470       0.62368651
H        0.06210425      -0.45564263      -2.02739304
H       -2.08506258       0.70411633      -0.77146004
H       -0.85735510       1.42712282       0.76958805
H        1.13399640      -1.04966271       1.53222281
H        1.91505512       0.84518062      -0.66485976
12
Frame=12 idx=002569 GeodesicLength=0.9891982454864879 rxn_smarts="[N:1]1([H:7])[C@@:2]2([H:8])[C@:3]1([H:9])[C@@:4]1([H:10])[N:5]([H:11])[C@@:6]21[H:12]>>[N:1]1([H:7])[C@@:2]([C@@:6]2([H:12])[C:4][N:5]2[H:11])([H:8])[C:3]1([H:9])[H:10]"
N       -1.02000772      -1.10060629      -0.26858468
C       -0.04303409      -0.28983550      -0.95866870
C       -1.20095486       0.32614399      -0.27908666
C        0.38800703       0.85343654       1.05382992
N        1.31435212      -0.12347485       1.18137260
C        1.10605934       0.32029794      -0.16501831
H       -0.72922705      -1.47235335       0.63056649
H        0.06242010      -0.46261585      -2.02193943
H       -2.07933993       0.70721564      -0.78541360
H       -0.87252746       1.44257643       0.74582147
H        1.17254832      -1.06374137       1.52707257
H        1.90170420       0.86295666      -0.65995166
12
Frame=13 idx=002569 GeodesicLength=1.07142074918166 rxn_smarts="[N:1]1([H:7])[C@@:2]2([H:8])[C@:3]1([H:9])[C@@:4]1([H:10])[N:5]([H:11])[C@@:6]21[H:12]>>[N:1]1([H:7])[C@@:2]([C@@:6]2([H:12])[C:4][N:5]2[H:11])([H:8])[C:3]1([H:9])[H:10]"
N       -1.02866785      -1.09587788      -0.26482050
C       -0.04430069      -0.29355856      -0.95386462
C       -1.19988029       0.33542019      -0.27929395
C        0.38114948       0.82801012       1.06727848
N        1.32618122      -0.13169623       1.18064251
C        1.10573335       0.31778741      -0.16049065
H       -0.74145155      -1.46254842       0.63702662
H        0.06258269      -0.46931087      -2.01649203
H       -2.07351629       0.71017886      -0.79885368
H       -0.88733426       1.45836284       0.72149780
H        1.21134825      -1.07699541       1.52180944
H        1.88815594       0.88022795      -0.65443941
12
Frame=14 idx=002569 GeodesicLength=1.1536973505991237 rxn_smarts="[N:1]1([H:7])[C@@:2]2([H:8])[C@:3]1([H:9])[C@@:4]1([H:10])[N:5]([H:11])[C@@:6]21[H:12]>>[N:1]1([H:7])[C@@:2]([C@@:6]2([H:12])[C:4][N:5]2[H:11])([H:8])[C:3]1([H:9])[H:10]"
N       -1.03740064      -1.09117133      -0.26124237
C       -0.04568216      -0.29722426      -0.94903175
C       -1.19873360       0.34463330      -0.27928665
C        0.37433203       0.80212333       1.08051069
N        1.33775021      -0.13979007       1.17999779
C        1.10536189       0.31513901      -0.15585353
H       -0.75363357      -1.45313216       0.64306642
H        0.06258002      -0.47569448      -2.01105293
H       -2.06759428       0.71300222      -0.81175989
H       -0.90186084       1.47453827       0.69652817
H        1.25043359      -1.08940781       1.51645796
H        1.87444734       0.89698397      -0.64833392
12
Frame=15 idx=002569 GeodesicLength=1.2359810069639785 rxn_smarts="[N:1]1([H:7])[C@@:2]2([H:8])[C@:3]1([H:9])[C@@:4]1([H:10])[N:5]([H:11])[C@@:6]21[H:12]>>[N:1]1([H:7])[C@@:2]([C@@:6]2([H:12])[C:4][N:5]2[H:11])([H:8])[C:3]1([H:9])[H:10]"
N       -1.04621040      -1.08648377      -0.25785398
C       -0.04717996      -0.30082817      -0.94416466
C       -1.19751027       0.35378822      -0.27903456
C        0.36757403       0.77574239       1.09353483
N        1.34907014      -0.14777907       1.17944531
C        1.10494863       0.31235106      -0.15110689
H       -0.76579920      -1.44412113       0.64868824
H        0.06240549      -0.48175096      -2.00562254
H       -2.06157692       0.71568898      -0.82411608
H       -0.91615826       1.49115018       0.67083145
H        1.28985048      -1.10097620       1.51102898
H        1.86058625       0.91321847      -0.64163009
12
Frame=16 idx=002569 GeodesicLength=1.3182847372288446 rxn_smarts="[N:1]1([H:7])[C@@:2]2([H:8])[C@:3]1([H:9])[C@@:4]1([H:10])[N:5]([H:11])[C@@:6]21[H:12]>>[N:1]1([H:7])[C@@:2]([C@@:6]2([H:12])[C:4][N:5]2[H:11])([H:8])[C:3]1([H:9])[H:10]"
N       -1.05510154      -1.08181838      -0.25465521
C       -0.04879946      -0.30435919      -0.93925307
C       -1.19620823       0.36288544      -0.27849324
C        0.36090220       0.74882891       1.10637883
N        1.36016114      -0.15571350       1.17898360
C        1.10449094       0.30942000      -0.14623577
H       -0.77796997      -1.43554770       0.65389614
H        0.06204773      -0.48744587      -2.00019730
H       -2.05547521       0.71823063      -0.83589240
H       -0.93027912       1.50827226       0.64426432
H        1.32963162      -1.11169452       1.50553079
H        1.84659990       0.92894192      -0.63432669
