12
Frame=0 idx=003455 GeodesicLength=0.0 rxn_smarts="[N:1]([C:2](=[O:3])[N:4]1[C:5]([H:9])([H:10])[C:6]1([H:11])[H:12])([H:7])[H:8]>>[N:1]([C:2]1=[N:4][C:5]([H:9])([H:10])[C:6]([H:11])([H:12])[O:3]1)([H:7])[H:8]"
N        2.12474000       0.06559281      -0.63957703
C        0.90933580       0.12729324      -0.03339849
O        0.83373348       0.29893709       1.20222859
N       -0.15209595       0.00734082      -0.85096817
C       -1.30858387      -0.63805783      -0.22090827
C       -1.35232032       0.38500248       0.78607090
H        2.16268841       0.02437129      -1.63958949
H        2.91857826       0.40985534      -0.13456622
H       -2.13107336      -0.62489972      -0.93389647
H       -1.13470907      -1.64835505       0.15460066
H       -1.62702113       1.38091451       0.46571416
H       -1.24327228       0.21200497       1.84428983
12
Frame=1 idx=003455 GeodesicLength=0.03538445935762389 rxn_smarts="[N:1]([C:2](=[O:3])[N:4]1[C:5]([H:9])([H:10])[C:6]1([H:11])[H:12])([H:7])[H:8]>>[N:1]([C:2]1=[N:4][C:5]([H:9])([H:10])[C:6]([H:11])([H:12])[O:3]1)([H:7])[H:8]"
N        2.12718167       0.08201525      -0.64391724
C        0.91283736       0.10421114      -0.03400452
O        0.83395821       0.27283533       1.20331012
N       -0.15219606      -0.00495053      -0.84677714
C       -1.31110603      -0.64298382      -0.21853358
C       -1.33534173       0.39546868       0.77854813
H        2.16440052       0.04338555      -1.64401582
H        2.91846910       0.41864283      -0.12997032
H       -2.13500959      -0.62588632      -0.92975106
H       -1.14755376      -1.65085367       0.16672229
H       -1.62276713       1.38829145       0.45918890
H       -1.25287254       0.21982413       1.83920023
12
Frame=2 idx=003455 GeodesicLength=0.07087584567674837 rxn_smarts="[N:1]([C:2](=[O:3])[N:4]1[C:5]([H:9])([H:10])[C:6]1([H:11])[H:12])([H:7])[H:8]>>[N:1]([C:2]1=[N:4][C:5]([H:9])([H:10])[C:6]([H:11])([H:12])[O:3]1)([H:7])[H:8]"
N        2.12889547       0.09985282      -0.64785251
C        0.91651579       0.08017769      -0.03490539
O        0.83420606       0.24597830       1.20407706
N       -0.15217587      -0.01784842      -0.84271558
C       -1.31372806      -0.64784396      -0.21608671
C       -1.31778401       0.40562245       0.77088111
H        2.16596293       0.06175731      -1.64791543
H        2.91775848       0.42844954      -0.12516929
H       -2.13905323      -0.62646529      -0.92546964
H       -1.16095818      -1.65313276       0.17893468
H       -1.61762424       1.39538543       0.45277720
H       -1.26201514       0.22806689       1.83344451
12
Frame=3 idx=003455 GeodesicLength=0.10651489457142578 rxn_smarts="[N:1]([C:2](=[O:3])[N:4]1[C:5]([H:9])([H:10])[C:6]1([H:11])[H:12])([H:7])[H:8]>>[N:1]([C:2]1=[N:4][C:5]([H:9])([H:10])[C:6]([H:11])([H:12])[O:3]1)([H:7])[H:8]"
N        2.12968863       0.11935833      -0.65139118
C        0.92035524       0.05533319      -0.03621043
O        0.83446494       0.21836590       1.20446006
N       -0.15208096      -0.03148348      -0.83883369
C       -1.31643184      -0.65273263      -0.21349979
C       -1.29965005       0.41548510       0.76300284
H        2.16733497       0.08030404      -1.65134862
H        2.91656138       0.43827609      -0.11992313
H       -2.14321206      -0.62685940      -0.92096884
H       -1.17480728      -1.65521458       0.19142596
H       -1.61160198       1.40219799       0.44628951
H       -1.27062099       0.23696944       1.82699731
12
Frame=4 idx=003455 GeodesicLength=0.14238449960850097 rxn_smarts="[N:1]([C:2](=[O:3])[N:4]1[C:5]([H:9])([H:10])[C:6]1([H:11])[H:12])([H:7])[H:8]>>[N:1]([C:2]1=[N:4][C:5]([H:9])([H:10])[C:6]([H:11])([H:12])[O:3]1)([H:7])[H:8]"
N        2.12933884       0.14097832      -0.65445310
C        0.92435945       0.02978349      -0.03796808
O        0.83474449       0.18972785       1.20447668
N       -0.15192820      -0.04579163      -0.83516291
C       -1.31922279      -0.65759802      -0.21083165
C       -1.28087753       0.42501268       0.75494299
H        2.16866246       0.09802059      -1.65416341
H        2.91469602       0.44871924      -0.11433045
H       -2.14750592      -0.62692714      -0.91629589
H       -1.18911019      -1.65708099       0.20405470
H       -1.60458207       1.40876031       0.43984456
H       -1.27857456       0.24639530       1.81988657
12
Frame=5 idx=003455 GeodesicLength=0.17835431070194643 rxn_smarts="[N:1]([C:2](=[O:3])[N:4]1[C:5]([H:9])([H:10])[C:6]1([H:11])[H:12])([H:7])[H:8]>>[N:1]([C:2]1=[N:4][C:5]([H:9])([H:10])[C:6]([H:11])([H:12])[O:3]1)([H:7])[H:8]"
N        2.12752564       0.16518362      -0.65722285
C        0.92820275       0.00629708      -0.04045455
O        0.83484685       0.16227296       1.20389477
N       -0.15207443      -0.05893208      -0.83180553
C       -1.32161631      -0.66228133      -0.20825390
C       -1.26206785       0.43390023       0.74706310
H        2.17021020       0.11287771      -1.65633001
H        2.91304981       0.45643119      -0.10831451
H       -2.15160729      -0.62713157      -0.91143872
H       -1.20207792      -1.65861834       0.21611215
H       -1.59839834       1.41452590       0.43437099
H       -1.28599311       0.25547462       1.81237906
12
Frame=6 idx=003455 GeodesicLength=0.21447967451728375 rxn_smarts="[N:1]([C:2](=[O:3])[N:4]1[C:5]([H:9])([H:10])[C:6]1([H:11])[H:12])([H:7])[H:8]>>[N:1]([C:2]1=[N:4][C:5]([H:9])([H:10])[C:6]([H:11])([H:12])[O:3]1)([H:7])[H:8]"
N        2.12393864       0.19350371      -0.65974152
C        0.93186013      -0.01491571      -0.04370175
O        0.83477026       0.13602360       1.20270968
N       -0.15257489      -0.07081339      -0.82878406
C       -1.32362243      -0.66680663      -0.20577667
C       -1.24336739       0.44216556       0.73940750
H        2.17243713       0.12411085      -1.65768266
H        2.91188763       0.46056499      -0.10211602
H       -2.15556382      -0.62753473      -0.90638280
H       -1.21362402      -1.65990119       0.22756181
H       -1.59322563       1.41948602       0.42995403
H       -1.29291560       0.26411693       1.80455247
12
Frame=7 idx=003455 GeodesicLength=0.2507968186993823 rxn_smarts="[N:1]([C:2](=[O:3])[N:4]1[C:5]([H:9])([H:10])[C:6]1([H:11])[H:12])([H:7])[H:8]>>[N:1]([C:2]1=[N:4][C:5]([H:9])([H:10])[C:6]([H:11])([H:12])[O:3]1)([H:7])[H:8]"
N        2.11832534       0.22658458      -0.66210098
C        0.93534241      -0.03360890      -0.04772858
O        0.83448811       0.11141373       1.20085732
N       -0.15342314      -0.08165015      -0.82609681
C       -1.32520078      -0.67137041      -0.20323648
C       -1.22493771       0.44992788       0.73182276
H        2.17538763       0.13375529      -1.65777778
H        2.91174001       0.45839454      -0.09611196
H       -2.15933653      -0.62864613      -0.90097497
H       -1.22360141      -1.66101242       0.23886329
H       -1.58927129       1.42358916       0.42616025
H       -1.29951265       0.27262282       1.79632396
12
Frame=8 idx=003455 GeodesicLength=0.2874646074212346 rxn_smarts="[N:1]([C:2](=[O:3])[N:4]1[C:5]([H:9])([H:10])[C:6]1([H:11])[H:12])([H:7])[H:8]>>[N:1]([C:2]1=[N:4][C:5]([H:9])([H:10])[C:6]([H:11])([H:12])[O:3]1)([H:7])[H:8]"
N        2.11198430       0.25801652      -0.66317723
C        0.93897499      -0.05239909      -0.05210845
O        0.83416929       0.08633472       1.19868760
N       -0.15414343      -0.09314063      -0.82358430
C       -1.32674940      -0.67598320      -0.20055769
C       -1.20611274       0.45751719       0.72394062
H        2.17835120       0.14570408      -1.65643338
H        2.91040286       0.45632678      -0.09143776
H       -2.16309136      -0.62976568      -0.89537478
H       -1.23371723      -1.66192538       0.25052924
H       -1.58454427       1.42748231       0.42210774
H       -1.30552421       0.28183238       1.78740838
12
Frame=9 idx=003455 GeodesicLength=0.3245441799147206 rxn_smarts="[N:1]([C:2](=[O:3])[N:4]1[C:5]([H:9])([H:10])[C:6]1([H:11])[H:12])([H:7])[H:8]>>[N:1]([C:2]1=[N:4][C:5]([H:9])([H:10])[C:6]([H:11])([H:12])[O:3]1)([H:7])[H:8]"
N        2.10540988       0.28569495      -0.66290214
C        0.94280565      -0.07206734      -0.05668500
O        0.83380313       0.06034725       1.19628836
N       -0.15462564      -0.10583255      -0.82117534
C       -1.32838257      -0.68068709      -0.19765445
C       -1.18671392       0.46499392       0.71559072
H        2.18050562       0.16169708      -1.65431328
H        2.90787041       0.45586147      -0.08746550
H       -2.16685576      -0.63078927      -0.88957908
H       -1.24443868      -1.66259683       0.26287363
H       -1.57847948       1.43131944       0.41735739
H       -1.31089865       0.29205896       1.77766469
12
Frame=10 idx=003455 GeodesicLength=0.36204203032851934 rxn_smarts="[N:1]([C:2](=[O:3])[N:4]1[C:5]([H:9])([H:10])[C:6]1([H:11])[H:12])([H:7])[H:8]>>[N:1]([C:2]1=[N:4][C:5]([H:9])([H:10])[C:6]([H:11])([H:12])[O:3]1)([H:7])[H:8]"
N        2.09870417       0.30976407      -0.66130485
C        0.94687723      -0.09308510      -0.06145000
O        0.83339634       0.03300430       1.19369270
N       -0.15485046      -0.12010005      -0.81888503
C       -1.33022290      -0.68552438      -0.19449859
C       -1.16659504       0.47234317       0.70668929
H        2.18150735       0.18191172      -1.65183563
H        2.90418395       0.45767254      -0.08359989
H       -2.17075083      -0.63164561      -0.88358083
H       -1.25611256      -1.66300200       0.27602947
H       -1.57065596       1.43519333       0.41169190
H       -1.31548129       0.30346801       1.76705146
12
Frame=11 idx=003455 GeodesicLength=0.400078060970481 rxn_smarts="[N:1]([C:2](=[O:3])[N:4]1[C:5]([H:9])([H:10])[C:6]1([H:11])[H:12])([H:7])[H:8]>>[N:1]([C:2]1=[N:4][C:5]([H:9])([H:10])[C:6]([H:11])([H:12])[O:3]1)([H:7])[H:8]"
N        2.09154093       0.33157894      -0.65855058
C        0.95113359      -0.11513744      -0.06648160
O        0.83290710       0.00442627       1.19082659
N       -0.15489672      -0.13574797      -0.81673546
C       -1.33220945      -0.69047561      -0.19112106
C       -1.14576471       0.47946375       0.69726299
H        2.18133885       0.20529294      -1.64892353
H        2.89952690       0.46112754      -0.07957681
H       -2.17473962      -0.63234587      -0.87736007
H       -1.26852810      -1.66311070       0.28987158
H       -1.56115149       1.43903801       0.40520747
H       -1.31915728       0.31589015       1.75558049
12
Frame=12 idx=003455 GeodesicLength=0.43860184628607024 rxn_smarts="[N:1]([C:2](=[O:3])[N:4]1[C:5]([H:9])([H:10])[C:6]1([H:11])[H:12])([H:7])[H:8]>>[N:1]([C:2]1=[N:4][C:5]([H:9])([H:10])[C:6]([H:11])([H:12])[O:3]1)([H:7])[H:8]"
N        2.08386162       0.35177179      -0.65488318
C        0.95547650      -0.13748348      -0.07183422
O        0.83229640      -0.02470721       1.18763740
N       -0.15488625      -0.15210575      -0.81474522
C       -1.33421972      -0.69544055      -0.18762980
C       -1.12444581       0.48623011       0.68749045
H        2.18021174       0.23028465      -1.64548637
H        2.89410640       0.46566453      -0.07535795
H       -2.17875008      -0.63289239      -0.87096822
H       -1.28118562      -1.66289022       0.30403588
H       -1.55050363       1.44269994       0.39832983
H       -1.32196156       0.32886858       1.74341140
12
Frame=13 idx=003455 GeodesicLength=0.4775575469486582 rxn_smarts="[N:1]([C:2](=[O:3])[N:4]1[C:5]([H:9])([H:10])[C:6]1([H:11])[H:12])([H:7])[H:8]>>[N:1]([C:2]1=[N:4][C:5]([H:9])([H:10])[C:6]([H:11])([H:12])[O:3]1)([H:7])[H:8]"
N        2.07570858       0.37071578      -0.65043763
C        0.95982929      -0.15954020      -0.07749344
O        0.83152773      -0.05374922       1.18412339
N       -0.15489975      -0.16866048      -0.81290127
C       -1.33614841      -0.70037625      -0.18409089
C       -1.10286982       0.49258188       0.67749350
H        2.17821236       0.25610857      -1.64150237
H        2.88819339       0.47047242      -0.07101813
H       -2.18270393      -0.63337528      -0.86445303
H       -1.29366901      -1.66235135       0.31830014
H       -1.53918699       1.44607548       0.39131308
H       -1.32399345       0.34209865       1.73066664
12
Frame=14 idx=003455 GeodesicLength=0.5168788832088046 rxn_smarts="[N:1]([C:2](=[O:3])[N:4]1[C:5]([H:9])([H:10])[C:6]1([H:11])[H:12])([H:7])[H:8]>>[N:1]([C:2]1=[N:4][C:5]([H:9])([H:10])[C:6]([H:11])([H:12])[O:3]1)([H:7])[H:8]"
N        2.06717334       0.38856052      -0.64533924
C        0.96414385      -0.18096860      -0.08342689
O        0.83058042      -0.08227667       1.18030508
N       -0.15497965      -0.18507514      -0.81118246
C       -1.33793914      -0.70525131      -0.18054722
C       -1.08121634       0.49849365       0.66736581
H        2.17543521       0.28227252      -1.63698856
H        2.88198065       0.47512288      -0.06663025
H       -2.18655579      -0.63384261      -0.85785148
H       -1.30573796      -1.66150514       0.33252053
H       -1.52751594       1.44910814       0.38432589
H       -1.32536866       0.35536178       1.71744880
12
Frame=15 idx=003455 GeodesicLength=0.5564729166401617 rxn_smarts="[N:1]([C:2](=[O:3])[N:4]1[C:5]([H:9])([H:10])[C:6]1([H:11])[H:12])([H:7])[H:8]>>[N:1]([C:2]1=[N:4][C:5]([H:9])([H:10])[C:6]([H:11])([H:12])[O:3]1)([H:7])[H:8]"
N        2.05837529       0.40526098      -0.63981659
C        0.96834098      -0.20144250      -0.08962820
O        0.82945435      -0.10990311       1.17617524
N       -0.15519258      -0.20090349      -0.80957458
C       -1.33954367      -0.70997988      -0.17708105
C       -1.05967178       0.50394102       0.65727603
H        2.17222152       0.30769883      -1.63199773
H        2.87546385       0.47985207      -0.06220073
H       -2.19027495      -0.63422480      -0.85121000
H       -1.31715881      -1.66037301       0.34641463
H       -1.51582120       1.45176375       0.37772156
H       -1.32619301       0.36831014       1.70392142
12
Frame=16 idx=003455 GeodesicLength=0.5962392553839624 rxn_smarts="[N:1]([C:2](=[O:3])[N:4]1[C:5]([H:9])([H:10])[C:6]1([H:11])[H:12])([H:7])[H:8]>>[N:1]([C:2]1=[N:4][C:5]([H:9])([H:10])[C:6]([H:11])([H:12])[O:3]1)([H:7])[H:8]"
N        2.04945283       0.42087467      -0.63396345
C        0.97239197      -0.22078939      -0.09602355
O        0.82813697      -0.13634181       1.17178950
N       -0.15554578      -0.21595004      -0.80803483
C       -1.34093276      -0.71456176      -0.17370598
C       -1.03840301       0.50894175       0.64729146
H        2.16862792       0.33228796      -1.62661906
H        2.86884098       0.48425222      -0.05782875
H       -2.19382205      -0.63458886      -0.84456010
H       -1.32779119      -1.65899576       0.35992008
H       -1.50431869       1.45403241       0.37156665
H       -1.32663718       0.38083861       1.69016802
