11
Frame=0 idx=009953 GeodesicLength=0.0 rxn_smarts="[C:1]([C:2](=[O:3])[C:4](=[O:5])[C:6](=[O:7])[H:11])([H:8])([H:9])[H:10]>>[C:1]([C:2]12[O:3][C:6]([H:11])([C:4]1=[O:5])[O:7]2)([H:8])([H:9])[H:10]"
C       -1.51637957       0.25038680      -0.57266764
C       -0.18996588      -0.15230168      -0.08661838
O        0.48502402      -1.19100247      -0.53564916
C        0.61734707       0.00340659       1.19632661
O        0.47092453       0.29702951       2.33215013
C        1.66442675      -0.27844437       0.13082142
O        1.37670577       0.81227823      -0.56302482
H       -2.24673045      -0.43972210      -0.14013951
H       -1.56145907       0.17846307      -1.65751565
H       -1.75141238       1.25862699      -0.23861243
H        2.65151924      -0.73872056       0.13492947
11
Frame=1 idx=009953 GeodesicLength=0.04955932955598559 rxn_smarts="[C:1]([C:2](=[O:3])[C:4](=[O:5])[C:6](=[O:7])[H:11])([H:8])([H:9])[H:10]>>[C:1]([C:2]12[O:3][C:6]([H:11])([C:4]1=[O:5])[O:7]2)([H:8])([H:9])[H:10]"
C       -1.52022985       0.25133930      -0.57113604
C       -0.18813600      -0.15118434      -0.09915465
O        0.48155479      -1.19461182      -0.54557232
C        0.61442588      -0.00059627       1.18918893
O        0.46086226       0.27906042       2.32749642
C        1.67372221      -0.27398743       0.13150446
O        1.38731377       0.81268679      -0.56775346
H       -2.24878925      -0.42755600      -0.11882134
H       -1.57973258       0.16662193      -1.65438289
H       -1.74486684       1.26559980      -0.24763637
H        2.66387560      -0.72737238       0.15626725
11
Frame=2 idx=009953 GeodesicLength=0.09911625533198928 rxn_smarts="[C:1]([C:2](=[O:3])[C:4](=[O:5])[C:6](=[O:7])[H:11])([H:8])([H:9])[H:10]>>[C:1]([C:2]12[O:3][C:6]([H:11])([C:4]1=[O:5])[O:7]2)([H:8])([H:9])[H:10]"
C       -1.52401739       0.25232244      -0.56952123
C       -0.18632900      -0.15010133      -0.11179509
O        0.47780463      -1.19837122      -0.55560925
C        0.61152463      -0.00466414       1.18189557
O        0.45084815       0.26079472       2.32253120
C        1.68303529      -0.26956299       0.13227600
O        1.39796225       0.81287138      -0.57263603
H       -2.25038588      -0.41506419      -0.09749077
H       -1.59809720       0.15482667      -1.65081298
H       -1.73836921       1.27242128      -0.25686774
H        2.67602373      -0.71547262       0.17803032
11
Frame=3 idx=009953 GeodesicLength=0.14870314868227252 rxn_smarts="[C:1]([C:2](=[O:3])[C:4](=[O:5])[C:6](=[O:7])[H:11])([H:8])([H:9])[H:10]>>[C:1]([C:2]12[O:3][C:6]([H:11])([C:4]1=[O:5])[O:7]2)([H:8])([H:9])[H:10]"
C       -1.52773587       0.25334356      -0.56782708
C       -0.18454440      -0.14906940      -0.12455551
O        0.47378728      -1.20227050      -0.56580309
C        0.60863407      -0.00883938       1.17444282
O        0.44084705       0.24207773       2.31727581
C        1.69237206      -0.26515242       0.13313665
O        1.40864255       0.81285567      -0.57764513
H       -2.25152148      -0.40211094      -0.07602425
H       -1.61663046       0.14293019      -1.64677142
H       -1.73182556       1.27915289      -0.26646347
H        2.68797476      -0.70291739       0.20023467
11
Frame=4 idx=009953 GeodesicLength=0.19832791222379448 rxn_smarts="[C:1]([C:2](=[O:3])[C:4](=[O:5])[C:6](=[O:7])[H:11])([H:8])([H:9])[H:10]>>[C:1]([C:2]12[O:3][C:6]([H:11])([C:4]1=[O:5])[O:7]2)([H:8])([H:9])[H:10]"
C       -1.53137970       0.25440467      -0.56605524
C       -0.18277710      -0.14808140      -0.13745049
O        0.46952884      -1.20627341      -0.57622070
C        0.60574804      -0.01316254       1.16682606
O        0.43084621       0.22273796       2.31170621
C        1.70173664      -0.26073039       0.13408878
O        1.41934772       0.81269211      -0.58274242
H       -2.25219276      -0.38855472      -0.05427969
H       -1.63540880       0.13074704      -1.64222797
H       -1.72515086       1.28586184      -0.27657743
H        2.69970176      -0.68964116       0.22293290
11
Frame=5 idx=009953 GeodesicLength=0.24801637406579694 rxn_smarts="[C:1]([C:2](=[O:3])[C:4](=[O:5])[C:6](=[O:7])[H:11])([H:8])([H:9])[H:10]>>[C:1]([C:2]12[O:3][C:6]([H:11])([C:4]1=[O:5])[O:7]2)([H:8])([H:9])[H:10]"
C       -1.53494141       0.25552653      -0.56421398
C       -0.18102882      -0.14716200      -0.15048985
O        0.46500913      -1.21038456      -0.58686916
C        0.60287148      -0.01766470       1.15904215
O        0.42081095       0.20266643       2.30584887
C        1.71112818      -0.25630490       0.13514217
O        1.43007199       0.81234996      -0.58792346
H       -2.25235471      -0.37429924      -0.03219965
H       -1.65450578       0.11824060      -1.63712717
H       -1.71830074       1.29255390      -0.28733926
H        2.71123972      -0.67552203       0.24612935
11
Frame=6 idx=009953 GeodesicLength=0.29777633784843094 rxn_smarts="[C:1]([C:2](=[O:3])[C:4](=[O:5])[C:6](=[O:7])[H:11])([H:8])([H:9])[H:10]>>[C:1]([C:2]12[O:3][C:6]([H:11])([C:4]1=[O:5])[O:7]2)([H:8])([H:9])[H:10]"
C       -1.53839423       0.25671329      -0.56228976
C       -0.17930538      -0.14631078      -0.16366836
O        0.46025821      -1.21460065      -0.59777139
C        0.59997280      -0.02236635       1.15109322
O        0.41071693       0.18174914       2.29968041
C        1.72055439      -0.25182960       0.13629714
O        1.44079483       0.81187847      -0.59315861
H       -2.25202511      -0.35920804      -0.00972830
H       -1.67386426       0.10525162      -1.63141108
H       -1.71122214       1.29925525      -0.29881995
H        2.72251396      -0.66053236       0.26977667
11
Frame=7 idx=009953 GeodesicLength=0.3476116222759938 rxn_smarts="[C:1]([C:2](=[O:3])[C:4](=[O:5])[C:6](=[O:7])[H:11])([H:8])([H:9])[H:10]>>[C:1]([C:2]12[O:3][C:6]([H:11])([C:4]1=[O:5])[O:7]2)([H:8])([H:9])[H:10]"
C       -1.54175349       0.25796173      -0.56028739
C       -0.17761575      -0.14556139      -0.17695531
O        0.45521128      -1.21895941      -0.60889339
C        0.59710042      -0.02726942       1.14299496
O        0.40064811       0.16012893       2.29318274
C        1.73000382      -0.24736394       0.13756618
O        1.45152101       0.81118360      -0.59849979
H       -2.25115330      -0.34340398       0.01295708
H       -1.69347583       0.09202325      -1.62508527
H       -1.70400653       1.30588606      -0.31090518
H        2.73352028      -0.64462545       0.29392536
11
Frame=8 idx=009953 GeodesicLength=0.3974732771647453 rxn_smarts="[C:1]([C:2](=[O:3])[C:4](=[O:5])[C:6](=[O:7])[H:11])([H:8])([H:9])[H:10]>>[C:1]([C:2]12[O:3][C:6]([H:11])([C:4]1=[O:5])[O:7]2)([H:8])([H:9])[H:10]"
C       -1.54501044       0.25926358      -0.55819207
C       -0.17597501      -0.14495106      -0.19030853
O        0.44982335      -1.22353668      -0.62015707
C        0.59427105      -0.03235224       1.13474739
O        0.39069169       0.13803470       2.28631108
C        1.73946082      -0.24293905       0.13894249
O        1.46223788       0.81018096      -0.60400851
H       -2.24974529      -0.32705253       0.03560882
H       -1.71316927       0.07883395      -1.61816256
H       -1.69676337       1.31233051      -0.32334184
H        2.74417861      -0.62781214       0.31856080
11
Frame=9 idx=009953 GeodesicLength=0.44740711217952944 rxn_smarts="[C:1]([C:2](=[O:3])[C:4](=[O:5])[C:6](=[O:7])[H:11])([H:8])([H:9])[H:10]>>[C:1]([C:2]12[O:3][C:6]([H:11])([C:4]1=[O:5])[O:7]2)([H:8])([H:9])[H:10]"
C       -1.54814689       0.26063473      -0.55600831
C       -0.17438977      -0.14446923      -0.20373138
O        0.44410117      -1.22829233      -0.63160019
C        0.59146936      -0.03765449       1.12636731
O        0.38078572       0.11532317       2.27907456
C        1.74894553      -0.23852544       0.14044378
O        1.47293632       0.80890413      -0.60966007
H       -2.24778736      -0.31002691       0.05832669
H       -1.73297908       0.06551693      -1.61059831
H       -1.68943304       1.31864128      -0.33625973
H        2.75449805      -0.61005184       0.34364565
11
Frame=10 idx=009953 GeodesicLength=0.4973852537969845 rxn_smarts="[C:1]([C:2](=[O:3])[C:4](=[O:5])[C:6](=[O:7])[H:11])([H:8])([H:9])[H:10]>>[C:1]([C:2]12[O:3][C:6]([H:11])([C:4]1=[O:5])[O:7]2)([H:8])([H:9])[H:10]"
C       -1.55116663       0.26206905      -0.55373307
C       -0.17286857      -0.14415767      -0.21718802
O        0.43800544      -1.23329771      -0.64316560
C        0.58872525      -0.04316948       1.11786692
O        0.37102294       0.09218637       2.27146433
C        1.75844761      -0.23415692       0.14207416
O        1.48361258       0.80726913      -0.61550073
H       -2.24528496      -0.29248120       0.08090877
H       -1.75280182       0.05232410      -1.60243590
H       -1.68210247       1.32473812      -0.34946140
H        2.76441065      -0.59132380       0.36917054
11
Frame=11 idx=009953 GeodesicLength=0.5473787441617302 rxn_smarts="[C:1]([C:2](=[O:3])[C:4](=[O:5])[C:6](=[O:7])[H:11])([H:8])([H:9])[H:10]>>[C:1]([C:2]12[O:3][C:6]([H:11])([C:4]1=[O:5])[O:7]2)([H:8])([H:9])[H:10]"
C       -1.55405607       0.26356288      -0.55135881
C       -0.17142718      -0.14406277      -0.23064973
O        0.43149089      -1.23860980      -0.65478471
C        0.58604667      -0.04889847       1.10924878
O        0.36145254       0.06879665       2.26347519
C        1.76796033      -0.22985128       0.14383816
O        1.49425954       0.80519598      -0.62158197
H       -2.24225745      -0.27455355       0.10318193
H       -1.77250079       0.03946918      -1.59371371
H       -1.67482315       1.33055062      -0.36274522
H        2.77385468      -0.57159944       0.39509008
11
Frame=12 idx=009953 GeodesicLength=0.5973987241856615 rxn_smarts="[C:1]([C:2](=[O:3])[C:4](=[O:5])[C:6](=[O:7])[H:11])([H:8])([H:9])[H:10]>>[C:1]([C:2]12[O:3][C:6]([H:11])([C:4]1=[O:5])[O:7]2)([H:8])([H:9])[H:10]"
C       -1.55680567       0.26512495      -0.54888843
C       -0.17005588      -0.14416011      -0.24412176
O        0.42457863      -1.24416713      -0.66653013
C        0.58342726      -0.05489362       1.10052023
O        0.35202211       0.04498594       2.25508886
C        1.77749683      -0.22557717       0.14575224
O        1.50487664       0.80273024      -0.62785007
H       -2.23868268      -0.25609853       0.12528525
H       -1.79216470       0.02675774      -1.58437618
H       -1.66751571       1.33613887      -0.37628841
H        2.78282316      -0.55084119       0.42140840
11
Frame=13 idx=009953 GeodesicLength=0.6474449277518867 rxn_smarts="[C:1]([C:2](=[O:3])[C:4](=[O:5])[C:6](=[O:7])[H:11])([H:8])([H:9])[H:10]>>[C:1]([C:2]12[O:3][C:6]([H:11])([C:4]1=[O:5])[O:7]2)([H:8])([H:9])[H:10]"
C       -1.55940967       0.26675589      -0.54632347
C       -0.16876871      -0.14450227      -0.25757816
O        0.41722723      -1.25004767      -0.67834308
C        0.58088533      -0.06116327       1.09169857
O        0.34279957       0.02091776       2.24633740
C        1.78705279      -0.22135423       0.14782415
O        1.51545509       0.79979442      -0.63435660
H       -2.23458110      -0.23726253       0.14705625
H       -1.81168459       0.01440358      -1.57449480
H       -1.66023118       1.34146194      -0.38990197
H        2.79125524      -0.52900364       0.44808172
11
Frame=14 idx=009953 GeodesicLength=0.6975094797490557 rxn_smarts="[C:1]([C:2](=[O:3])[C:4](=[O:5])[C:6](=[O:7])[H:11])([H:8])([H:9])[H:10]>>[C:1]([C:2]12[O:3][C:6]([H:11])([C:4]1=[O:5])[O:7]2)([H:8])([H:9])[H:10]"
C       -1.56186488       0.26845177      -0.54366660
C       -0.16757288      -0.14511446      -0.27099362
O        0.40940801      -1.25629225      -0.69018292
C        0.57843706      -0.06771044       1.08280241
O        0.33382920      -0.00327053       2.23724133
C        1.79663128      -0.21718274       0.15006993
O        1.52599056       0.79634049      -0.64113165
H       -2.22998066      -0.21817891       0.16837969
H       -1.83097340       0.00255418      -1.56414325
H       -1.65300692       1.34649792      -0.40343142
H        2.79910263      -0.50609503       0.47505611
11
Frame=15 idx=009953 GeodesicLength=0.7475179512788817 rxn_smarts="[C:1]([C:2](=[O:3])[C:4](=[O:5])[C:6](=[O:7])[H:11])([H:8])([H:9])[H:10]>>[C:1]([C:2]12[O:3][C:6]([H:11])([C:4]1=[O:5])[O:7]2)([H:8])([H:9])[H:10]"
C       -1.56414938       0.27020177      -0.54090517
C       -0.16647278      -0.14602652      -0.28434362
O        0.40108650      -1.26291525      -0.70198698
C        0.57607701      -0.07453890       1.07381785
O        0.32511732      -0.02744349       2.22777864
C        1.80622466      -0.21305530       0.15249714
O        1.53649329       0.79229344      -0.64820419
H       -2.22491090      -0.19898189       0.18914783
H       -1.84991806      -0.00863313      -1.55336345
H       -1.64583717       1.35119570      -0.41670363
H        2.80628950      -0.48209642       0.50226558
11
Frame=16 idx=009953 GeodesicLength=0.7975332981160347 rxn_smarts="[C:1]([C:2](=[O:3])[C:4](=[O:5])[C:6](=[O:7])[H:11])([H:8])([H:9])[H:10]>>[C:1]([C:2]12[O:3][C:6]([H:11])([C:4]1=[O:5])[O:7]2)([H:8])([H:9])[H:10]"
C       -1.56626310       0.27202619      -0.53805387
C       -0.16546334      -0.14724117      -0.29764400
O        0.39228593      -1.26990878      -0.71383471
C        0.57381219      -0.08171768       1.06476620
O        0.31665289      -0.05178682       2.21799359
C        1.81584742      -0.20894554       0.15512754
O        1.54695203       0.78769344      -0.65553292
H       -2.21934651      -0.17951129       0.20949729
H       -1.86862648      -0.01933113      -1.54213336
H       -1.63865219       1.35564179      -0.42990647
H        2.81280117      -0.45691899       0.52972070
