8
Frame=0 idx=000764 GeodesicLength=0.0 rxn_smarts="[O:1]([C:2]([C:3]#[C:4][H:8])([H:6])[H:7])[H:5]>>[C+:2](=[C:3]=[C-:4][H:8])[H:6].[O:1]([H:5])[H:7]"
O       -1.31269989       1.14743641      -0.27081018
C       -0.63700985      -0.55647654      -0.49085344
C        0.59687090      -0.57002786       0.17297446
C        1.69928641      -0.58287195       0.66430050
H       -0.52859082       1.65443420      -0.02812662
H       -1.43801983      -1.08806530       0.01354239
H       -1.04883839       0.60333291      -1.16336982
H        2.66900146      -0.60776184       1.10234270
8
Frame=1 idx=000764 GeodesicLength=0.057040104240484134 rxn_smarts="[O:1]([C:2]([C:3]#[C:4][H:8])([H:6])[H:7])[H:5]>>[C+:2](=[C:3]=[C-:4][H:8])[H:6].[O:1]([H:5])[H:7]"
O       -1.30992059       1.13696646      -0.26933828
C       -0.64290413      -0.54792674      -0.48423246
C        0.59637468      -0.56748730       0.17305828
C        1.70004857      -0.58031407       0.66110123
H       -0.53204986       1.64978907      -0.01931543
H       -1.44016003      -1.08610017       0.01914531
H       -1.04008797       0.60443122      -1.18169314
H        2.66869932      -0.60935847       1.10127449
8
Frame=2 idx=000764 GeodesicLength=0.11406622492765305 rxn_smarts="[O:1]([C:2]([C:3]#[C:4][H:8])([H:6])[H:7])[H:5]>>[C+:2](=[C:3]=[C-:4][H:8])[H:6].[O:1]([H:5])[H:7]"
O       -1.30715055       1.12681579      -0.26799683
C       -0.64859852      -0.53945934      -0.47778129
C        0.59554192      -0.56500754       0.17385242
C        1.70016615      -0.57787606       0.65926752
H       -0.53552337       1.64518717      -0.01058874
H       -1.44242132      -1.08413268       0.02404779
H       -1.03100464       0.60518016      -1.19954304
H        2.66899033      -0.61070751       1.09874215
8
Frame=3 idx=000764 GeodesicLength=0.17110326166471085 rxn_smarts="[O:1]([C:2]([C:3]#[C:4][H:8])([H:6])[H:7])[H:5]>>[C+:2](=[C:3]=[C-:4][H:8])[H:6].[O:1]([H:5])[H:7]"
O       -1.30437683       1.11697278      -0.26626126
C       -0.65422478      -0.53105179      -0.47158604
C        0.59495604      -0.56245484       0.17396606
C        1.70066641      -0.57536405       0.65644191
H       -0.53872453       1.64069621      -0.00231004
H       -1.44439836      -1.08214102       0.02904468
H       -1.02254309       0.60553411      -1.21674725
H        2.66864513      -0.61219140       1.09745194
8
Frame=4 idx=000764 GeodesicLength=0.22814500176221755 rxn_smarts="[O:1]([C:2]([C:3]#[C:4][H:8])([H:6])[H:7])[H:5]>>[C+:2](=[C:3]=[C-:4][H:8])[H:6].[O:1]([H:5])[H:7]"
O       -1.30163929       1.10741847      -0.26431644
C       -0.65972858      -0.52270569      -0.46559816
C        0.59442441      -0.55983260       0.17390635
C        1.70120652      -0.57276671       0.65346190
H       -0.54179246       1.63630245       0.00568219
H       -1.44622002      -1.08012840       0.03388585
H       -1.01436789       0.60550945      -1.23346755
H        2.66811732      -0.61379698       1.09644586
8
Frame=5 idx=000764 GeodesicLength=0.2851867039451258 rxn_smarts="[O:1]([C:2]([C:3]#[C:4][H:8])([H:6])[H:7])[H:5]>>[C+:2](=[C:3]=[C-:4][H:8])[H:6].[O:1]([H:5])[H:7]"
O       -1.29895829       1.09814243      -0.26275587
C       -0.66501658      -0.51445608      -0.45973505
C        0.59321433      -0.55734241       0.17538556
C        1.70046068      -0.57039521       0.65340213
H       -0.54506133       1.63190927       0.01386281
H       -1.44849079      -1.07810095       0.03759066
H       -1.00523251       0.60518193      -1.25002444
H        2.66908448      -0.61493898       1.09227420
8
Frame=6 idx=000764 GeodesicLength=0.3422374912571309 rxn_smarts="[O:1]([C:2]([C:3]#[C:4][H:8])([H:6])[H:7])[H:5]>>[C+:2](=[C:3]=[C-:4][H:8])[H:6].[O:1]([H:5])[H:7]"
O       -1.29631173       1.08913309      -0.26074849
C       -0.67023930      -0.50625599      -0.45409812
C        0.59230034      -0.55472658       0.17612073
C        1.70022380      -0.56785608       0.65210977
H       -0.54808204       1.62763781       0.02165678
H       -1.45043393      -1.07603909       0.04149071
H       -0.99675078       0.60446120      -1.26609417
H        2.66929365      -0.61635435       1.08956278
8
Frame=7 idx=000764 GeodesicLength=0.3992879891857838 rxn_smarts="[O:1]([C:2]([C:3]#[C:4][H:8])([H:6])[H:7])[H:5]>>[C+:2](=[C:3]=[C-:4][H:8])[H:6].[O:1]([H:5])[H:7]"
O       -1.29374501       1.08037265      -0.25860096
C       -0.67533722      -0.49811299      -0.44863334
C        0.59133778      -0.55203074       0.17696456
C        1.69986751      -0.56517623       0.65108122
H       -0.55106506       1.62345421       0.02928641
H       -1.45231247      -1.07395288       0.04513073
H       -0.98832102       0.60337433      -1.28186066
H        2.66957548      -0.61792834       1.08663205
8
Frame=8 idx=000764 GeodesicLength=0.4563565188717787 rxn_smarts="[O:1]([C:2]([C:3]#[C:4][H:8])([H:6])[H:7])[H:5]>>[C+:2](=[C:3]=[C-:4][H:8])[H:6].[O:1]([H:5])[H:7]"
O       -1.29128704       1.07185057      -0.25654888
C       -0.68027148      -0.49003609      -0.44330270
C        0.59004904      -0.54929857       0.17861630
C        1.69889930      -0.56240004       0.65152274
H       -0.55418181       1.61933154       0.03693061
H       -1.45435484      -1.07184236       0.04814499
H       -0.97942126       0.60192686      -1.29746378
H        2.67056810      -0.61953192       1.08210073
8
Frame=9 idx=000764 GeodesicLength=0.513414845537016 rxn_smarts="[O:1]([C:2]([C:3]#[C:4][H:8])([H:6])[H:7])[H:5]>>[C+:2](=[C:3]=[C-:4][H:8])[H:6].[O:1]([H:5])[H:7]"
O       -1.28887136       1.06356763      -0.25416116
C       -0.68513888      -0.48200729      -0.43816089
C        0.58888310      -0.54650323       0.17991788
C        1.69814441      -0.55951747       0.65140582
H       -0.55711246       1.61529286       0.04436128
H       -1.45622700      -1.06969004       0.05114302
H       -0.97085626       0.60010870      -1.31275135
H        2.67117844      -0.62125116       1.07824540
8
Frame=10 idx=000764 GeodesicLength=0.5705180095717824 rxn_smarts="[O:1]([C:2]([C:3]#[C:4][H:8])([H:6])[H:7])[H:5]>>[C+:2](=[C:3]=[C-:4][H:8])[H:6].[O:1]([H:5])[H:7]"
O       -1.28654380       1.05550926      -0.25144140
C       -0.68992018      -0.47401171      -0.43319941
C        0.58785857      -0.54357516       0.18089268
C        1.69761203      -0.55639429       0.65077442
H       -0.55991163       1.61136586       0.05158823
H       -1.45789707      -1.06751300       0.05413964
H       -0.96263648       0.59790050      -1.32779507
H        2.67143857      -0.62328146       1.07504090
8
Frame=11 idx=000764 GeodesicLength=0.6275583377274756 rxn_smarts="[O:1]([C:2]([C:3]#[C:4][H:8])([H:6])[H:7])[H:5]>>[C+:2](=[C:3]=[C-:4][H:8])[H:6].[O:1]([H:5])[H:7]"
O       -1.28434191       1.04767422      -0.24870909
C       -0.69457656      -0.46607123      -0.42835988
C        0.58663739      -0.54054590       0.18239638
C        1.69673611      -0.55301064       0.65104226
H       -0.56281707       1.60752375       0.05879297
H       -1.45963047      -1.06533528       0.05670916
H       -0.95410839       0.59531353      -1.34270518
H        2.67210089      -0.62554845       1.07083339
8
Frame=12 idx=000764 GeodesicLength=0.6846518604487001 rxn_smarts="[O:1]([C:2]([C:3]#[C:4][H:8])([H:6])[H:7])[H:5]>>[C+:2](=[C:3]=[C-:4][H:8])[H:6].[O:1]([H:5])[H:7]"
O       -1.28225434       1.04003963      -0.24614417
C       -0.69908800      -0.45818540      -0.42361861
C        0.58493744      -0.53755035       0.18505776
C        1.69503824      -0.54971448       0.65324544
H       -0.56592632       1.60370321       0.06616247
H       -1.46167384      -1.06307146       0.05853373
H       -0.94471683       0.59235541      -1.35758898
H        2.67368365      -0.62757656       1.06435236
8
Frame=13 idx=000764 GeodesicLength=0.7417425231425029 rxn_smarts="[O:1]([C:2]([C:3]#[C:4][H:8])([H:6])[H:7])[H:5]>>[C+:2](=[C:3]=[C-:4][H:8])[H:6].[O:1]([H:5])[H:7]"
O       -1.28027780       1.03261841      -0.24355045
C       -0.70349187      -0.45034361      -0.41898992
C        0.58297817      -0.53451082       0.18837823
C        1.69292002      -0.54635907       0.65650720
H       -0.56912836       1.59995877       0.07356192
H       -1.46385080      -1.06078719       0.05987151
H       -0.93483002       0.58900794      -1.37237456
H        2.67568066      -0.62958444       1.05659606
8
Frame=14 idx=000764 GeodesicLength=0.7988429749082319 rxn_smarts="[O:1]([C:2]([C:3]#[C:4][H:8])([H:6])[H:7])[H:5]>>[C+:2](=[C:3]=[C-:4][H:8])[H:6].[O:1]([H:5])[H:7]"
O       -1.27830148       1.02543434      -0.24103454
C       -0.70782414      -0.44257631      -0.41446052
C        0.58047749      -0.53168397       0.19286960
C        1.68992499      -0.54348646       0.66174119
H       -0.57235089       1.59621348       0.08115005
H       -1.46646382      -1.05843513       0.06039990
H       -0.92393666       0.58529995      -1.38708600
H        2.67847450      -0.63076590       1.04642032
8
Frame=15 idx=000764 GeodesicLength=0.8559491917738035 rxn_smarts="[O:1]([C:2]([C:3]#[C:4][H:8])([H:6])[H:7])[H:5]>>[C+:2](=[C:3]=[C-:4][H:8])[H:6].[O:1]([H:5])[H:7]"
O       -1.27638532       1.01846003      -0.23816550
C       -0.71209824      -0.43482608      -0.41008064
C        0.57799815      -0.52881486       0.19728497
C        1.68704501      -0.54066212       0.66668500
H       -0.57542449       1.59256321       0.08864572
H       -1.46899253      -1.05605002       0.06079582
H       -0.91307235       0.58119148      -1.40162223
H        2.68092976      -0.63186164       1.03645686
8
Frame=16 idx=000764 GeodesicLength=0.9130584954844791 rxn_smarts="[O:1]([C:2]([C:3]#[C:4][H:8])([H:6])[H:7])[H:5]>>[C+:2](=[C:3]=[C-:4][H:8])[H:6].[O:1]([H:5])[H:7]"
O       -1.27451189       1.01169944      -0.23492706
C       -0.71632820      -0.42708987      -0.40585037
C        0.57550867      -0.52595219       0.20165447
C        1.68422484      -0.53798471       0.67142266
H       -0.57830890       1.58900045       0.09606823
H       -1.47148023      -1.05362684       0.06101625
H       -0.90220419       0.57668447      -1.41600116
H        2.68309990      -0.63273075       1.02661698
