14
Frame=0 idx=005657 GeodesicLength=0.0 rxn_smarts="[C:1]([O:2][C:3]1([H:10])[C:4]([H:11])([H:12])[O:5][C:6]1([H:13])[H:14])([H:7])([H:8])[H:9]>>[C:1]([O:2][C:3]([C:6]([O+:5]=[C-:4][H:11])([H:13])[H:14])([H:10])[H:12])([H:7])([H:8])[H:9]"
C        2.12175395       0.06019091       0.27856666
O        0.80382457       0.39238096       0.67617386
C       -0.13519777       0.23228218      -0.28343837
C       -1.46360201      -1.40393742      -0.38146566
O       -2.28544081      -0.28675493      -0.57412347
C       -1.53695970       0.70243396       0.08929295
H        2.19878040      -1.00785702       0.05253281
H        2.42201574       0.63981419      -0.60028303
H        2.77622242       0.30018449       1.11293034
H        0.18880290       0.56727967      -1.28011161
H       -1.32518195      -1.53274199       0.71413866
H       -0.30728560      -1.00869278      -0.72451791
H       -1.65972231       0.63923749       1.17842814
H       -1.79800986       1.70618024      -0.25812337
14
Frame=1 idx=005657 GeodesicLength=0.06135017883782089 rxn_smarts="[C:1]([O:2][C:3]1([H:10])[C:4]([H:11])([H:12])[O:5][C:6]1([H:13])[H:14])([H:7])([H:8])[H:9]>>[C:1]([O:2][C:3]([C:6]([O+:5]=[C-:4][H:11])([H:13])[H:14])([H:10])[H:12])([H:7])([H:8])[H:9]"
C        2.11535170       0.05244664       0.28343814
O        0.79769307       0.38774811       0.67645472
C       -0.13940449       0.23477035      -0.29010352
C       -1.45763299      -1.40426420      -0.37049516
O       -2.29541568      -0.30008573      -0.54220518
C       -1.53805900       0.70774102       0.08738978
H        2.18909424      -1.01428910       0.04938791
H        2.42324111       0.63761693      -0.58927574
H        2.76680976       0.28236414       1.12308885
H        0.18665373       0.59364118      -1.27759621
H       -1.28172165      -1.54386350       0.71742393
H       -0.30299044      -1.00512550      -0.76244683
H       -1.65445772       0.67099749       1.17797890
H       -1.80916163       1.70030217      -0.28303958
14
Frame=2 idx=005657 GeodesicLength=0.12283999360188243 rxn_smarts="[C:1]([O:2][C:3]1([H:10])[C:4]([H:11])([H:12])[O:5][C:6]1([H:13])[H:14])([H:7])([H:8])[H:9]>>[C:1]([O:2][C:3]([C:6]([O+:5]=[C-:4][H:11])([H:13])[H:14])([H:10])[H:12])([H:7])([H:8])[H:9]"
C        2.10871402       0.04440753       0.28834418
O        0.79158320       0.38387426       0.67666421
C       -0.14359970       0.23775309      -0.29673340
C       -1.45074869      -1.40440358      -0.35967694
O       -2.30438561      -0.31364254      -0.50875059
C       -1.53932568       0.71308838       0.08553034
H        2.17868352      -1.02109177       0.04679300
H        2.42453435       0.63441741      -0.57846246
H        2.75724698       0.26430769       1.13303829
H        0.18459868       0.62007613      -1.27452733
H       -1.23743889      -1.55522228       0.71906650
H       -0.29940680      -1.00048518      -0.80006367
H       -1.64907419       0.70357915       1.17692815
H       -1.82138117       1.69334172      -0.30815029
14
Frame=3 idx=005657 GeodesicLength=0.18446811688519568 rxn_smarts="[C:1]([O:2][C:3]1([H:10])[C:4]([H:11])([H:12])[O:5][C:6]1([H:13])[H:14])([H:7])([H:8])[H:9]>>[C:1]([O:2][C:3]([C:6]([O+:5]=[C-:4][H:11])([H:13])[H:14])([H:10])[H:12])([H:7])([H:8])[H:9]"
C        2.10185171       0.03611328       0.29328425
O        0.78549737       0.38065913       0.67685551
C       -0.14777040       0.24115923      -0.30329613
C       -1.44308488      -1.40434231      -0.34900884
O       -2.31226533      -0.32735170      -0.47371632
C       -1.54073066       0.71848265       0.08370041
H        2.16763444      -1.02819656       0.04461773
H        2.42586146       0.63037504      -0.56778539
H        2.74752600       0.24601826       1.14280842
H        0.18264794       0.64648475      -1.27090007
H       -1.19243856      -1.56680012       0.71901888
H       -0.29654769      -0.99488212      -0.83730976
H       -1.64359535       0.73704669       1.17519291
H       -1.83458605       1.68523380      -0.33346160
14
Frame=4 idx=005657 GeodesicLength=0.246266274267112 rxn_smarts="[C:1]([O:2][C:3]1([H:10])[C:4]([H:11])([H:12])[O:5][C:6]1([H:13])[H:14])([H:7])([H:8])[H:9]>>[C:1]([O:2][C:3]([C:6]([O+:5]=[C-:4][H:11])([H:13])[H:14])([H:10])[H:12])([H:7])([H:8])[H:9]"
C        2.09480014       0.02760074       0.29826619
O        0.77945150       0.37800750       0.67708024
C       -0.15190777       0.24492842      -0.30976938
C       -1.43479775      -1.40407393      -0.33847794
O       -2.31900172      -0.34114313      -0.43704408
C       -1.54226134       0.72393036       0.08188263
H        2.15604509      -1.03553945       0.04275081
H        2.42722337       0.62564788      -0.55718572
H        2.73767613       0.22748911       1.15244322
H        0.18080816       0.67280008      -1.26672480
H       -1.14682677      -1.57860003       0.71723677
H       -0.29444436      -0.98841317      -0.87415127
H       -1.63804749       0.77145678       1.17268821
H       -1.84871719       1.67590883      -0.35899487
14
Frame=5 idx=005657 GeodesicLength=0.30814576710706876 rxn_smarts="[C:1]([O:2][C:3]1([H:10])[C:4]([H:11])([H:12])[O:5][C:6]1([H:13])[H:14])([H:7])([H:8])[H:9]>>[C:1]([O:2][C:3]([C:6]([O+:5]=[C-:4][H:11])([H:13])[H:14])([H:10])[H:12])([H:7])([H:8])[H:9]"
C        2.08750481       0.01889254       0.30327927
O        0.77340468       0.37584316       0.67735885
C       -0.15599505       0.24899832      -0.31612492
C       -1.42593423      -1.40355981      -0.32806411
O       -2.32441381      -0.35492210      -0.39868945
C       -1.54387141       0.72943439       0.08006832
H        2.14394992      -1.04305629       0.04107367
H        2.42853048       0.62032567      -0.54659578
H        2.72758522       0.20870847       1.16193772
H        0.17908231       0.69891213      -1.26197880
H       -1.10065498      -1.59053683       0.71364155
H       -0.29305159      -0.98117570      -0.91052470
H       -1.63243167       0.80686234       1.16929916
H       -1.86370468       1.66527371      -0.38468079
14
Frame=6 idx=005657 GeodesicLength=0.3702328626903117 rxn_smarts="[C:1]([O:2][C:3]1([H:10])[C:4]([H:11])([H:12])[O:5][C:6]1([H:13])[H:14])([H:7])([H:8])[H:9]>>[C:1]([O:2][C:3]([C:6]([O+:5]=[C-:4][H:11])([H:13])[H:14])([H:10])[H:12])([H:7])([H:8])[H:9]"
C        2.08002427       0.01000403       0.30835159
O        0.76739165       0.37411749       0.67773738
C       -0.16003200       0.25335482      -0.32236242
C       -1.41664013      -1.40281167      -0.31772720
O       -2.32848341      -0.36865374      -0.35850494
C       -1.54558047       0.73500706       0.07823358
H        2.13141840      -1.05071251       0.03949602
H        2.42984828       0.61454878      -0.53594358
H        2.71732112       0.18959463       1.17138143
H        0.17746832       0.72484938      -1.25670019
H       -1.05396384      -1.60266497       0.70818608
H       -0.29243431      -0.97320992      -0.94647022
H       -1.62677279       0.84335408       1.16493254
H       -1.87956510       1.65322255      -0.41061007
14
Frame=7 idx=005657 GeodesicLength=0.43247380195328033 rxn_smarts="[C:1]([O:2][C:3]1([H:10])[C:4]([H:11])([H:12])[O:5][C:6]1([H:13])[H:14])([H:7])([H:8])[H:9]>>[C:1]([O:2][C:3]([C:6]([O+:5]=[C-:4][H:11])([H:13])[H:14])([H:10])[H:12])([H:7])([H:8])[H:9]"
C        2.07237628       0.00099837       0.31347597
O        0.76140188       0.37268513       0.67826563
C       -0.16400058       0.25789483      -0.32845383
C       -1.40709381      -1.40181213      -0.30744845
O       -2.33108926      -0.38219059      -0.31650990
C       -1.54734508       0.74065028       0.07636979
H        2.11859839      -1.05840438       0.03788653
H        2.43112821       0.60850535      -0.52516461
H        2.70687002       0.17021202       1.18077898
H        0.17598282       0.75046703      -1.25089602
H       -1.00698492      -1.61494757       0.70079989
H       -0.29259870      -0.96468093      -0.98189801
H       -1.62108175       0.88092086       1.15948151
H       -1.89616351       1.63970171      -0.43668747
14
Frame=8 idx=005657 GeodesicLength=0.4948774990728968 rxn_smarts="[C:1]([O:2][C:3]1([H:10])[C:4]([H:11])([H:12])[O:5][C:6]1([H:13])[H:14])([H:7])([H:8])[H:9]>>[C:1]([O:2][C:3]([C:6]([O+:5]=[C-:4][H:11])([H:13])[H:14])([H:10])[H:12])([H:7])([H:8])[H:9]"
C        2.06454968      -0.00813215       0.31866893
O        0.75542797       0.37152060       0.67895361
C       -0.16789879       0.26261723      -0.33439438
C       -1.39733743      -1.40053437      -0.29717922
O       -2.33208818      -0.39546049      -0.27256648
C       -1.54916743       0.74637116       0.07445921
H        2.10551046      -1.06611562       0.03620510
H        2.43235874       0.60222973      -0.51419375
H        2.69619719       0.15049594       1.19016218
H        0.17460463       0.77578237      -1.24456481
H       -0.95970552      -1.62737622       0.69137460
H       -0.29354849      -0.95560581      -1.01682061
H       -1.61536999       0.91963002       1.15280166
H       -1.91353284       1.62457762      -0.46290605
14
Frame=9 idx=005657 GeodesicLength=0.5573784946865975 rxn_smarts="[C:1]([O:2][C:3]1([H:10])[C:4]([H:11])([H:12])[O:5][C:6]1([H:13])[H:14])([H:7])([H:8])[H:9]>>[C:1]([O:2][C:3]([C:6]([O+:5]=[C-:4][H:11])([H:13])[H:14])([H:10])[H:12])([H:7])([H:8])[H:9]"
C        2.05655961      -0.01731795       0.32391769
O        0.74943621       0.37045658       0.67984768
C       -0.17170286       0.26740679      -0.34015611
C       -1.38755297      -1.39893552      -0.28688375
O       -2.33134153      -0.40827746      -0.22666907
C       -1.55099997       0.75216659       0.07250411
H        2.09232315      -1.07371597       0.03429423
H        2.43349658       0.59592789      -0.50295104
H        2.68526662       0.13050874       1.19952564
H        0.17337730       0.80062859      -1.23770945
H       -0.91240703      -1.63990378       0.67982075
H       -0.29527737      -0.94614802      -1.05115644
H       -1.60966638       0.95944555       1.14478137
H       -1.93151135       1.60775796      -0.48916562
14
Frame=10 idx=005657 GeodesicLength=0.619998012437157 rxn_smarts="[C:1]([O:2][C:3]1([H:10])[C:4]([H:11])([H:12])[O:5][C:6]1([H:13])[H:14])([H:7])([H:8])[H:9]>>[C:1]([O:2][C:3]([C:6]([O+:5]=[C-:4][H:11])([H:13])[H:14])([H:10])[H:12])([H:7])([H:8])[H:9]"
C        2.04846276      -0.02652157       0.32924126
O        0.74345898       0.36943627       0.68097329
C       -0.17540872       0.27223394      -0.34574881
C       -1.37790375      -1.39703538      -0.27650103
O       -2.32875146      -0.42052767      -0.17886800
C       -1.55284300       0.75803220       0.07047691
H        2.07913794      -1.08115748       0.03211012
H        2.43456952       0.58972435      -0.49138372
H        2.67414570       0.11025625       1.20891630
H        0.17227368       0.82498760      -1.23038750
H       -0.86527879      -1.65251097       0.66609739
H       -0.29781724      -0.93641681      -1.08487417
H       -1.60396859       1.00029296       1.13529957
H       -1.95007702       1.58920632      -0.51535162
14
Frame=11 idx=005657 GeodesicLength=0.6827215398481585 rxn_smarts="[C:1]([O:2][C:3]1([H:10])[C:4]([H:11])([H:12])[O:5][C:6]1([H:13])[H:14])([H:7])([H:8])[H:9]>>[C:1]([O:2][C:3]([C:6]([O+:5]=[C-:4][H:11])([H:13])[H:14])([H:10])[H:12])([H:7])([H:8])[H:9]"
C        2.04026822      -0.03571221       0.33463876
O        0.73747482       0.36838569       0.68234473
C       -0.17900129       0.27705422      -0.35117165
C       -1.36849226      -1.39480970      -0.26596268
O       -2.32415814      -0.43206290      -0.12916468
C       -1.55468040       0.76396253       0.06837278
H        2.06604833      -1.08837699       0.02957678
H        2.43557044       0.58372183      -0.47943214
H        2.66280245       0.08974346       1.21834334
H        0.17130632       0.84880883      -1.22261919
H       -0.81851075      -1.66514341       0.65013087
H       -0.30114846      -0.92650995      -1.11794593
H       -1.59831083       1.04210669       1.12423839
H       -1.96916844       1.56883192      -0.54134938
14
Frame=12 idx=005657 GeodesicLength=0.7455277271876251 rxn_smarts="[C:1]([O:2][C:3]1([H:10])[C:4]([H:11])([H:12])[O:5][C:6]1([H:13])[H:14])([H:7])([H:8])[H:9]>>[C:1]([O:2][C:3]([C:6]([O+:5]=[C-:4][H:11])([H:13])[H:14])([H:10])[H:12])([H:7])([H:8])[H:9]"
C        2.03200512      -0.04485776       0.34011023
O        0.73148295       0.36724901       0.68396642
C       -0.18246909       0.28183408      -0.35643342
C       -1.35942188      -1.39224433      -0.25518491
O       -2.31741631      -0.44273054      -0.07767065
C       -1.55650668       0.76993985       0.06618120
H        2.05314888      -1.09531917       0.02665495
H        2.43650540       0.57800371      -0.46705778
H        2.65124675       0.06898979       1.22781197
H        0.17046774       0.87205707      -1.21444363
H       -0.77233118      -1.67772327       0.63189564
H       -0.30524787      -0.91652982      -1.15033419
H       -1.59273673       1.08473773       1.11149264
H       -1.98872710       1.54659365      -0.56698846
14
Frame=13 idx=005657 GeodesicLength=0.8083964720670133 rxn_smarts="[C:1]([O:2][C:3]1([H:10])[C:4]([H:11])([H:12])[O:5][C:6]1([H:13])[H:14])([H:7])([H:8])[H:9]>>[C:1]([O:2][C:3]([C:6]([O+:5]=[C-:4][H:11])([H:13])[H:14])([H:10])[H:12])([H:7])([H:8])[H:9]"
C        2.02369881      -0.05392357       0.34564730
O        0.72548059       0.36598619       0.68583189
C       -0.18579770       0.28654306      -0.36154648
C       -1.35077401      -1.38933155      -0.24407678
O       -2.30838776      -0.45237442      -0.02458765
C       -1.55831276       0.77594023       0.06390015
H        2.04052228      -1.10193806       0.02332772
H        2.43737694       0.57263006      -0.45424650
H        2.63948489       0.04804325       1.23730854
H        0.16975300       0.89470166      -1.20590075
H       -0.72700443      -1.69014727       0.61140826
H       -0.31006832      -0.90658887      -1.18200178
H       -1.58730634       1.12796974       1.09699315
H       -2.00866520       1.52248954      -0.59205708
14
Frame=14 idx=005657 GeodesicLength=0.8713141631642368 rxn_smarts="[C:1]([O:2][C:3]1([H:10])[C:4]([H:11])([H:12])[O:5][C:6]1([H:13])[H:14])([H:7])([H:8])[H:9]>>[C:1]([O:2][C:3]([C:6]([O+:5]=[C-:4][H:11])([H:13])[H:14])([H:10])[H:12])([H:7])([H:8])[H:9]"
C        2.01535971      -0.06287559       0.35123880
O        0.71947282       0.36459461       0.68792324
C       -0.18897210       0.29116199      -0.36652505
C       -1.34259475      -1.38606636      -0.23255290
O       -2.29694245      -0.46085161       0.02980827
C       -1.56007554       0.78193245       0.06153666
H        2.02820134      -1.10820278       0.01961092
H        2.43817637       0.56761128      -0.44100409
H        2.62751751       0.02698375       1.24680624
H        0.16915063       0.91672482      -1.19701590
H       -0.68279294      -1.70228199       0.58871261
H       -0.31556117      -0.89679304      -1.21292910
H       -1.58207088       1.17153475       1.08071684
H       -2.02886855       1.49652771      -0.61632653
14
Frame=15 idx=005657 GeodesicLength=0.9343021395258315 rxn_smarts="[C:1]([O:2][C:3]1([H:10])[C:4]([H:11])([H:12])[O:5][C:6]1([H:13])[H:14])([H:7])([H:8])[H:9]>>[C:1]([O:2][C:3]([C:6]([O+:5]=[C-:4][H:11])([H:13])[H:14])([H:10])[H:12])([H:7])([H:8])[H:9]"
C        2.00703386      -0.07169584       0.35685985
O        0.71349095       0.36312863       0.69019128
C       -0.19197982       0.29570705      -0.37141528
C       -1.33487277      -1.38248090      -0.22047193
O       -2.28306338      -0.46807192       0.08500258
C       -1.56182537       0.78784936       0.05909008
H        2.01621318      -1.11411051       0.01556627
H        2.43896437       0.56291791      -0.42741227
H        2.61539058       0.00584207       1.25628041
H        0.16864042       0.93816123      -1.18789776
H       -0.63996842      -1.71392022       0.56406772
H       -0.32161218      -0.88722761      -1.24309847
H       -1.57717668       1.21500844       1.06271637
H       -2.04923473       1.46889230      -0.63947886
14
Frame=16 idx=005657 GeodesicLength=0.9973288762149358 rxn_smarts="[C:1]([O:2][C:3]1([H:10])[C:4]([H:11])([H:12])[O:5][C:6]1([H:13])[H:14])([H:7])([H:8])[H:9]>>[C:1]([O:2][C:3]([C:6]([O+:5]=[C-:4][H:11])([H:13])[H:14])([H:10])[H:12])([H:7])([H:8])[H:9]"
C        1.99871187      -0.08037996       0.36249179
O        0.70755001       0.36161653       0.69257797
C       -0.19481722       0.30018259      -0.37624970
C       -1.32753050      -1.37855247      -0.20773361
O       -2.26669641      -0.47392054       0.14057454
C       -1.56353485       0.79365334       0.05655701
H        2.00453574      -1.11965946       0.01126645
H        2.43970221       0.55849054      -0.41350668
H        2.60309117      -0.01533834       1.26568969
H        0.16816274       0.95904624      -1.17856885
H       -0.59870835      -1.72487380       0.53766658
H       -0.32814730      -0.87793867      -1.27250720
H       -1.57265040       1.25800668       1.04305758
H       -2.06966872       1.43966731      -0.66131556
