15
Frame=0 idx=010849 GeodesicLength=0.0 rxn_smarts="[C:1]([C@@:2]12[C:3]([H:11])([H:12])[C@:4]1([O:5][H:13])[C:6]([H:14])([H:15])[O:7]2)([H:8])([H:9])[H:10]>>[C:1]([C:2]([C:4]1([O:5][H:13])[C:3]([H:11])([H:12])[C:6]1([H:14])[H:15])=[O:7])([H:8])([H:9])[H:10]"
C        1.91605665      -0.25191473       0.83295672
C        0.89135686       0.63421523       0.19211848
C       -0.65424981      -0.88606650      -1.16385929
C       -0.51828574       0.07032517      -0.08321135
O       -0.90648928      -0.50356148       1.19948610
C       -1.45458831       1.12042878      -0.49674882
O        1.11079111       1.76841425      -0.15075597
H        2.90522423       0.19275658       0.74650334
H        1.90318268      -1.24207664       0.37208948
H        1.65579738      -0.38837023       1.88354172
H       -1.25259608      -0.66514589      -2.03138593
H       -0.14438806      -1.84445965      -1.12816676
H       -1.73365233      -0.97002025       1.04264468
H       -2.05841746       1.01302733      -1.38338326
H       -1.65974188       1.95244808       0.16817087
15
Frame=1 idx=010849 GeodesicLength=0.10333439105002451 rxn_smarts="[C:1]([C@@:2]12[C:3]([H:11])([H:12])[C@:4]1([O:5][H:13])[C:6]([H:14])([H:15])[O:7]2)([H:8])([H:9])[H:10]>>[C:1]([C:2]([C:4]1([O:5][H:13])[C:3]([H:11])([H:12])[C:6]1([H:14])[H:15])=[O:7])([H:8])([H:9])[H:10]"
C        1.91424209      -0.25162670       0.84718131
C        0.89217717       0.60526913       0.16648435
C       -0.63729789      -0.85453199      -1.18066205
C       -0.52709684       0.06120793      -0.06318848
O       -0.92275760      -0.52096819       1.20410726
C       -1.42881954       1.13018888      -0.50233937
O        1.09380391       1.74455204      -0.19133529
H        2.90412114       0.18637123       0.73674233
H        1.89666315      -1.26167427       0.43192987
H        1.65703197      -0.33937252       1.90369784
H       -1.28160968      -0.66400672      -2.02217225
H       -0.11175219      -1.80480526      -1.17651941
H       -1.73370555      -1.00970418       1.03222835
H       -2.09661228       1.00616269      -1.34015379
H       -1.61838784       1.97293792       0.15399934
15
Frame=2 idx=010849 GeodesicLength=0.20664847250451093 rxn_smarts="[C:1]([C@@:2]12[C:3]([H:11])([H:12])[C@:4]1([O:5][H:13])[C:6]([H:14])([H:15])[O:7]2)([H:8])([H:9])[H:10]>>[C:1]([C:2]([C:4]1([O:5][H:13])[C:3]([H:11])([H:12])[C:6]1([H:14])[H:15])=[O:7])([H:8])([H:9])[H:10]"
C        1.91167494      -0.25086172       0.85963442
C        0.89155856       0.57645742       0.14258982
C       -0.62236688      -0.82378790      -1.19525272
C       -0.53595106       0.05208428      -0.04397804
O       -0.93987988      -0.53737970       1.20850847
C       -1.40392928       1.13825190      -0.50843378
O        1.07607800       1.72079414      -0.22895522
H        2.90209741       0.17984853       0.72660020
H        1.89007052      -1.27781568       0.48840707
H        1.65786831      -0.29229197       1.91980165
H       -1.30763478      -0.66558494      -2.01095581
H       -0.08124844      -1.76467197      -1.22156894
H       -1.73276288      -1.04955031       1.02227952
H       -2.12706199       1.00341973      -1.29804128
H       -1.57851255       1.99108819       0.13936465
15
Frame=3 idx=010849 GeodesicLength=0.3100120259813283 rxn_smarts="[C:1]([C@@:2]12[C:3]([H:11])([H:12])[C@:4]1([O:5][H:13])[C:6]([H:14])([H:15])[O:7]2)([H:8])([H:9])[H:10]>>[C:1]([C:2]([C:4]1([O:5][H:13])[C:3]([H:11])([H:12])[C:6]1([H:14])[H:15])=[O:7])([H:8])([H:9])[H:10]"
C        1.90843223      -0.24968579       0.87041961
C        0.88950518       0.54793332       0.12047439
C       -0.60948733      -0.79417354      -1.20754910
C       -0.54492510       0.04298084      -0.02545178
O       -0.95775947      -0.55277179       1.21284000
C       -1.38015193       1.14472820      -0.51449223
O        1.05765455       1.69720382      -0.26401246
H        2.89920528       0.17326702       0.71596133
H        1.88344930      -1.29090751       0.54159889
H        1.65848851      -0.24712270       1.93230585
H       -1.32997122      -0.66889730      -1.99864093
H       -0.05320919      -1.72464105      -1.26322274
H       -1.73050454      -1.08963102       1.01313395
H       -2.15048654       1.00462372      -1.25813957
H       -1.54023971       2.00709379       0.12477478
15
Frame=4 idx=010849 GeodesicLength=0.41344604836727883 rxn_smarts="[C:1]([C@@:2]12[C:3]([H:11])([H:12])[C@:4]1([O:5][H:13])[C:6]([H:14])([H:15])[O:7]2)([H:8])([H:9])[H:10]>>[C:1]([C:2]([C:4]1([O:5][H:13])[C:3]([H:11])([H:12])[C:6]1([H:14])[H:15])=[O:7])([H:8])([H:9])[H:10]"
C        1.90461254      -0.24817450       0.87975039
C        0.88615879       0.51979363       0.10008424
C       -0.59848167      -0.76583460      -1.21769942
C       -0.55400042       0.03396529      -0.00758309
O       -0.97633175      -0.56713009       1.21709155
C       -1.35749207       1.14984473      -0.52027809
O        1.03873534       1.67384200      -0.29679916
H        2.89556688       0.16657626       0.70484825
H        1.87680537      -1.30136358       0.59184805
H        1.65899966      -0.20371768       1.94171116
H       -1.34852715      -0.67317605      -1.98597934
H       -0.02770790      -1.68509548      -1.30164441
H       -1.72666944      -1.12991907       1.00488857
H       -2.16817164       1.00917807      -1.22073076
H       -1.50349654       2.02121108       0.11049206
15
Frame=5 idx=010849 GeodesicLength=0.5169603473081595 rxn_smarts="[C:1]([C@@:2]12[C:3]([H:11])([H:12])[C@:4]1([O:5][H:13])[C:6]([H:14])([H:15])[O:7]2)([H:8])([H:9])[H:10]>>[C:1]([C:2]([C:4]1([O:5][H:13])[C:3]([H:11])([H:12])[C:6]1([H:14])[H:15])=[O:7])([H:8])([H:9])[H:10]"
C        1.90028235      -0.24639810       0.88783728
C        0.88168198       0.49209492       0.08132373
C       -0.58908820      -0.73881390      -1.22593462
C       -0.56313427       0.02511003       0.00962308
O       -0.99556462      -0.58044897       1.22117462
C       -1.33585918       1.15383287      -0.52571958
O        1.01952493       1.65076548      -0.32751116
H        2.89127311       0.15969410       0.69334187
H        1.87012152      -1.30953813       0.63951216
H        1.65943387      -0.16191019       1.94844291
H       -1.36352251      -0.67789798      -1.97350040
H       -0.00465761      -1.64628345      -1.33709329
H       -1.72104236      -1.17031144       0.99755308
H       -2.18130617       1.01641965      -1.18567981
H       -1.46814285       2.03368511       0.09663013
15
Frame=6 idx=010849 GeodesicLength=0.6205241943814448 rxn_smarts="[C:1]([C@@:2]12[C:3]([H:11])([H:12])[C@:4]1([O:5][H:13])[C:6]([H:14])([H:15])[O:7]2)([H:8])([H:9])[H:10]>>[C:1]([C:2]([C:4]1([O:5][H:13])[C:3]([H:11])([H:12])[C:6]1([H:14])[H:15])=[O:7])([H:8])([H:9])[H:10]"
C        1.89551727      -0.24441320       0.89489366
C        0.87624836       0.46486708       0.06406997
C       -0.58106750      -0.71308001      -1.23253240
C       -0.57229213       0.01646449       0.02615671
O       -1.01544993      -0.59278776       1.22498837
C       -1.31516474       1.15689427      -0.53082209
O        1.00022065       1.62803708      -0.35631463
H        2.88644436       0.15252926       0.68154756
H        1.86336842      -1.31572877       0.68498384
H        1.65982009      -0.12151515       1.95288730
H       -1.37540299      -0.68276279      -1.96152650
H        0.01610523      -1.60832617      -1.36990466
H       -1.71343975      -1.21074118       0.99112908
H       -2.19086673       1.02584411      -1.15279778
H       -1.43404062       2.04471874       0.08324157
15
Frame=7 idx=010849 GeodesicLength=0.7241310987267602 rxn_smarts="[C:1]([C@@:2]12[C:3]([H:11])([H:12])[C@:4]1([O:5][H:13])[C:6]([H:14])([H:15])[O:7]2)([H:8])([H:9])[H:10]>>[C:1]([C:2]([C:4]1([O:5][H:13])[C:3]([H:11])([H:12])[C:6]1([H:14])[H:15])=[O:7])([H:8])([H:9])[H:10]"
C        1.89034947      -0.24227172       0.90107826
C        0.86999013       0.43812065       0.04820030
C       -0.57418930      -0.68857806      -1.23773946
C       -0.58144967       0.00806537       0.04201621
O       -1.03599044      -0.60421777       1.22841262
C       -1.29531288       1.15919251      -0.53561748
O        0.98095447       1.60570817      -0.38332780
H        2.88113518       0.14500809       0.66956654
H        1.85650954      -1.32017381       0.72855659
H        1.66014258      -0.08239466       1.95532525
H       -1.38459881      -0.68760530      -1.95022540
H        0.03479040      -1.57128050      -1.40038661
H       -1.70370842      -1.25108478       0.98563507
H       -2.19755718       1.03703233      -1.12183772
H       -1.40106508       2.05447948       0.07034364
15
Frame=8 idx=010849 GeodesicLength=0.8277738902748392 rxn_smarts="[C:1]([C@@:2]12[C:3]([H:11])([H:12])[C@:4]1([O:5][H:13])[C:6]([H:14])([H:15])[O:7]2)([H:8])([H:9])[H:10]>>[C:1]([C:2]([C:4]1([O:5][H:13])[C:3]([H:11])([H:12])[C:6]1([H:14])[H:15])=[O:7])([H:8])([H:9])[H:10]"
C        1.88480277      -0.24002163       0.90651938
C        0.86301667       0.41185578       0.03359620
C       -0.56825597      -0.66523722      -1.24177741
C       -0.59059495      -0.00006634       0.05720629
O       -1.05719542      -0.61483937       1.23132441
C       -1.27622468       1.16085860      -0.54015025
O        0.96182176       1.58382559      -0.40865109
H        2.87538692       0.13707160       0.65749574
H        1.84951456      -1.32307033       0.77046766
H        1.66038151      -0.04444754       1.95597997
H       -1.39151399      -0.69235092      -1.93966932
H        0.05162327      -1.53514879      -1.42882686
H       -1.69174144      -1.29119302       0.98111912
H       -2.20190330       1.04966065      -1.09257071
H       -1.36911771       2.06310292       0.05793688
15
Frame=9 idx=010849 GeodesicLength=0.9314575011616514 rxn_smarts="[C:1]([C@@:2]12[C:3]([H:11])([H:12])[C@:4]1([O:5][H:13])[C:6]([H:14])([H:15])[O:7]2)([H:8])([H:9])[H:10]>>[C:1]([C:2]([C:4]1([O:5][H:13])[C:3]([H:11])([H:12])[C:6]1([H:14])[H:15])=[O:7])([H:8])([H:9])[H:10]"
C        1.87888478      -0.23770039       0.91132016
C        0.85541767       0.38606147       0.02013935
C       -0.56310051      -0.64297130      -1.24485217
C       -0.59972071      -0.00792796       0.07173676
O       -1.07906928      -0.62478714       1.23360468
C       -1.25783332       1.16198826      -0.54444882
O        0.94288808       1.56242437      -0.43237768
H        2.86922309       0.12865750       0.64540198
H        1.84232120      -1.32457518       0.81094118
H        1.66051336      -0.00756266       1.95502828
H       -1.39651599      -0.69699202      -1.92984121
H        0.06681962      -1.49988645      -1.45550550
H       -1.67743790      -1.33092012       0.97764568
H       -2.20427280       1.06351185      -1.06483760
H       -1.33811729       2.07067977       0.04604492
15
Frame=10 idx=010849 GeodesicLength=1.0351689956910641 rxn_smarts="[C:1]([C@@:2]12[C:3]([H:11])([H:12])[C@:4]1([O:5][H:13])[C:6]([H:14])([H:15])[O:7]2)([H:8])([H:9])[H:10]>>[C:1]([C:2]([C:4]1([O:5][H:13])[C:3]([H:11])([H:12])[C:6]1([H:14])[H:15])=[O:7])([H:8])([H:9])[H:10]"
C        1.87261845      -0.23535315       0.91555038
C        0.84726592       0.36073728       0.00773706
C       -0.55857385      -0.62171046      -1.24711770
C       -0.60882973      -0.01551589       0.08562871
O       -1.10162607      -0.63419361       1.23513622
C       -1.24008913       1.16266040      -0.54856123
O        0.92419801       1.54155109      -0.45457294
H        2.86267416       0.11974514       0.63336214
H        1.83493512      -1.32482908       0.85007277
H        1.66052492       0.02826710       1.95261057
H       -1.39986603      -0.70153975      -1.92073944
H        0.08060848      -1.46544037      -1.48063039
H       -1.66084439      -1.37001761       0.97531528
H       -2.20497960       1.07833845      -1.03844327
H       -1.30801625       2.07730047       0.03465184
15
Frame=11 idx=010849 GeodesicLength=1.1389071445254209 rxn_smarts="[C:1]([C@@:2]12[C:3]([H:11])([H:12])[C@:4]1([O:5][H:13])[C:6]([H:14])([H:15])[O:7]2)([H:8])([H:9])[H:10]>>[C:1]([C:2]([C:4]1([O:5][H:13])[C:3]([H:11])([H:12])[C:6]1([H:14])[H:15])=[O:7])([H:8])([H:9])[H:10]"
C        1.86601980      -0.23301626       0.91926481
C        0.83862170       0.33587881      -0.00370080
C       -0.55454911      -0.60138019      -1.24871247
C       -0.61792462      -0.02283948       0.09890588
O       -1.12486841      -0.64321018       1.23580832
C       -1.22295252       1.16293040      -0.55251482
O        0.90577755       1.52124359      -0.47530420
H        2.85576196       0.11031093       0.62142285
H        1.82733974      -1.32395113       0.88795933
H        1.66041077       0.06306607       1.94884364
H       -1.40178217      -0.70602518      -1.91232787
H        0.09319580      -1.43173790      -1.50439132
H       -1.64202039      -1.40825764       0.97423410
H       -2.20425181       1.09396188      -1.01325331
H       -1.27877829       2.08302627       0.02376587
15
Frame=12 idx=010849 GeodesicLength=1.2426698030246217 rxn_smarts="[C:1]([C@@:2]12[C:3]([H:11])([H:12])[C@:4]1([O:5][H:13])[C:6]([H:14])([H:15])[O:7]2)([H:8])([H:9])[H:10]>>[C:1]([C:2]([C:4]1([O:5][H:13])[C:3]([H:11])([H:12])[C:6]1([H:14])[H:15])=[O:7])([H:8])([H:9])[H:10]"
C        1.85911133      -0.23072222       0.92250161
C        0.82953692       0.31148454      -0.01425452
C       -0.55091362      -0.58191395      -1.24974959
C       -0.62700679      -0.02991652       0.11159643
O       -1.14878585      -0.65199494       1.23551580
C       -1.20639428       1.16283608      -0.55632753
O        0.88763831       1.50153800      -0.49463438
H        2.84850962       0.10034687       0.60961630
H        1.81953490      -1.32204638       0.92466079
H        1.66017850       0.09683906       1.94382586
H       -1.40242021      -0.71048281      -1.90457597
H        0.10477555      -1.39870402      -1.52694229
H       -1.62110694      -1.44538359       0.97451369
H       -2.20227358       1.11021734      -0.98914795
H       -1.25038385       2.08790251       0.01340174
15
Frame=13 idx=010849 GeodesicLength=1.346455603717041 rxn_smarts="[C:1]([C@@:2]12[C:3]([H:11])([H:12])[C@:4]1([O:5][H:13])[C:6]([H:14])([H:15])[O:7]2)([H:8])([H:9])[H:10]>>[C:1]([C:2]([C:4]1([O:5][H:13])[C:3]([H:11])([H:12])[C:6]1([H:14])[H:15])=[O:7])([H:8])([H:9])[H:10]"
C        1.85192570      -0.22849769       0.92528523
C        0.82005876       0.28755426      -0.02399584
C       -0.54756503      -0.56325346      -1.25031995
C       -0.63607348      -0.03677214       0.12373263
O       -1.17335297      -0.66070983       1.23416279
C       -1.19039257       1.16239966      -0.56000766
O        0.86978183       1.48246619      -0.51262429
H        2.84094509       0.08986607       0.59796200
H        1.81154754      -1.31920791       0.96020469
H        1.65984863       0.12957776       1.93764173
H       -1.40188610      -0.71494530      -1.89745811
H        0.11552985      -1.36626622      -1.54840185
H       -1.59834539      -1.48111767       0.97625359
H       -2.19919727       1.12694561      -0.96601471
H       -1.22282461       2.09196067       0.00357977
15
Frame=14 idx=010849 GeodesicLength=1.4502624851081312 rxn_smarts="[C:1]([C@@:2]12[C:3]([H:11])([H:12])[C@:4]1([O:5][H:13])[C:6]([H:14])([H:15])[O:7]2)([H:8])([H:9])[H:10]>>[C:1]([C:2]([C:4]1([O:5][H:13])[C:3]([H:11])([H:12])[C:6]1([H:14])[H:15])=[O:7])([H:8])([H:9])[H:10]"
C        1.84450028      -0.22636500       0.92762990
C        0.81023085       0.26409214      -0.03298901
C       -0.54440983      -0.54534540      -1.25049814
C       -0.64511910      -0.04343731       0.13534792
O       -1.19852840      -0.66950572       1.23166462
C       -1.17493223       1.16163326      -0.56355459
O        0.85220144       1.46406036      -0.52932965
H        2.83309817       0.07888531       0.58646074
H        1.80340670      -1.31551996       0.99460526
H        1.65945518       0.16127257       1.93036545
H       -1.40024702      -0.71944601      -1.89095366
H        0.12562955      -1.33435320      -1.56886415
H       -1.57403128      -1.51519418       0.97954532
H       -2.19515025       1.14399959      -0.94375667
H       -1.19610407       2.09522355      -0.00567332
15
Frame=15 idx=010849 GeodesicLength=1.5540883411533741 rxn_smarts="[C:1]([C@@:2]12[C:3]([H:11])([H:12])[C@:4]1([O:5][H:13])[C:6]([H:14])([H:15])[O:7]2)([H:8])([H:9])[H:10]>>[C:1]([C:2]([C:4]1([O:5][H:13])[C:3]([H:11])([H:12])[C:6]1([H:14])[H:15])=[O:7])([H:8])([H:9])[H:10]"
C        1.83688017      -0.22434207       0.92954187
C        0.80009455       0.24110468      -0.04129087
C       -0.54136277      -0.52814178      -1.25034314
C       -0.65413480      -0.04994546       0.14647705
O       -1.22425867      -0.67851724       1.22795071
C       -1.16000244       1.16054201      -0.56696291
O        0.83488569       1.44634980      -0.54480333
H        2.82500257       0.06743662       0.57510426
H        1.79516195      -1.31106045       1.02785578
H        1.65904140       0.19190658       1.92206473
H       -1.39754159      -0.72401537      -1.88504550
H        0.13523281      -1.30289933      -1.58839485
H       -1.54852296      -1.54736426       0.98446198
H       -2.19024336       1.16123661      -0.92228413
H       -1.17023255       2.09770966      -0.01433165
15
Frame=16 idx=010849 GeodesicLength=1.6579318092641224 rxn_smarts="[C:1]([C@@:2]12[C:3]([H:11])([H:12])[C@:4]1([O:5][H:13])[C:6]([H:14])([H:15])[O:7]2)([H:8])([H:9])[H:10]>>[C:1]([C:2]([C:4]1([O:5][H:13])[C:3]([H:11])([H:12])[C:6]1([H:14])[H:15])=[O:7])([H:8])([H:9])[H:10]"
C        1.82911162      -0.22244457       0.93102330
C        0.78968828       0.21860011      -0.04895319
C       -0.53834910      -0.51159731      -1.24990298
C       -0.66311117      -0.05633000       0.15715329
O       -1.25048347      -0.68785380       1.22296297
C       -1.14559562       1.15912929      -0.57022522
O        0.81782048       1.42936095      -0.55909640
H        2.81669177       0.05555613       0.56387674
H        1.78686772      -1.30590414       1.05994115
H        1.65865287       0.22146206       1.91280341
H       -1.39379000      -0.72868077      -1.87971954
H        0.14448368      -1.27184150      -1.60704128
H       -1.52218822      -1.57742005       0.99106824
H       -2.18457483       1.17852504      -0.90151750
H       -1.14522401       2.09943856      -0.02237301
