14
Frame=0 idx=002374 GeodesicLength=0.0 rxn_smarts="[C:1]([O:2][C:3]([C@@:4]1([H:12])[C:5]([H:13])([H:14])[O:6]1)([H:10])[H:11])([H:7])([H:8])[H:9]>>[C:1]([O:2][C:3]([C@@:4]([C+:5]([H:13])[H:14])([O-:6])[H:12])([H:10])[H:11])([H:7])([H:8])[H:9]"
C       -1.69606860       0.61585385      -0.46278541
O       -0.64877663      -0.33362316      -0.31742123
C       -0.02424043      -0.43656788       1.01498585
C        1.42554619      -0.64526510       0.44871420
C        1.07175070       0.00236200      -0.84056248
O        2.46908890       0.05167980       0.85273073
H       -2.52843922       0.33080813       0.18255909
H       -1.35179229       1.61859263      -0.19485088
H       -2.01540074       0.59364977      -1.50333994
H       -0.51168435      -1.24016216       1.56514476
H       -0.10449788       0.52292416       1.53119199
H        1.57845310      -1.73975664       0.32504532
H        1.06212258       1.08600411      -0.78061570
H        1.27393862      -0.42649947      -1.82079634
14
Frame=1 idx=002374 GeodesicLength=0.056168816834350016 rxn_smarts="[C:1]([O:2][C:3]([C@@:4]1([H:12])[C:5]([H:13])([H:14])[O:6]1)([H:10])[H:11])([H:7])([H:8])[H:9]>>[C:1]([O:2][C:3]([C@@:4]([C+:5]([H:13])[H:14])([O-:6])[H:12])([H:10])[H:11])([H:7])([H:8])[H:9]"
C       -1.69860152       0.62152208      -0.45624823
O       -0.65277390      -0.33189892      -0.32149224
C       -0.03059837      -0.44107831       1.01025377
C        1.41952586      -0.64756312       0.45319555
C        1.08479125      -0.00133604      -0.84241059
O        2.45153454       0.07892182       0.83921818
H       -2.53060135       0.33334174       0.18837972
H       -1.34791370       1.62001565      -0.18025697
H       -2.02092270       0.60856814      -1.49600597
H       -0.51586911      -1.25136261       1.55295834
H       -0.11198536       0.51227240       1.53749837
H        1.58914576      -1.73946743       0.33763584
H        1.07077221       1.08329287      -0.80809662
H        1.29349638      -0.44522828      -1.81462914
14
Frame=2 idx=002374 GeodesicLength=0.1123215058483941 rxn_smarts="[C:1]([O:2][C:3]([C@@:4]1([H:12])[C:5]([H:13])([H:14])[O:6]1)([H:10])[H:11])([H:7])([H:8])[H:9]>>[C:1]([O:2][C:3]([C@@:4]([C+:5]([H:13])[H:14])([O-:6])[H:12])([H:10])[H:11])([H:7])([H:8])[H:9]"
C       -1.70111757       0.62730139      -0.44958779
O       -0.65686965      -0.33008399      -0.32560151
C       -0.03691270      -0.44566705       1.00536598
C        1.41364034      -0.64939461       0.45751611
C        1.09786639      -0.00499222      -0.84435583
O        2.43334696       0.10577587       0.82604123
H       -2.53272111       0.33604596       0.19436685
H       -1.34386338       1.62140161      -0.16564895
H       -2.02650244       0.62363470      -1.48843469
H       -0.51984532      -1.26277336       1.54037268
H       -0.11967863       0.50122122       1.54388661
H        1.60011982      -1.73845401       0.35061729
H        1.07953375       1.08001768      -0.83635513
H        1.31300354      -0.46403318      -1.80818285
14
Frame=3 idx=002374 GeodesicLength=0.16843815581122842 rxn_smarts="[C:1]([O:2][C:3]([C@@:4]1([H:12])[C:5]([H:13])([H:14])[O:6]1)([H:10])[H:11])([H:7])([H:8])[H:9]>>[C:1]([O:2][C:3]([C@@:4]([C+:5]([H:13])[H:14])([O-:6])[H:12])([H:10])[H:11])([H:7])([H:8])[H:9]"
C       -1.70361886       0.63317591      -0.44281381
O       -0.66106761      -0.32818367      -0.32973796
C       -0.04318419      -0.45031717       1.00033282
C        1.40786709      -0.65079632       0.46166514
C        1.11097565      -0.00858130      -0.84638521
O        2.41456770       0.13221815       0.81315321
H       -2.53480061       0.33890796       0.20051341
H       -1.33965082       1.62274056      -0.15105979
H       -2.03213420       0.63880291      -1.48063602
H       -0.52361477      -1.27435017       1.52742019
H       -0.12755655       0.48979081       1.55033530
H        1.61132423      -1.73673104       0.36396583
H        1.08844047       1.07615585      -0.86529486
H        1.33245247      -0.48283248      -1.80145826
14
Frame=4 idx=002374 GeodesicLength=0.22449736084880512 rxn_smarts="[C:1]([O:2][C:3]([C@@:4]1([H:12])[C:5]([H:13])([H:14])[O:6]1)([H:10])[H:11])([H:7])([H:8])[H:9]>>[C:1]([O:2][C:3]([C@@:4]([C+:5]([H:13])[H:14])([O-:6])[H:12])([H:10])[H:11])([H:7])([H:8])[H:9]"
C       -1.70611408       0.63912544      -0.43594045
O       -0.66537102      -0.32620543      -0.33389192
C       -0.04940945      -0.45500577       0.99516756
C        1.40218709      -0.65181027       0.46562981
C        1.12412211      -0.01207235      -0.84848336
O        2.39524858       0.15820245       0.80051108
H       -2.53684755       0.34191053       0.20681082
H       -1.33529533       1.62402333      -0.13652871
H       -2.03782271       0.65401486      -1.47262709
H       -0.52717585      -1.28603830       1.51414658
H       -0.13558820       0.47801491       1.55681908
H        1.62269835      -1.73432015       0.37764616
H        1.09753424       1.07169442      -0.89479796
H        1.35183380      -0.50153367      -1.79446160
14
Frame=5 idx=002374 GeodesicLength=0.2804888797444919 rxn_smarts="[C:1]([O:2][C:3]([C@@:4]1([H:12])[C:5]([H:13])([H:14])[O:6]1)([H:10])[H:11])([H:7])([H:8])[H:9]>>[C:1]([O:2][C:3]([C@@:4]([C+:5]([H:13])[H:14])([O-:6])[H:12])([H:10])[H:11])([H:7])([H:8])[H:9]"
C       -1.70860374       0.64511849      -0.42898275
O       -0.66977016      -0.32415693      -0.33804204
C       -0.05558084      -0.45969975       0.98988802
C        1.39657607      -0.65250473       0.46940250
C        1.13731973      -0.01543972      -0.85062518
O        2.37545764       0.18369354       0.78808138
H       -2.53885404       0.34501751       0.21324788
H       -1.33083274       1.62523885      -0.12209987
H       -2.04355758       0.66919223      -1.46442508
H       -0.53054151      -1.29775866       1.50061388
H       -0.14372319       0.46595868       1.56329849
H        1.63413731      -1.73129233       0.39157612
H        1.10682768       1.06667944      -0.92472425
H        1.37114538      -0.52004663      -1.78720910
14
Frame=6 idx=002374 GeodesicLength=0.33642258707794426 rxn_smarts="[C:1]([O:2][C:3]([C@@:4]1([H:12])[C:5]([H:13])([H:14])[O:6]1)([H:10])[H:11])([H:7])([H:8])[H:9]>>[C:1]([O:2][C:3]([C@@:4]([C+:5]([H:13])[H:14])([O-:6])[H:12])([H:10])[H:11])([H:7])([H:8])[H:9]"
C       -1.71108936       0.65119312      -0.42192086
O       -0.67429821      -0.32203531      -0.34220986
C       -0.06171753      -0.46443599       0.98447007
C        1.39102971      -0.65283587       0.47298003
C        1.15054286      -0.01871495      -0.85284186
O        2.35512245       0.20878749       0.77581888
H       -2.54083318       0.34827374       0.21983715
H       -1.32622073       1.62639375      -0.10772014
H       -2.04935077       0.68443628      -1.45600633
H       -0.53369515      -1.30958644       1.48674667
H       -0.15200791       0.45353424       1.56978782
H        1.64574240      -1.72753878       0.40585903
H        1.11635689       1.06096861      -0.95512050
H        1.39041851      -0.53843989      -1.77968009
14
Frame=7 idx=002374 GeodesicLength=0.3922885459012941 rxn_smarts="[C:1]([O:2][C:3]([C@@:4]1([H:12])[C:5]([H:13])([H:14])[O:6]1)([H:10])[H:11])([H:7])([H:8])[H:9]>>[C:1]([O:2][C:3]([C@@:4]([C+:5]([H:13])[H:14])([O-:6])[H:12])([H:10])[H:11])([H:7])([H:8])[H:9]"
C       -1.71358475       0.65729803      -0.41477962
O       -0.67893606      -0.31984929      -0.34637757
C       -0.06780543      -0.46916216       0.97893898
C        1.38552800      -0.65288791       0.47635636
C        1.16382215      -0.02185176      -0.85509312
O        2.33437642       0.23339707       0.76367957
H       -2.54278916       0.35161014       0.22655972
H       -1.32152375       1.62747473      -0.09344612
H       -2.05520559       0.69962953      -1.44740414
H       -0.53665594      -1.32140355       1.47264006
H       -0.16036437       0.44084903       1.57623045
H        1.65735066      -1.72318448       0.42038771
H        1.12615140       1.05466907      -0.98579990
H        1.40963644      -0.55658846      -1.77189238
14
Frame=8 idx=002374 GeodesicLength=0.44811044837828207 rxn_smarts="[C:1]([O:2][C:3]([C@@:4]1([H:12])[C:5]([H:13])([H:14])[O:6]1)([H:10])[H:11])([H:7])([H:8])[H:9]>>[C:1]([O:2][C:3]([C@@:4]([C+:5]([H:13])[H:14])([O-:6])[H:12])([H:10])[H:11])([H:7])([H:8])[H:9]"
C       -1.71607761       0.66347382      -0.40753527
O       -0.68371915      -0.31760317      -0.35056322
C       -0.07387432      -0.47392411       0.97327271
C        1.38006118      -0.65260796       0.47952698
C        1.17712221      -0.02489323      -0.85741760
O        2.31313223       0.25765411       0.75159101
H       -2.54472204       0.35507656       0.23343209
H       -1.31668406       1.62848646      -0.07921595
H       -2.06110362       0.71488614      -1.43859292
H       -0.53942152      -1.33330610       1.45820966
H       -0.16885217       0.42779999       1.58265653
H        1.66907122      -1.71810338       0.43527183
H        1.13624189       1.04763979      -1.01681281
H        1.42882577      -0.57457893      -1.76382303
14
Frame=9 idx=002374 GeodesicLength=0.5038613147940312 rxn_smarts="[C:1]([O:2][C:3]([C@@:4]1([H:12])[C:5]([H:13])([H:14])[O:6]1)([H:10])[H:11])([H:7])([H:8])[H:9]>>[C:1]([O:2][C:3]([C@@:4]([C+:5]([H:13])[H:14])([O-:6])[H:12])([H:10])[H:11])([H:7])([H:8])[H:9]"
C       -1.71859263       0.66966541      -0.40021246
O       -0.68862229      -0.31529725      -0.35473928
C       -0.07989454      -0.47865242       0.96749339
C        1.37461146      -0.65210439       0.48247853
C        1.19048327      -0.02779676      -0.85977725
O        2.29149813       0.28141314       0.73957726
H       -2.54663374       0.35860867       0.24044338
H       -1.31179611       1.62941181      -0.06510268
H       -2.06707618       0.73006860      -1.42959519
H       -0.54199539      -1.34514438       1.44356957
H       -0.17738111       0.41452999       1.58898524
H        1.68074714      -1.71243012       0.45036535
H        1.14665331       1.04000191      -1.04796972
H        1.44799868      -0.59227422      -1.75551613
14
Frame=10 idx=002374 GeodesicLength=0.5595693481695665 rxn_smarts="[C:1]([O:2][C:3]([C@@:4]1([H:12])[C:5]([H:13])([H:14])[O:6]1)([H:10])[H:11])([H:7])([H:8])[H:9]>>[C:1]([O:2][C:3]([C@@:4]([C+:5]([H:13])[H:14])([O-:6])[H:12])([H:10])[H:11])([H:7])([H:8])[H:9]"
C       -1.72112242       0.67590965      -0.39279006
O       -0.69368320      -0.31293557      -0.35893695
C       -0.08589730      -0.48339431       0.96157498
C        1.36917459      -0.65131321       0.48520946
C        1.20387430      -0.03060311      -0.86220421
O        2.26941739       0.30479864       0.72753290
H       -2.54853423       0.36224627       0.24760860
H       -1.30679317       1.63025936      -0.05104807
H       -2.07312066       0.74528112      -1.42038937
H       -0.54437702      -1.35701414       1.42862411
H       -0.18599404       0.40092916       1.59524580
H        1.69246048      -1.70603460       0.46579479
H        1.15742357       1.03162974      -1.07928713
H        1.46717170      -0.60975902      -1.74693483
14
Frame=11 idx=002374 GeodesicLength=0.6152231315279246 rxn_smarts="[C:1]([O:2][C:3]([C@@:4]1([H:12])[C:5]([H:13])([H:14])[O:6]1)([H:10])[H:11])([H:7])([H:8])[H:9]>>[C:1]([O:2][C:3]([C@@:4]([C+:5]([H:13])[H:14])([O-:6])[H:12])([H:10])[H:11])([H:7])([H:8])[H:9]"
C       -1.72368790       0.68215496      -0.38529235
O       -0.69887619      -0.31051776      -0.36313020
C       -0.09185701      -0.48808721       0.95554208
C        1.36373594      -0.65033523       0.48770996
C        1.21733658      -0.03325939      -0.86465805
O        2.24698707       0.32767787       0.71548522
H       -2.55041723       0.36593940       0.25492982
H       -1.30175986       1.63101709      -0.03713220
H       -2.07927535       0.76038625      -1.41099815
H       -0.54657462      -1.36878604       1.41348256
H       -0.19461480       0.38713286       1.60136883
H        1.70407019      -1.69905414       0.48141383
H        1.16858631       1.02264291      -1.11060005
H        1.48634687      -0.62691158      -1.73812130
14
Frame=12 idx=002374 GeodesicLength=0.6708386217385984 rxn_smarts="[C:1]([O:2][C:3]([C@@:4]1([H:12])[C:5]([H:13])([H:14])[O:6]1)([H:10])[H:11])([H:7])([H:8])[H:9]>>[C:1]([O:2][C:3]([C@@:4]([C+:5]([H:13])[H:14])([O-:6])[H:12])([H:10])[H:11])([H:7])([H:8])[H:9]"
C       -1.72628600       0.68842309      -0.37770401
O       -0.70422811      -0.30804836      -0.36734202
C       -0.09779830      -0.49276202       0.94937548
C        1.35829207      -0.64913359       0.48997512
C        1.23084707      -0.03580504      -0.86716327
O        2.22418611       0.35014115       0.70334184
H       -2.55228956       0.36970291       0.26241489
H       -1.29666084       1.63168624      -0.02330560
H       -2.08553435       0.77546148      -1.40140578
H       -0.54859574      -1.38052196       1.39808178
H       -0.20327048       0.37307788       1.60737020
H        1.71562239      -1.69140655       0.49731152
H        1.18018029       1.01297278      -1.14190237
H        1.50553545      -0.64378801      -1.72904780
14
Frame=13 idx=002374 GeodesicLength=0.7264552330915327 rxn_smarts="[C:1]([O:2][C:3]([C@@:4]1([H:12])[C:5]([H:13])([H:14])[O:6]1)([H:10])[H:11])([H:7])([H:8])[H:9]>>[C:1]([O:2][C:3]([C@@:4]([C+:5]([H:13])[H:14])([O-:6])[H:12])([H:10])[H:11])([H:7])([H:8])[H:9]"
C       -1.72891758       0.69473623      -0.37000044
O       -0.70975360      -0.30551796      -0.37157983
C       -0.10372663      -0.49743952       0.94305274
C        1.35283027      -0.64769673       0.49201190
C        1.24440652      -0.03828319      -0.86974126
O        2.20094483       0.37226353       0.69106484
H       -2.55415695       0.37354448       0.27006750
H       -1.29149328       1.63226553      -0.00950296
H       -2.09188859       0.79059091      -1.39158135
H       -0.55042703      -1.39225164       1.38236390
H       -0.21197305       0.35870896       1.61323544
H        1.72714658      -1.68302490       0.51354832
H        1.19221156       1.00256737      -1.17323348
H        1.52479694      -0.66046307      -1.71970531
14
Frame=14 idx=002374 GeodesicLength=0.7820989083826007 rxn_smarts="[C:1]([O:2][C:3]([C@@:4]1([H:12])[C:5]([H:13])([H:14])[O:6]1)([H:10])[H:11])([H:7])([H:8])[H:9]>>[C:1]([O:2][C:3]([C@@:4]([C+:5]([H:13])[H:14])([O-:6])[H:12])([H:10])[H:11])([H:7])([H:8])[H:9]"
C       -1.73157375       0.70111994      -0.36216176
O       -0.71546892      -0.30292143      -0.37586052
C       -0.10966456      -0.50215342       0.93655672
C        1.34734932      -0.64599840       0.49382246
C        1.25801127      -0.04073358      -0.87241141
O        2.17722453       0.39415149       0.67857240
H       -2.55602026       0.37747756       0.27789644
H       -1.28623010       1.63276097       0.00432905
H       -2.09832441       0.80585511      -1.38150203
H       -0.55208096      -1.40404399       1.36626089
H       -0.22075415       0.34396677       1.61898280
H        1.73868668      -1.67384080       0.53019497
H        1.20468751       0.99137217      -1.20461866
H        1.54415781      -0.67701240      -1.71006132
14
Frame=15 idx=002374 GeodesicLength=0.8378062922522415 rxn_smarts="[C:1]([O:2][C:3]([C@@:4]1([H:12])[C:5]([H:13])([H:14])[O:6]1)([H:10])[H:11])([H:7])([H:8])[H:9]>>[C:1]([O:2][C:3]([C@@:4]([C+:5]([H:13])[H:14])([O-:6])[H:12])([H:10])[H:11])([H:7])([H:8])[H:9]"
C       -1.73424334       0.70760130      -0.35415747
O       -0.72139064      -0.30024762      -0.38020186
C       -0.11562995      -0.50693816       0.92985830
C        1.34183841      -0.64400615       0.49541343
C        1.27165359      -0.04320502      -0.87519771
O        2.15294370       0.41591003       0.66578495
H       -2.55787408       0.38151602       0.28591333
H       -1.28084397       1.63316675       0.01826611
H       -2.10481924       0.82135141      -1.37112856
H       -0.55355095      -1.41595855       1.34968123
H       -0.22964884       0.32876936       1.62461536
H        1.75028236      -1.66375348       0.54734754
H        1.21762495       0.97931421      -1.23611130
H        1.56365799      -0.69352010      -1.70008335
14
Frame=16 idx=002374 GeodesicLength=0.8935552848617903 rxn_smarts="[C:1]([O:2][C:3]([C@@:4]1([H:12])[C:5]([H:13])([H:14])[O:6]1)([H:10])[H:11])([H:7])([H:8])[H:9]>>[C:1]([O:2][C:3]([C@@:4]([C+:5]([H:13])[H:14])([O-:6])[H:12])([H:10])[H:11])([H:7])([H:8])[H:9]"
C       -1.73695703       0.71412446      -0.34601670
O       -0.72750903      -0.29750491      -0.38458722
C       -0.12159814      -0.51172660       0.92298035
C        1.33628759      -0.64180289       0.49676244
C        1.28536064      -0.04564101      -0.87806107
O        2.12821539       0.43734460       0.65270027
H       -2.55972498       0.38561039       0.29412434
H       -1.27540256       1.63346841       0.03221188
H       -2.11143244       0.83693404      -1.36048658
H       -0.55484042      -1.42785845       1.33274087
H       -0.23855987       0.31325045       1.63006297
H        1.76178515      -1.65285559       0.56486961
H        1.23108406       0.96649491      -1.26750167
H        1.58329165      -0.70983782      -1.68979949
