14
Frame=0 idx=007801 GeodesicLength=0.0 rxn_smarts="[C:1]([C:2]1=[C:3]([H:11])[N:4]([H:12])[C:5](=[O:6])[C:7]1([H:13])[H:14])([H:8])([H:9])[H:10]>>[C:1]([C:2]1=[C:3]([H:11])[O:6]/[C:5](=[N:4]\[H:12])[C:7]1([H:13])[H:14])([H:8])([H:9])[H:10]"
C       -1.98296506       0.57496451      -0.42816910
C       -0.56428019       0.21524798      -0.17082977
C        0.48555099       0.95617899       0.03126343
N        1.84089920      -0.39898247       1.44381382
C        1.51636280      -0.56048781       0.17659981
O        2.12936982      -0.12126992      -0.85846993
C        0.08553861      -1.14393102      -0.06880566
H       -2.30179420       0.15959682      -1.38649150
H       -2.13076072       1.65390869      -0.44949675
H       -2.62212873       0.14900728       0.34782252
H        1.02960511       1.87886961       0.10026744
H        2.75381689       0.05790431       1.47446660
H       -0.27535448      -1.71232405       0.78643881
H        0.03614001      -1.70868290      -0.99840971
14
Frame=1 idx=007801 GeodesicLength=0.15664131744518695 rxn_smarts="[C:1]([C:2]1=[C:3]([H:11])[N:4]([H:12])[C:5](=[O:6])[C:7]1([H:13])[H:14])([H:8])([H:9])[H:10]>>[C:1]([C:2]1=[C:3]([H:11])[O:6]/[C:5](=[N:4]\[H:12])[C:7]1([H:13])[H:14])([H:8])([H:9])[H:10]"
C       -1.99137586       0.57103923      -0.45378743
C       -0.57593433       0.22371051      -0.16167929
C        0.46633019       0.97540130       0.04745620
N        1.91727796      -0.49705033       1.41267111
C        1.51497404      -0.54166287       0.16148854
O        2.13706190      -0.02040001      -0.83156759
C        0.08285926      -1.12836227      -0.03403995
H       -2.29576429       0.12355405      -1.40385105
H       -2.14014541       1.64990749      -0.51545632
H       -2.64140043       0.16760927       0.32658013
H        0.96681965       1.92330994       0.11300810
H        2.83157513      -0.04498833       1.45495629
H       -0.28652396      -1.68046228       0.82943231
H        0.01424616      -1.72160570      -0.94521105
14
Frame=2 idx=007801 GeodesicLength=0.3156926495412726 rxn_smarts="[C:1]([C:2]1=[C:3]([H:11])[N:4]([H:12])[C:5](=[O:6])[C:7]1([H:13])[H:14])([H:8])([H:9])[H:10]>>[C:1]([C:2]1=[C:3]([H:11])[O:6]/[C:5](=[N:4]\[H:12])[C:7]1([H:13])[H:14])([H:8])([H:9])[H:10]"
C       -2.00043529       0.56719143      -0.48020174
C       -0.58763465       0.23473356      -0.15528983
C        0.44561481       0.99841894       0.06136127
N        1.99285655      -0.60479379       1.36979837
C        1.51361380      -0.51980200       0.15140048
O        2.14869030       0.08135237      -0.79088300
C        0.08223875      -1.11085522       0.00278973
H       -2.28978092       0.08493779      -1.42255796
H       -2.15187945       1.64754089      -0.58324062
H       -2.66023746       0.18535810       0.30722114
H        0.89719275       1.97448142       0.12320965
H        2.90947325      -0.15815711       1.42800314
H       -0.29601602      -1.64593114       0.87639491
H       -0.00369640      -1.73447524      -0.88800555
14
Frame=3 idx=007801 GeodesicLength=0.4723709619160248 rxn_smarts="[C:1]([C:2]1=[C:3]([H:11])[N:4]([H:12])[C:5](=[O:6])[C:7]1([H:13])[H:14])([H:8])([H:9])[H:10]>>[C:1]([C:2]1=[C:3]([H:11])[O:6]/[C:5](=[N:4]\[H:12])[C:7]1([H:13])[H:14])([H:8])([H:9])[H:10]"
C       -2.00922300       0.56262315      -0.50577599
C       -0.59748160       0.24715079      -0.15327689
C        0.42493567       1.02489600       0.07046758
N        2.06349258      -0.72025935       1.31310443
C        1.51150399      -0.49341489       0.14908176
O        2.16426491       0.18342846      -0.73049805
C        0.08379913      -1.09130341       0.03997967
H       -2.28639377       0.04595915      -1.43963486
H       -2.16509515       1.64405869      -0.64777087
H       -2.67518417       0.20136660       0.29002359
H        0.82455396       2.03039629       0.12329348
H        2.98175287      -0.27877026       1.39586828
H       -0.30369300      -1.60913161       0.92356164
H       -0.01723242      -1.74699961      -0.82842377
14
Frame=4 idx=007801 GeodesicLength=0.625259035955435 rxn_smarts="[C:1]([C:2]1=[C:3]([H:11])[N:4]([H:12])[C:5](=[O:6])[C:7]1([H:13])[H:14])([H:8])([H:9])[H:10]>>[C:1]([C:2]1=[C:3]([H:11])[O:6]/[C:5](=[N:4]\[H:12])[C:7]1([H:13])[H:14])([H:8])([H:9])[H:10]"
C       -2.01695056       0.55403296      -0.52913400
C       -0.60353470       0.25984167      -0.15753230
C        0.40646831       1.05679945       0.07239738
N        2.12688125      -0.84238664       1.24159052
C        1.50810992      -0.45875550       0.15545130
O        2.18245154       0.29140755      -0.64557782
C        0.08477901      -1.06862348       0.07433156
H       -2.29455842       0.00288964      -1.44868749
H       -2.17350705       1.63267922      -0.70954124
H       -2.68253752       0.21480837       0.27583541
H        0.75884869       2.09091397       0.10917579
H        3.04794235      -0.40591148       1.36547567
H       -0.31303816      -1.57076940       0.96531327
H       -0.03135465      -1.75692633      -0.76909808
14
Frame=5 idx=007801 GeodesicLength=0.777965221658342 rxn_smarts="[C:1]([C:2]1=[C:3]([H:11])[N:4]([H:12])[C:5](=[O:6])[C:7]1([H:13])[H:14])([H:8])([H:9])[H:10]>>[C:1]([C:2]1=[C:3]([H:11])[O:6]/[C:5](=[N:4]\[H:12])[C:7]1([H:13])[H:14])([H:8])([H:9])[H:10]"
C       -2.02876288       0.53977197      -0.55333027
C       -0.61041646       0.27525835      -0.16559938
C        0.38669268       1.09585441       0.06620472
N        2.18787271      -0.96415942       1.15921405
C        1.50775460      -0.41401155       0.17836379
O        2.20936159       0.40912493      -0.52740807
C        0.08686976      -1.03383836       0.11294018
H       -2.30173408      -0.03866907      -1.45544499
H       -2.19020934       1.60926984      -0.76785030
H       -2.69756954       0.21482693       0.25540341
H        0.68849321       2.15595729       0.07232157
H        3.12514300      -0.58127849       1.31605067
H       -0.32503801      -1.51637062       1.00970753
H       -0.03845725      -1.75173619      -0.70057290
14
Frame=6 idx=007801 GeodesicLength=0.9503525795603723 rxn_smarts="[C:1]([C:2]1=[C:3]([H:11])[N:4]([H:12])[C:5](=[O:6])[C:7]1([H:13])[H:14])([H:8])([H:9])[H:10]>>[C:1]([C:2]1=[C:3]([H:11])[O:6]/[C:5](=[N:4]\[H:12])[C:7]1([H:13])[H:14])([H:8])([H:9])[H:10]"
C       -2.02860204       0.52605968      -0.57602477
C       -0.61738418       0.29370854      -0.16885356
C        0.35698008       1.13636722       0.05987740
N        2.24208335      -1.09418400       1.02824799
C        1.50286310      -0.36556669       0.23694997
O        2.23699651       0.52682535      -0.35291937
C        0.09071857      -0.99238665       0.16154846
H       -2.27275095      -0.08416235      -1.45314275
H       -2.20197717       1.57457717      -0.82940048
H       -2.70789286       0.22915151       0.22991290
H        0.58661988       2.19988512       0.01366879
H        3.18547409      -0.76522758       1.21656349
H       -0.33946762      -1.44839889       1.05875830
H       -0.03366076      -1.73664842      -0.62518638
14
Frame=7 idx=007801 GeodesicLength=1.2386011857462567 rxn_smarts="[C:1]([C:2]1=[C:3]([H:11])[N:4]([H:12])[C:5](=[O:6])[C:7]1([H:13])[H:14])([H:8])([H:9])[H:10]>>[C:1]([C:2]1=[C:3]([H:11])[O:6]/[C:5](=[N:4]\[H:12])[C:7]1([H:13])[H:14])([H:8])([H:9])[H:10]"
C       -2.05846407       0.51829414      -0.60667274
C       -0.63223404       0.31230177      -0.18512518
C        0.34128418       1.18882403       0.02252268
N        2.31400175      -1.20515318       0.93649312
C        1.51857504      -0.32220145       0.31745828
O        2.29131278       0.65553364      -0.12588337
C        0.09029129      -0.96806248       0.21201590
H       -2.28160368      -0.11563983      -1.47341581
H       -2.24985920       1.56911151      -0.87679965
H       -2.75267302       0.22229226       0.19668742
H        0.51148754       2.26875754      -0.06855762
H        3.31153053      -0.97047345       1.08747217
H       -0.36567026      -1.41016788       1.11245871
H       -0.03797884      -1.74341662      -0.54865389
14
Frame=8 idx=007801 GeodesicLength=1.4316430117770689 rxn_smarts="[C:1]([C:2]1=[C:3]([H:11])[N:4]([H:12])[C:5](=[O:6])[C:7]1([H:13])[H:14])([H:8])([H:9])[H:10]>>[C:1]([C:2]1=[C:3]([H:11])[O:6]/[C:5](=[N:4]\[H:12])[C:7]1([H:13])[H:14])([H:8])([H:9])[H:10]"
C       -2.04273293       0.50177603      -0.61826914
C       -0.62230525       0.31953855      -0.19013970
C        0.34959865       1.20333592      -0.04035426
N        2.31671141      -1.25795722       0.78308722
C        1.50121667      -0.28182871       0.42876769
O        2.26722417       0.75320917       0.19904751
C        0.09086461      -0.93498074       0.25796329
H       -2.26250269      -0.13461546      -1.48169601
H       -2.24796229       1.54048577      -0.89049430
H       -2.72553937       0.20364434       0.18231780
H        0.47829371       2.26528110      -0.19598651
H        3.31133383      -1.08641308       0.90142965
H       -0.37427600      -1.35853838       1.15641378
H       -0.03992453      -1.73293728      -0.49208702
14
Frame=9 idx=007801 GeodesicLength=1.593453823930969 rxn_smarts="[C:1]([C:2]1=[C:3]([H:11])[N:4]([H:12])[C:5](=[O:6])[C:7]1([H:13])[H:14])([H:8])([H:9])[H:10]>>[C:1]([C:2]1=[C:3]([H:11])[O:6]/[C:5](=[N:4]\[H:12])[C:7]1([H:13])[H:14])([H:8])([H:9])[H:10]"
C       -2.02476184       0.49952810      -0.60153575
C       -0.59971852       0.31540649      -0.20996230
C        0.41261808       1.17528565      -0.20590855
N        2.32965361      -1.24906448       0.53518647
C        1.46731278      -0.27533754       0.54581200
O        2.16883180       0.81412460       0.61745580
C        0.08205893      -0.93665977       0.27479501
H       -2.26902714      -0.14668597      -1.45573892
H       -2.23062687       1.53988558      -0.86728943
H       -2.69216583       0.21287589       0.22497431
H        0.51027915       2.23873432      -0.36718064
H        3.29005496      -1.07685572       0.81650195
H       -0.41622619      -1.35057871       1.16840498
H       -0.02828293      -1.76065844      -0.47551493
14
Frame=10 idx=007801 GeodesicLength=1.8720019149399365 rxn_smarts="[C:1]([C:2]1=[C:3]([H:11])[N:4]([H:12])[C:5](=[O:6])[C:7]1([H:13])[H:14])([H:8])([H:9])[H:10]>>[C:1]([C:2]1=[C:3]([H:11])[O:6]/[C:5](=[N:4]\[H:12])[C:7]1([H:13])[H:14])([H:8])([H:9])[H:10]"
C       -2.00450546       0.52004820      -0.61254482
C       -0.57787847       0.30564847      -0.23038060
C        0.46052568       1.13532504      -0.28165135
N        2.35251245      -1.16583531       0.34428642
C        1.41876276      -0.31501808       0.68810966
O        2.02453765       0.80159674       0.93947731
C        0.06865436      -0.98005561       0.32450170
H       -2.25894079      -0.15642776      -1.45449804
H       -2.18775868       1.58306803      -0.90532706
H       -2.68522349       0.26809581       0.24408753
H        0.55189195       2.21871944      -0.47312994
H        3.31543045      -0.99009176       0.61139957
H       -0.47100292      -1.38469144       1.22258924
H       -0.00700549      -1.84038178      -0.41691962
14
Frame=11 idx=007801 GeodesicLength=2.0855641368700097 rxn_smarts="[C:1]([C:2]1=[C:3]([H:11])[N:4]([H:12])[C:5](=[O:6])[C:7]1([H:13])[H:14])([H:8])([H:9])[H:10]>>[C:1]([C:2]1=[C:3]([H:11])[O:6]/[C:5](=[N:4]\[H:12])[C:7]1([H:13])[H:14])([H:8])([H:9])[H:10]"
C       -1.98592326       0.54332826      -0.62263178
C       -0.56003037       0.28457493      -0.24441312
C        0.50134750       1.07126333      -0.30575815
N        2.35845023      -1.05680720       0.21035582
C        1.39377921      -0.39324631       0.79448259
O        1.89205735       0.74454360       1.17577048
C        0.06008890      -1.01576557       0.36274191
H       -2.26582081      -0.14925094      -1.44789597
H       -2.14797748       1.60964265      -0.94983799
H       -2.66127213       0.33823060       0.25454820
H        0.59101519       2.15631047      -0.55508529
H        3.32187912      -0.85007919       0.43995164
H       -0.49904039      -1.40135421       1.25737456
H        0.00144694      -1.88139041      -0.36960291
14
Frame=12 idx=007801 GeodesicLength=2.2803465783024603 rxn_smarts="[C:1]([C:2]1=[C:3]([H:11])[N:4]([H:12])[C:5](=[O:6])[C:7]1([H:13])[H:14])([H:8])([H:9])[H:10]>>[C:1]([C:2]1=[C:3]([H:11])[O:6]/[C:5](=[N:4]\[H:12])[C:7]1([H:13])[H:14])([H:8])([H:9])[H:10]"
C       -1.96566045       0.54954929      -0.63913988
C       -0.54161184       0.26217327      -0.24502591
C        0.54203496       1.02045231      -0.29494287
N        2.34857759      -0.95148150       0.08988768
C        1.39400475      -0.46720098       0.85318584
O        1.79670724       0.67449088       1.33473383
C        0.04268289      -1.02809629       0.40054593
H       -2.26418124      -0.15427501      -1.44582940
H       -2.10515404       1.60306969      -0.99721163
H       -2.64418766       0.39184632       0.23867392
H        0.62803032       2.09142174      -0.56435377
H        3.31700375      -0.71884070       0.28795286
H       -0.53341423      -1.37516553       1.29098724
H       -0.01483206      -1.89794348      -0.30946384
14
Frame=13 idx=007801 GeodesicLength=2.482456782793811 rxn_smarts="[C:1]([C:2]1=[C:3]([H:11])[N:4]([H:12])[C:5](=[O:6])[C:7]1([H:13])[H:14])([H:8])([H:9])[H:10]>>[C:1]([C:2]1=[C:3]([H:11])[O:6]/[C:5](=[N:4]\[H:12])[C:7]1([H:13])[H:14])([H:8])([H:9])[H:10]"
C       -1.93965675       0.54608050      -0.65251974
C       -0.52265581       0.24575313      -0.23728654
C        0.57855496       0.98855989      -0.27327985
N        2.32143187      -0.84739884      -0.01536708
C        1.40259527      -0.53445108       0.88283899
O        1.72111563       0.60053101       1.45078246
C        0.02010188      -1.03438629       0.43327037
H       -2.25366424      -0.16957377      -1.43910227
H       -2.05263265       1.58096055      -1.03935563
H       -2.62480384       0.43256740       0.21567970
H        0.66602681       2.04439740      -0.55649848
H        3.29634380      -0.59888784       0.16179833
H       -0.56587491      -1.34233755       1.32334671
H       -0.04688202      -1.91181451      -0.25430696
14
Frame=14 idx=007801 GeodesicLength=2.7349704663686536 rxn_smarts="[C:1]([C:2]1=[C:3]([H:11])[N:4]([H:12])[C:5](=[O:6])[C:7]1([H:13])[H:14])([H:8])([H:9])[H:10]>>[C:1]([C:2]1=[C:3]([H:11])[O:6]/[C:5](=[N:4]\[H:12])[C:7]1([H:13])[H:14])([H:8])([H:9])[H:10]"
C       -1.89023829       0.53236074      -0.66309894
C       -0.49589633       0.23582515      -0.21171143
C        0.60992997       0.97544674      -0.23713545
N        2.25439504      -0.73877955      -0.11380507
C        1.40195380      -0.59674268       0.88257099
O        1.65014518       0.51280177       1.51989192
C       -0.00748257      -1.03611452       0.47235868
H       -2.19860949      -0.19115388      -1.43196564
H       -1.97171424       1.54977206      -1.07299123
H       -2.59665686       0.44418195       0.17902016
H        0.70686863       2.01724507      -0.53605493
H        3.22471272      -0.47515753       0.03028491
H       -0.59354679      -1.30958742       1.36329856
H       -0.09386078      -1.92009789      -0.18066253
14
Frame=15 idx=007801 GeodesicLength=2.9613508850704178 rxn_smarts="[C:1]([C:2]1=[C:3]([H:11])[N:4]([H:12])[C:5](=[O:6])[C:7]1([H:13])[H:14])([H:8])([H:9])[H:10]>>[C:1]([C:2]1=[C:3]([H:11])[O:6]/[C:5](=[N:4]\[H:12])[C:7]1([H:13])[H:14])([H:8])([H:9])[H:10]"
C       -1.84939994       0.52164076      -0.67497746
C       -0.47427309       0.23242849      -0.18376781
C        0.63463015       0.97200603      -0.19694391
N        2.18897454      -0.64117105      -0.19275421
C        1.41002631      -0.65894506       0.87093121
O        1.59981153       0.41599477       1.57838511
C       -0.02794548      -1.03654612       0.50912025
H       -2.14810005      -0.21192045      -1.43112375
H       -1.90604788       1.52324829      -1.10852497
H       -2.57616602       0.45559323       0.14269482
H        0.73628733       1.99900249      -0.52592194
H        3.15527798      -0.36589315      -0.07829423
H       -0.60711663      -1.27665548       1.40618431
H       -0.13595875      -1.92878275      -0.11500741
14
Frame=16 idx=007801 GeodesicLength=3.1710853923043842 rxn_smarts="[C:1]([C:2]1=[C:3]([H:11])[N:4]([H:12])[C:5](=[O:6])[C:7]1([H:13])[H:14])([H:8])([H:9])[H:10]>>[C:1]([C:2]1=[C:3]([H:11])[O:6]/[C:5](=[N:4]\[H:12])[C:7]1([H:13])[H:14])([H:8])([H:9])[H:10]"
C       -1.81669664       0.51503584      -0.68720469
C       -0.45771971       0.23512800      -0.15474454
C        0.65408948       0.97623673      -0.15534999
N        2.12623433      -0.55040049      -0.25394003
C        1.42357555      -0.72080579       0.85132899
O        1.56367077       0.31109957       1.63095498
C       -0.04219307      -1.03736063       0.54395916
H       -2.10219023      -0.23082164      -1.43402563
H       -1.85361158       1.50295845      -1.14673830
H       -2.56358000       0.46876952       0.10992372
H        0.75790929       1.98502891      -0.53168360
H        3.09135869      -0.26831136      -0.16658820
H       -0.61025154      -1.24795891       1.45211798
H       -0.17059534      -1.93859821      -0.05800986
