16
Frame=0 idx=006157 GeodesicLength=0.0 rxn_smarts="[O:1]([C:2]([C:3]1([H:10])[C:4]([H:11])([H:12])[C:5]([H:13])([H:14])[C:6]1([H:15])[H:16])([H:8])[H:9])[H:7]>>[O:1]=[C:2]([C:3]([C:4]([C:5]([C:6]([H:7])([H:15])[H:16])([H:13])[H:14])([H:11])[H:12])([H:8])[H:10])[H:9]"
O        2.37695429       0.37671017       0.20493156
C        1.62589520      -0.65606486       0.56822648
C        0.43518715      -0.71510414      -0.29938098
C       -0.99024970      -0.95679080       0.02305972
C       -1.41172991       0.45508374      -0.41700000
C       -0.19617458       1.33672526      -0.04301280
H        0.96831377       1.01957791      -0.14730479
H        2.05694085      -1.66614140       0.30445594
H        1.34614556      -0.73454875       1.63903270
H        0.68820110      -0.67430427      -1.35812692
H       -1.13761716      -1.11363177       1.09214208
H       -1.45887365      -1.76136367      -0.54315275
H       -1.56189914       0.45938204      -1.49765115
H       -2.33457948       0.80075521       0.04961263
H       -0.21668855       1.55639300       1.02698213
H       -0.18982573       2.27332240      -0.60281385
16
Frame=1 idx=006157 GeodesicLength=0.10530395822713763 rxn_smarts="[O:1]([C:2]([C:3]1([H:10])[C:4]([H:11])([H:12])[C:5]([H:13])([H:14])[C:6]1([H:15])[H:16])([H:8])[H:9])[H:7]>>[O:1]=[C:2]([C:3]([C:4]([C:5]([C:6]([H:7])([H:15])[H:16])([H:13])[H:14])([H:11])[H:12])([H:8])[H:10])[H:9]"
O        2.38330612       0.37992118       0.21823740
C        1.62894676      -0.65066729       0.57507616
C        0.44262445      -0.71503296      -0.30068420
C       -0.98448686      -0.95549218       0.02611041
C       -1.41346303       0.45240486      -0.41875325
C       -0.19874044       1.33466777      -0.04617724
H        0.99386044       1.04206080      -0.14189786
H        2.01115312      -1.68559001       0.27366438
H        1.34655769      -0.73254518       1.64449899
H        0.69652342      -0.67533016      -1.35921098
H       -1.12885430      -1.10822668       1.09641251
H       -1.45200653      -1.76449826      -0.53466129
H       -1.56457474       0.45476631      -1.49937850
H       -2.33767757       0.79446493       0.04787275
H       -0.22391982       1.55679421       1.02352615
H       -0.19924872       2.27230265      -0.60463543
16
Frame=2 idx=006157 GeodesicLength=0.2106802980629635 rxn_smarts="[O:1]([C:2]([C:3]1([H:10])[C:4]([H:11])([H:12])[C:5]([H:13])([H:14])[C:6]1([H:15])[H:16])([H:8])[H:9])[H:7]>>[O:1]=[C:2]([C:3]([C:4]([C:5]([C:6]([H:7])([H:15])[H:16])([H:13])[H:14])([H:11])[H:12])([H:8])[H:10])[H:9]"
O        2.38954852       0.38271817       0.23082440
C        1.63212462      -0.64602081       0.58097280
C        0.44981692      -0.71523288      -0.30247669
C       -0.97895885      -0.95433686       0.02882740
C       -1.41531552       0.44971518      -0.42034077
C       -0.20113762       1.33226017      -0.04923800
H        1.01961365       1.06477066      -0.13541716
H        1.96594377      -1.70334466       0.24546103
H        1.34676490      -0.72959736       1.64913583
H        0.70445900      -0.67641309      -1.36080938
H       -1.12013931      -1.10320948       1.10031352
H       -1.44554700      -1.76753755      -0.52661111
H       -1.56758545       0.45044101      -1.50090335
H       -2.34069993       0.78820568       0.04661348
H       -0.23089629       1.55679587       1.02015720
H       -0.20799143       2.27078596      -0.60650918
16
Frame=3 idx=006157 GeodesicLength=0.31609988386036586 rxn_smarts="[O:1]([C:2]([C:3]1([H:10])[C:4]([H:11])([H:12])[C:5]([H:13])([H:14])[C:6]1([H:15])[H:16])([H:8])[H:9])[H:7]>>[O:1]=[C:2]([C:3]([C:4]([C:5]([C:6]([H:7])([H:15])[H:16])([H:13])[H:14])([H:11])[H:12])([H:8])[H:10])[H:9]"
O        2.39565309       0.38519383       0.24277833
C        1.63540109      -0.64199893       0.58600583
C        0.45676937      -0.71567409      -0.30470061
C       -0.97365842      -0.95330177       0.03125640
C       -1.41729593       0.44701671      -0.42179726
C       -0.20340874       1.32954754      -0.05222655
H        1.04557445       1.08776707      -0.12778860
H        1.92135638      -1.71965222       0.21953506
H        1.34685864      -0.72593718       1.65301126
H        0.71203646      -0.67757173      -1.36286094
H       -1.11147701      -1.09851099       1.10389809
H       -1.43946516      -1.77049579      -0.51893007
H       -1.57090983       0.44635815      -1.50226622
H       -2.34367748       0.78198511       0.04575511
H       -0.23767808       1.55647300       1.01683924
H       -0.21607882       2.26880128      -0.60850907
16
Frame=4 idx=006157 GeodesicLength=0.421587482807954 rxn_smarts="[O:1]([C:2]([C:3]1([H:10])[C:4]([H:11])([H:12])[C:5]([H:13])([H:14])[C:6]1([H:15])[H:16])([H:8])[H:9])[H:7]>>[O:1]=[C:2]([C:3]([C:4]([C:5]([C:6]([H:7])([H:15])[H:16])([H:13])[H:14])([H:11])[H:12])([H:8])[H:10])[H:9]"
O        2.40160738       0.38743969       0.25418036
C        1.63875499      -0.63848518       0.59025809
C        0.46348411      -0.71633499      -0.30730305
C       -0.96858547      -0.95236401       0.03344235
C       -1.41941314       0.44431076      -0.42315296
C       -0.20558763       1.32656649      -0.05517504
H        1.07173480       1.11111488      -0.11892926
H        1.87746233      -1.73474423       0.19556789
H        1.34689794      -0.72177370       1.65619597
H        0.71927999      -0.67883523      -1.36530926
H       -1.10287786      -1.09406101       1.10721571
H       -1.43374610      -1.77338520      -0.51154376
H       -1.57453080       0.44246849      -1.50350070
H       -2.34663938       0.77581285       0.04522462
H       -0.24431507       1.55589428       1.01353390
H       -0.22352608       2.26637611      -0.61070487
16
Frame=5 idx=006157 GeodesicLength=0.5270780049901952 rxn_smarts="[O:1]([C:2]([C:3]1([H:10])[C:4]([H:11])([H:12])[C:5]([H:13])([H:14])[C:6]1([H:15])[H:16])([H:8])[H:9])[H:7]>>[O:1]=[C:2]([C:3]([C:4]([C:5]([C:6]([H:7])([H:15])[H:16])([H:13])[H:14])([H:11])[H:12])([H:8])[H:10])[H:9]"
O        2.40738990       0.38952818       0.26508040
C        1.64216701      -0.63539382       0.59379500
C        0.46996278      -0.71721040      -0.31023716
C       -0.96373944      -0.95151030       0.03542407
C       -1.42167057       0.44159533      -0.42443276
C       -0.20769726       1.32333893      -0.05810821
H        1.09809222       1.13485667      -0.10871364
H        1.83427940      -1.74874278       0.17326867
H        1.34693406      -0.71725072       1.65873760
H        0.72620511      -0.68023807      -1.36810600
H       -1.09434914      -1.08980737       1.11031009
H       -1.42837878      -1.77621872      -0.50438896
H       -1.57842968       0.43872997      -1.50463585
H       -2.34960308       0.76969787       0.04496295
H       -0.25084833       1.55511519       1.01020942
H       -0.23031420       2.26351005      -0.61316563
16
Frame=6 idx=006157 GeodesicLength=0.6325749230732847 rxn_smarts="[O:1]([C:2]([C:3]1([H:10])[C:4]([H:11])([H:12])[C:5]([H:13])([H:14])[C:6]1([H:15])[H:16])([H:8])[H:9])[H:7]>>[O:1]=[C:2]([C:3]([C:4]([C:5]([C:6]([H:7])([H:15])[H:16])([H:13])[H:14])([H:11])[H:12])([H:8])[H:10])[H:9]"
O        2.41299903       0.39151324       0.27553200
C        1.64562050      -0.63264097       0.59667795
C        0.47620754      -0.71828599      -0.31346652
C       -0.95911816      -0.95072474       0.03723481
C       -1.42407413       0.43886977      -0.42565586
C       -0.20976480       1.31988943      -0.06105042
H        1.12464572       1.15904405      -0.09708154
H        1.79184879      -1.76180743       0.15239955
H        1.34699720      -0.71250193       1.66068929
H        0.73282548      -0.68180863      -1.37121372
H       -1.08589521      -1.08570138       1.11321715
H       -1.42335070      -1.77900407      -0.49740993
H       -1.58259646       0.43510703      -1.50569321
H       -2.35258749       0.76364444       0.04492360
H       -0.25730222       1.55418160       1.00683622
H       -0.23645509       2.26022557      -0.61593938
16
Frame=7 idx=006157 GeodesicLength=0.7381005696388506 rxn_smarts="[O:1]([C:2]([C:3]1([H:10])[C:4]([H:11])([H:12])[C:5]([H:13])([H:14])[C:6]1([H:15])[H:16])([H:8])[H:9])[H:7]>>[O:1]=[C:2]([C:3]([C:4]([C:5]([C:6]([H:7])([H:15])[H:16])([H:13])[H:14])([H:11])[H:12])([H:8])[H:10])[H:9]"
O        2.41842823       0.39344814       0.28557306
C        1.64910093      -0.63015178       0.59896162
C        0.48222171      -0.71955538      -0.31695392
C       -0.95471843      -0.94999655       0.03890728
C       -1.42662617       0.43612944      -0.42684007
C       -0.21181165       1.31623450      -0.06402561
H        1.15140197       1.18371822      -0.08393691
H        1.75016516      -1.77405460       0.13271425
H        1.34711973      -0.70763085       1.66209682
H        0.73915433      -0.68357490      -1.37459379
H       -1.07751898      -1.08170085       1.11597196
H       -1.41865007      -1.78175090      -0.49055168
H       -1.58701806       0.43156196      -1.50669203
H       -2.35560572       0.75765459       0.04506413
H       -0.26369716       1.55313571       1.00338454
H       -0.24194583       2.25653325      -0.61907967
16
Frame=8 idx=006157 GeodesicLength=0.8435911862375113 rxn_smarts="[O:1]([C:2]([C:3]1([H:10])[C:4]([H:11])([H:12])[C:5]([H:13])([H:14])[C:6]1([H:15])[H:16])([H:8])[H:9])[H:7]>>[O:1]=[C:2]([C:3]([C:4]([C:5]([C:6]([H:7])([H:15])[H:16])([H:13])[H:14])([H:11])[H:12])([H:8])[H:10])[H:9]"
O        2.42365766       0.39538513       0.29522248
C        1.65259925      -0.62786683       0.60068326
C        0.48800559      -0.72102497      -0.32067197
C       -0.95054093      -0.94931733       0.04047047
C       -1.42932556       0.43337177      -0.42800132
C       -0.21384793       1.31238526      -0.06705681
H        1.17835034       1.20891146      -0.06915902
H        1.70923791      -1.78556442       0.11400738
H        1.34733164      -0.70271957       1.66299083
H        0.74519513      -0.68557362      -1.37822009
H       -1.06922180      -1.07776767       1.11860641
H       -1.41427576      -1.78446697      -0.48376309
H       -1.59168114       0.42806399      -1.50765055
H       -2.35866462       0.75173682       0.04534822
H       -0.27005035       1.55201520       0.99982438
H       -0.24676943       2.25243173      -0.62263056
16
Frame=9 idx=006157 GeodesicLength=0.9487221691185965 rxn_smarts="[O:1]([C:2]([C:3]1([H:10])[C:4]([H:11])([H:12])[C:5]([H:13])([H:14])[C:6]1([H:15])[H:16])([H:8])[H:9])[H:7]>>[O:1]=[C:2]([C:3]([C:4]([C:5]([C:6]([H:7])([H:15])[H:16])([H:13])[H:14])([H:11])[H:12])([H:8])[H:10])[H:9]"
O        2.42859215       0.39744649       0.30445049
C        1.65610799      -0.62572387       0.60185612
C        0.49354530      -0.72276303      -0.32457976
C       -0.94660619      -0.94867831       0.04197378
C       -1.43213786       0.43060110      -0.42916523
C       -0.21582197       1.30832218      -0.07015342
H        1.20535461       1.23450449      -0.05242720
H        1.66915159      -1.79624461       0.09591154
H        1.34765983      -0.69777956       1.66338886
H        0.75091062      -0.68791899      -1.38205909
H       -1.06101427      -1.07384288       1.12117272
H       -1.41027717      -1.78715231      -0.47695241
H       -1.59651739       0.42458584      -1.50859631
H       -2.36173729       0.74593588       0.04570410
H       -0.27642745       1.55086489       0.99612599
H       -0.25078250       2.24784268      -0.62665017
16
Frame=10 idx=006157 GeodesicLength=1.0538349708632837 rxn_smarts="[O:1]([C:2]([C:3]1([H:10])[C:4]([H:11])([H:12])[C:5]([H:13])([H:14])[C:6]1([H:15])[H:16])([H:8])[H:9])[H:7]>>[O:1]=[C:2]([C:3]([C:4]([C:5]([C:6]([H:7])([H:15])[H:16])([H:13])[H:14])([H:11])[H:12])([H:8])[H:10])[H:9]"
O        2.43327506       0.39963197       0.31329728
C        1.65962640      -0.62366302       0.60251854
C        0.49885915      -0.72471314      -0.32867224
C       -0.94288718      -0.94807412       0.04341947
C       -1.43509316       0.42780548      -0.43033189
C       -0.21780262       1.30408177      -0.07334534
H        1.23253543       1.26064002      -0.03379269
H        1.62978526      -1.80635185       0.07842916
H        1.34813863      -0.69291963       1.66332065
H        0.75633345      -0.69055369      -1.38610170
H       -1.05287432      -1.06991996       1.12367321
H       -1.40659717      -1.78982002      -0.47011613
H       -1.60157235       0.42109736      -1.50952910
H       -2.36485931       0.74021597       0.04614449
H       -0.28278965       1.54971093       0.99226264
H       -0.25407761       2.24283193      -0.63117634
16
Frame=11 idx=006157 GeodesicLength=1.1589742886382526 rxn_smarts="[O:1]([C:2]([C:3]1([H:10])[C:4]([H:11])([H:12])[C:5]([H:13])([H:14])[C:6]1([H:15])[H:16])([H:8])[H:9])[H:7]>>[O:1]=[C:2]([C:3]([C:4]([C:5]([C:6]([H:7])([H:15])[H:16])([H:13])[H:14])([H:11])[H:12])([H:8])[H:10])[H:9]"
O        2.43769726       0.40198883       0.32176368
C        1.66314938      -0.62162605       0.60269517
C        0.50395045      -0.72687877      -0.33292916
C       -0.93937938      -0.94749944       0.04483054
C       -1.43819236       0.42497837      -0.43151022
C       -0.21980171       1.29966963      -0.07665419
H        1.25990086       1.28732740      -0.01312523
H        1.59110435      -1.81596052       0.06138690
H        1.34878855      -0.68817442       1.66281040
H        0.76146135      -0.69349825      -1.39032963
H       -1.04479518      -1.06597151       1.12613105
H       -1.40323037      -1.79247656      -0.46321095
H       -1.60684235       0.41756895      -1.51045752
H       -2.36803558       0.73457603       0.04664902
H       -0.28914252       1.54858390       0.98820557
H       -0.25663277       2.23739239      -0.63625543
16
Frame=12 idx=006157 GeodesicLength=1.264158513057803 rxn_smarts="[O:1]([C:2]([C:3]1([H:10])[C:4]([H:11])([H:12])[C:5]([H:13])([H:14])[C:6]1([H:15])[H:16])([H:8])[H:9])[H:7]>>[O:1]=[C:2]([C:3]([C:4]([C:5]([C:6]([H:7])([H:15])[H:16])([H:13])[H:14])([H:11])[H:12])([H:8])[H:10])[H:9]"
O        2.44182810       0.40458530       0.32984432
C        1.66667890      -0.61955623       0.60239862
C        0.50882287      -0.72927123      -0.33733377
C       -0.93607775      -0.94694813       0.04623095
C       -1.44143109       0.42211546      -0.43270994
C       -0.22182211       1.29509059      -0.08010266
H        1.28743937       1.31456300       0.00972831
H        1.55307417      -1.82515251       0.04462387
H        1.34963857      -0.68358115       1.66187311
H        0.76628815      -0.69677900      -1.39472944
H       -1.03676495      -1.06196688       1.12857095
H       -1.40017533      -1.79512606      -0.45618945
H       -1.61231907       0.41397310      -1.51139112
H       -2.37126469       0.72902100       0.04719746
H       -0.29549216       1.54751691       0.98392305
H       -0.25842298       2.23151584      -0.64193425
16
Frame=13 idx=006157 GeodesicLength=1.3694081553515656 rxn_smarts="[O:1]([C:2]([C:3]1([H:10])[C:4]([H:11])([H:12])[C:5]([H:13])([H:14])[C:6]1([H:15])[H:16])([H:8])[H:9])[H:7]>>[O:1]=[C:2]([C:3]([C:4]([C:5]([C:6]([H:7])([H:15])[H:16])([H:13])[H:14])([H:11])[H:12])([H:8])[H:10])[H:9]"
O        2.44563872       0.40749260       0.33752806
C        1.67021925      -0.61739977       0.60163792
C        0.51348072      -0.73190744      -0.34186889
C       -0.93297702      -0.94641530       0.04764532
C       -1.44480361       0.41921084      -0.43394107
C       -0.22386408       1.29034639      -0.08371618
H        1.31513217       1.34232731       0.03493826
H        1.51564263      -1.83397983       0.02797337
H        1.35071812      -0.67916466       1.66052028
H        0.77080546      -0.70042461      -1.39928788
H       -1.02877027      -1.05787483       1.13101803
H       -1.39743252      -1.79777297      -0.44900114
H       -1.61799353       0.41027959      -1.51233958
H       -2.37454320       0.72355589       0.04776969
H       -0.30183769       1.54654143       0.97937989
H       -0.25941513       2.22518535      -0.64825606
16
Frame=14 idx=006157 GeodesicLength=1.4747064598082835 rxn_smarts="[O:1]([C:2]([C:3]1([H:10])[C:4]([H:11])([H:12])[C:5]([H:13])([H:14])[C:6]1([H:15])[H:16])([H:8])[H:9])[H:7]>>[O:1]=[C:2]([C:3]([C:4]([C:5]([C:6]([H:7])([H:15])[H:16])([H:13])[H:14])([H:11])[H:12])([H:8])[H:10])[H:9]"
O        2.44910312       0.41076259       0.34480039
C        1.67377329      -0.61511626       0.60041169
C        0.51792585      -0.73480111      -0.34652850
C       -0.93007288      -0.94589839       0.04908945
C       -1.44831004       0.41625852      -0.43520940
C       -0.22593273       1.28543811      -0.08752021
H        1.34298803       1.37059509       0.06265365
H        1.47877164      -1.84247858       0.01133648
H        1.35204936      -0.67493210       1.65875434
H        0.77500060      -0.70445004      -1.40400287
H       -1.02079747      -1.05367440       1.13348737
H       -1.39500318      -1.80042097      -0.44160944
H       -1.62386897       0.40646448      -1.51330746
H       -2.37787034       0.71818236       0.04835818
H       -0.30816702       1.54568131       0.97454313
H       -0.25958925       2.21838940      -0.65525681
16
Frame=15 idx=006157 GeodesicLength=1.5800283029918887 rxn_smarts="[O:1]([C:2]([C:3]1([H:10])[C:4]([H:11])([H:12])[C:5]([H:13])([H:14])[C:6]1([H:15])[H:16])([H:8])[H:9])[H:7]>>[O:1]=[C:2]([C:3]([C:4]([C:5]([C:6]([H:7])([H:15])[H:16])([H:13])[H:14])([H:11])[H:12])([H:8])[H:10])[H:9]"
O        2.45218534       0.41446599       0.35164322
C        1.67734840      -0.61266260       0.59871194
C        0.52216067      -0.73797022      -0.35130655
C       -0.92736008      -0.94539317       0.05058116
C       -1.45194730       0.41325347      -0.43652222
C       -0.22802822       1.28036649      -0.09154446
H        1.37099667       1.39931932       0.09304531
H        1.44241737      -1.85068289      -0.00538773
H        1.35366103      -0.67089553       1.65657228
H        0.77885906      -0.70887497      -1.40887294
H       -1.01282901      -1.04933913       1.13599597
H       -1.39288972      -1.80307217      -0.43397141
H       -1.62994627       0.40250221      -1.51430040
H       -2.38124151       0.71290576       0.04895379
H       -0.31446468       1.54496326       0.96937437
H       -0.25892172       2.21111416      -0.66297235
16
Frame=16 idx=006157 GeodesicLength=1.6853565462592703 rxn_smarts="[O:1]([C:2]([C:3]1([H:10])[C:4]([H:11])([H:12])[C:5]([H:13])([H:14])[C:6]1([H:15])[H:16])([H:8])[H:9])[H:7]>>[O:1]=[C:2]([C:3]([C:4]([C:5]([C:6]([H:7])([H:15])[H:16])([H:13])[H:14])([H:11])[H:12])([H:8])[H:10])[H:9]"
O        2.45484239       0.41868210       0.35804229
C        1.68095480      -0.60999559       0.59652579
C        0.52618920      -0.74143430      -0.35619854
C       -0.92483159      -0.94489478       0.05213810
C       -1.45571154       0.41019058      -0.43788689
C       -0.23014941       1.27513289      -0.09582238
H        1.39914691       1.42843672       0.12628423
H        1.40652679      -1.85862446      -0.02228996
H        1.35558632      -0.66706886       1.65396689
H        0.78236606      -0.71371569      -1.41389854
H       -1.00484369      -1.04484047       1.13856050
H       -1.39109415      -1.80572764      -0.42604216
H       -1.63622719       0.39836582      -1.51532371
H       -2.38465039       0.70773189       0.04954883
H       -0.32070892       1.54441378       0.96383173
H       -0.25739559       2.20334802      -0.67143616
