13
Frame=0 idx=009976 GeodesicLength=0.0 rxn_smarts="[C:1]([C@@:2]([O:3][H:12])([C:4](=[O:5])[C:6]#[C:7][H:13])[H:11])([H:8])([H:9])[H:10]>>[C:1]([C:2](=[O:3])[H:11])([H:8])([H:9])[H:10].[C:4](=[O:5])=[C:6]=[C:7]([H:12])[H:13]"
C       -1.62459401       0.44410949      -0.16398641
C       -0.29930894       0.63681601       0.54392332
O       -0.03407086      -0.13884268       1.52879570
C        0.88032358       0.46581163      -1.00873580
O        0.74685297       1.31327837      -1.81149191
C        1.55435266      -0.69341433      -0.69453882
C        1.62790200      -1.49421028       0.28565811
H       -2.42158808       0.69409181       0.53914900
H       -1.75211266      -0.60122657      -0.45166486
H       -1.71686072       1.08329433      -1.04077188
H        0.04516328       1.67455475       0.64741412
H        0.79196369      -1.00359181       1.12633921
H        2.20197712      -2.38067073       0.49991018
13
Frame=1 idx=009976 GeodesicLength=0.1288703754029502 rxn_smarts="[C:1]([C@@:2]([O:3][H:12])([C:4](=[O:5])[C:6]#[C:7][H:13])[H:11])([H:8])([H:9])[H:10]>>[C:1]([C:2](=[O:3])[H:11])([H:8])([H:9])[H:10].[C:4](=[O:5])=[C:6]=[C:7]([H:12])[H:13]"
C       -1.65325672       0.48400888      -0.16088642
C       -0.31510183       0.60794106       0.53680852
O       -0.07599857      -0.18756559       1.51406068
C        0.86632555       0.42335697      -1.02173673
O        0.72203486       1.23611731      -1.85910546
C        1.62664792      -0.66911079      -0.66858553
C        1.68718558      -1.49285929       0.29312952
H       -2.43647603       0.74615684       0.55323383
H       -1.82169522      -0.54720676      -0.47641271
H       -1.72856202       1.15557379      -1.01501148
H        0.05525230       1.63455444       0.66675023
H        0.75660906      -1.05566991       1.10982036
H        2.31703514      -2.33529697       0.52793520
13
Frame=2 idx=009976 GeodesicLength=0.25143932264296476 rxn_smarts="[C:1]([C@@:2]([O:3][H:12])([C:4](=[O:5])[C:6]#[C:7][H:13])[H:11])([H:8])([H:9])[H:10]>>[C:1]([C:2](=[O:3])[H:11])([H:8])([H:9])[H:10].[C:4](=[O:5])=[C:6]=[C:7]([H:12])[H:13]"
C       -1.67888611       0.52447401      -0.15808775
C       -0.33220723       0.57762327       0.53071230
O       -0.11991281      -0.24126722       1.49643661
C        0.85360774       0.38004924      -1.03300580
O        0.69339906       1.15208526      -1.90654936
C        1.68702224      -0.64567740      -0.64559911
C        1.74775300      -1.48603055       0.30176785
H       -2.44910925       0.79673050       0.56637280
H       -1.88777472      -0.48939375      -0.50355777
H       -1.73318024       1.22879594      -0.98732777
H        0.06472147       1.59095893       0.68948204
H        0.72760756      -1.10558443       1.09116321
H        2.42695929      -2.28276381       0.55819276
13
Frame=3 idx=009976 GeodesicLength=0.3689200046053992 rxn_smarts="[C:1]([C@@:2]([O:3][H:12])([C:4](=[O:5])[C:6]#[C:7][H:13])[H:11])([H:8])([H:9])[H:10]>>[C:1]([C:2](=[O:3])[H:11])([H:8])([H:9])[H:10].[C:4](=[O:5])=[C:6]=[C:7]([H:12])[H:13]"
C       -1.70113206       0.56531130      -0.15561071
C       -0.35045822       0.54618114       0.52553635
O       -0.16591218      -0.29916789       1.47563422
C        0.84239359       0.33760394      -1.04219660
O        0.66014659       1.06077945      -1.95353810
C        1.73651640      -0.62431129      -0.62677749
C        1.80881708      -1.47333783       0.31218817
H       -2.45937732       0.84553905       0.57832529
H       -1.94942353      -0.42779098      -0.53311663
H       -1.73032679       1.30212520      -0.95762615
H        0.07303294       1.54394570       0.71596731
H        0.70448111      -1.15293437       1.07207816
H        2.53124240      -2.22394343       0.58913617
13
Frame=4 idx=009976 GeodesicLength=0.48319662557239224 rxn_smarts="[C:1]([C@@:2]([O:3][H:12])([C:4](=[O:5])[C:6]#[C:7][H:13])[H:11])([H:8])([H:9])[H:10]>>[C:1]([C:2](=[O:3])[H:11])([H:8])([H:9])[H:10].[C:4](=[O:5])=[C:6]=[C:7]([H:12])[H:13]"
C       -1.72013643       0.60637081      -0.15308791
C       -0.36977368       0.51396526       0.52106609
O       -0.21359707      -0.36055716       1.45136168
C        0.83233657       0.29676269      -1.05009292
O        0.62314300       0.96285572      -1.99947914
C        1.77811376      -0.60402479      -0.61177257
C        1.86851955      -1.45640181       0.32291823
H       -2.46732037       0.89345980       0.58953795
H       -2.00668433      -0.36291715      -0.56340710
H       -1.72006769       1.37392253      -0.92665072
H        0.07961515       1.49381841       0.74602930
H        0.68560354      -1.19857682       1.05262530
H        2.63024798      -2.15867748       0.62095180
13
Frame=5 idx=009976 GeodesicLength=0.5951607570385392 rxn_smarts="[C:1]([C@@:2]([O:3][H:12])([C:4](=[O:5])[C:6]#[C:7][H:13])[H:11])([H:8])([H:9])[H:10]>>[C:1]([C:2](=[O:3])[H:11])([H:8])([H:9])[H:10].[C:4](=[O:5])=[C:6]=[C:7]([H:12])[H:13]"
C       -1.73565270       0.64821288      -0.15051118
C       -0.39012884       0.48082840       0.51727748
O       -0.26350937      -0.42609133       1.42242212
C        0.82376267       0.25854006      -1.05648279
O        0.57976667       0.85467347      -2.04435290
C        1.81381807      -0.58402358      -0.59995224
C        1.92723360      -1.43408469       0.33470073
H       -2.47274942       0.94087867       0.59998756
H       -2.05928767      -0.29363163      -0.59518356
H       -1.70196779       1.44485871      -0.89370660
H        0.08449960       1.43981201       0.78036921
H        0.66967654      -1.24329719       1.03249997
H        2.72453864      -2.08667580       0.65293220
13
Frame=6 idx=009976 GeodesicLength=0.7041436796557328 rxn_smarts="[C:1]([C@@:2]([O:3][H:12])([C:4](=[O:5])[C:6]#[C:7][H:13])[H:11])([H:8])([H:9])[H:10]>>[C:1]([C:2](=[O:3])[H:11])([H:8])([H:9])[H:10].[C:4](=[O:5])=[C:6]=[C:7]([H:12])[H:13]"
C       -1.74766228       0.68950358      -0.14718685
C       -0.41108730       0.44762588       0.51383913
O       -0.31396112      -0.49347524       1.38883235
C        0.81587208       0.22336224      -1.06243747
O        0.53510781       0.74045278      -2.08531146
C        1.84424812      -0.56328576      -0.59109694
C        1.98217087      -1.40901459       0.34442704
H       -2.47477446       0.98850491       0.61038451
H       -2.10719372      -0.22264884      -0.62454539
H       -1.67652548       1.51043560      -0.86106189
H        0.08703522       1.38307974       0.81775557
H        0.65519305      -1.28702842       1.01081249
H        2.81157721      -2.00751188       0.68558891
13
Frame=7 idx=009976 GeodesicLength=0.8112969191038387 rxn_smarts="[C:1]([C@@:2]([O:3][H:12])([C:4](=[O:5])[C:6]#[C:7][H:13])[H:11])([H:8])([H:9])[H:10]>>[C:1]([C:2](=[O:3])[H:11])([H:8])([H:9])[H:10].[C:4](=[O:5])=[C:6]=[C:7]([H:12])[H:13]"
C       -1.75635970       0.72988898      -0.14332163
C       -0.43253598       0.41507367       0.51073744
O       -0.36451640      -0.56114433       1.35094350
C        0.80918502       0.19188171      -1.06805401
O        0.48904605       0.62050967      -2.12076979
C        1.87045519      -0.54192351      -0.58474740
C        2.03406094      -1.38024852       0.35350760
H       -2.47392650       1.03577418       0.62040132
H       -2.14988051      -0.15067561      -0.65178563
H       -1.64510937       1.57038738      -0.82915887
H        0.08680655       1.32443098       0.85756502
H        0.64171704      -1.32908419       0.98857499
H        2.89105767      -1.92487040       0.71610746
13
Frame=8 idx=009976 GeodesicLength=0.9178082749316656 rxn_smarts="[C:1]([C@@:2]([O:3][H:12])([C:4](=[O:5])[C:6]#[C:7][H:13])[H:11])([H:8])([H:9])[H:10]>>[C:1]([C:2](=[O:3])[H:11])([H:8])([H:9])[H:10].[C:4](=[O:5])=[C:6]=[C:7]([H:12])[H:13]"
C       -1.76237764       0.76929085      -0.13859403
C       -0.45449977       0.38316366       0.50765185
O       -0.41493839      -0.62853962       1.30863720
C        0.80299314       0.16313878      -1.07433364
O        0.44442587       0.49676072      -2.14995276
C        1.89318878      -0.51956497      -0.58052586
C        2.08301877      -1.34826962       0.36168213
H       -2.47003553       1.08353715       0.63090461
H       -2.18860187      -0.07830295      -0.67561479
H       -1.60889358       1.62400031      -0.79885235
H        0.08379242       1.26376819       0.89885176
H        0.62845247      -1.36995999       0.96537811
H        2.96347533      -1.83902251       0.74476778
13
Frame=9 idx=009976 GeodesicLength=1.0231198007257218 rxn_smarts="[C:1]([C@@:2]([O:3][H:12])([C:4](=[O:5])[C:6]#[C:7][H:13])[H:11])([H:8])([H:9])[H:10]>>[C:1]([C:2](=[O:3])[H:11])([H:8])([H:9])[H:10].[C:4](=[O:5])=[C:6]=[C:7]([H:12])[H:13]"
C       -1.76581151       0.80719104      -0.13255697
C       -0.47660188       0.35189471       0.50411514
O       -0.46466966      -0.69450724       1.26196570
C        0.79658244       0.13602812      -1.08181218
O        0.40439237       0.37199095      -2.17249119
C        1.91235767      -0.49603556      -0.57813441
C        2.12806428      -1.31456985       0.36756008
H       -2.46206466       1.13173074       0.64278396
H       -2.22416888      -0.00657998      -0.69455875
H       -1.56877769       1.67025169      -0.77048382
H        0.07844731       1.20120735       0.94016133
H        0.61427813      -1.40987359       0.94052184
H        3.02797208      -1.74872839       0.77292927
13
Frame=10 idx=009976 GeodesicLength=1.1281255665377539 rxn_smarts="[C:1]([C@@:2]([O:3][H:12])([C:4](=[O:5])[C:6]#[C:7][H:13])[H:11])([H:8])([H:9])[H:10]>>[C:1]([C:2](=[O:3])[H:11])([H:8])([H:9])[H:10].[C:4](=[O:5])=[C:6]=[C:7]([H:12])[H:13]"
C       -1.76712735       0.84320354      -0.12558719
C       -0.49873190       0.32204134       0.50022556
O       -0.51314017      -0.75712880       1.21259443
C        0.79014695       0.10968662      -1.09043471
O        0.36939172       0.24877921      -2.18821042
C        1.92841967      -0.47237906      -0.57725374
C        2.17001481      -1.27860318       0.37290533
H       -2.45117036       1.17895495       0.65555098
H       -2.25603510       0.06362396      -0.70962389
H       -1.52684763       1.70995623      -0.74395053
H        0.07067190       1.13819597       0.98029878
H        0.59901191      -1.44832359       0.91545416
H        3.08539555      -1.65800719       0.79803124
13
Frame=11 idx=009976 GeodesicLength=1.2336305497014668 rxn_smarts="[C:1]([C@@:2]([O:3][H:12])([C:4](=[O:5])[C:6]#[C:7][H:13])[H:11])([H:8])([H:9])[H:10]>>[C:1]([C:2](=[O:3])[H:11])([H:8])([H:9])[H:10].[C:4](=[O:5])=[C:6]=[C:7]([H:12])[H:13]"
C       -1.76662680       0.87758296      -0.11747081
C       -0.52084596       0.29328701       0.49583478
O       -0.56058507      -0.81643150       1.16082115
C        0.78346031       0.08325598      -1.10041581
O        0.34037782       0.12749777      -2.19850833
C        1.94171830      -0.44853074      -0.57770520
C        2.20911966      -1.24109396       0.37720554
H       -2.43713190       1.22541925       0.66984903
H       -2.28511935       0.13259391      -0.72060327
H       -1.48369890       1.74376058      -0.71899700
H        0.06083385       1.07443018       1.01881445
H        0.58208090      -1.48603160       0.88973750
H        3.13641713      -1.56573985       0.82143798
13
Frame=12 idx=009976 GeodesicLength=1.3398500012716295 rxn_smarts="[C:1]([C@@:2]([O:3][H:12])([C:4](=[O:5])[C:6]#[C:7][H:13])[H:11])([H:8])([H:9])[H:10]>>[C:1]([C:2](=[O:3])[H:11])([H:8])([H:9])[H:10].[C:4](=[O:5])=[C:6]=[C:7]([H:12])[H:13]"
C       -1.76434397       0.91050365      -0.10827019
C       -0.54293218       0.26553234       0.49094110
O       -0.60723560      -0.87226964       1.10703919
C        0.77650167       0.05626485      -1.11159212
O        0.31709736       0.00773909      -2.20399897
C        1.95239734      -0.42458893      -0.57926249
C        2.24570614      -1.20183707       0.38076740
H       -2.42005070       1.27073623       0.68565985
H       -2.31139093       0.20061307      -0.72807662
H       -1.43959867       1.77260426      -0.69500756
H        0.04909932       1.00990186       1.05548066
H        0.56309313      -1.52332249       0.86332738
H        3.18165708      -1.47187722       0.84299236
13
Frame=13 idx=009976 GeodesicLength=1.4470423159956332 rxn_smarts="[C:1]([C@@:2]([O:3][H:12])([C:4](=[O:5])[C:6]#[C:7][H:13])[H:11])([H:8])([H:9])[H:10]>>[C:1]([C:2](=[O:3])[H:11])([H:8])([H:9])[H:10].[C:4](=[O:5])=[C:6]=[C:7]([H:12])[H:13]"
C       -1.76024187       0.94218181      -0.09797985
C       -0.56496903       0.23860489       0.48555063
O       -0.65337568      -0.92467787       1.05156454
C        0.76925125       0.02830147      -1.12391581
O        0.29922282      -0.11102059      -2.20519781
C        1.96056424      -0.40071134      -0.58191340
C        2.28006504      -1.16088804       0.38352543
H       -2.39993964       1.31471966       0.70304444
H       -2.33483856       0.26809691      -0.73246572
H       -1.39459871       1.79727481      -0.67143939
H        0.03566835       0.94444363       1.09018062
H        0.54164921      -1.56071453       0.83592603
H        3.22154258      -1.37561080       0.86312029
13
Frame=14 idx=009976 GeodesicLength=1.555453186289466 rxn_smarts="[C:1]([C@@:2]([O:3][H:12])([C:4](=[O:5])[C:6]#[C:7][H:13])[H:11])([H:8])([H:9])[H:10]>>[C:1]([C:2](=[O:3])[H:11])([H:8])([H:9])[H:10].[C:4](=[O:5])=[C:6]=[C:7]([H:12])[H:13]"
C       -1.75414878       0.97286331      -0.08653460
C       -0.58694205       0.21224858       0.47965083
O       -0.69936713      -0.97387894       0.99449099
C        0.76170312      -0.00089531      -1.13743723
O        0.28632168      -0.22972825      -2.20230564
C        1.96628380      -0.37693349      -0.58576540
C        2.31246268      -1.11815337       0.38527566
H       -2.37659073       1.35736541       0.72214247
H       -2.35542892       0.33555855      -0.73398983
H       -1.34843076       1.81836830      -0.64783193
H        0.02074060       0.87767507       1.12289925
H        0.51733042      -1.59885279       0.80689331
H        3.25606607      -1.27563708       0.88251212
13
Frame=15 idx=009976 GeodesicLength=1.6652188552812857 rxn_smarts="[C:1]([C@@:2]([O:3][H:12])([C:4](=[O:5])[C:6]#[C:7][H:13])[H:11])([H:8])([H:9])[H:10]>>[C:1]([C:2](=[O:3])[H:11])([H:8])([H:9])[H:10].[C:4](=[O:5])=[C:6]=[C:7]([H:12])[H:13]"
C       -1.74599538       1.00266587      -0.07402854
C       -0.60899740       0.18636160       0.47330812
O       -0.74563643      -1.01987874       0.93608361
C        0.75384368      -0.03159183      -1.15195671
O        0.27832161      -0.34910731      -2.19512741
C        1.96957353      -0.35298123      -0.59054672
C        2.34315776      -1.07286985       0.38640024
H       -2.35011051       1.39853963       0.74277221
H       -2.37294180       0.40329816      -0.73309039
H       -1.30092060       1.83628789      -0.62388049
H        0.00413742       0.80950919       1.15368341
H        0.48983957      -1.63792981       0.77619000
H        3.28572856      -1.17230357       0.90019267
13
Frame=16 idx=009976 GeodesicLength=1.7764623941856477 rxn_smarts="[C:1]([C@@:2]([O:3][H:12])([C:4](=[O:5])[C:6]#[C:7][H:13])[H:11])([H:8])([H:9])[H:10]>>[C:1]([C:2](=[O:3])[H:11])([H:8])([H:9])[H:10].[C:4](=[O:5])=[C:6]=[C:7]([H:12])[H:13]"
C       -1.73551299       1.03173210      -0.06042973
C       -0.63121018       0.16069333       0.46652629
O       -0.79266576      -1.06287200       0.87636916
C        0.74560658      -0.06420487      -1.16746122
O        0.27503329      -0.46973703      -2.18341036
C        1.97033075      -0.32893608      -0.59636936
C        2.37226363      -1.02458462       0.38685039
H       -2.32024793       1.43824586       0.76496362
H       -2.38713538       0.47178133      -0.72997116
H       -1.25160019       1.85130259      -0.59923100
H       -0.01412812       0.73953209       1.18253578
H        0.45872733      -1.67843253       0.74342587
H        3.31053897      -1.06452018       0.91620172
