15
Frame=0 idx=009023 GeodesicLength=0.0 rxn_smarts="[C:1]([C@@:2]12[O:3][C@@:4]3([H:11])[C:5]([H:12])([H:13])[C@:6]1([H:14])[C@@:7]23[H:15])([H:8])([H:9])[H:10]>>[C:1]([C@:6]1([H:14])[C:5]([H:12])([H:13])[C@:4]2([H:11])[O+:3]=[C-:2][C@@:7]21[H:15])([H:8])([H:9])[H:10]"
C        1.69097405      -0.24664070      -0.41167247
C        0.70180225       1.12062378       0.43952033
O       -0.17479107       1.63862046      -0.51333077
C       -1.27938781       0.89071605       0.00054462
C       -1.14098387      -0.54094721      -0.55379408
C       -0.01356920      -0.72088754       0.43284932
C       -0.43276350       0.44790980       1.21741528
H        2.05134218       0.49940988      -1.11610185
H        2.47938123      -0.46972746       0.30115007
H        1.49073593      -1.13759358      -1.02532302
H       -2.22695092       1.42481751      -0.01351796
H       -2.00337941      -1.13396041      -0.24343514
H       -0.95244396      -0.66818027      -1.62217366
H        0.38121576      -1.64799134       0.82243640
H       -0.57118171       0.54383100       2.28543288
15
Frame=1 idx=009023 GeodesicLength=0.04326365973592622 rxn_smarts="[C:1]([C@@:2]12[O:3][C@@:4]3([H:11])[C:5]([H:12])([H:13])[C@:6]1([H:14])[C@@:7]23[H:15])([H:8])([H:9])[H:10]>>[C:1]([C@:6]1([H:14])[C:5]([H:12])([H:13])[C@:4]2([H:11])[O+:3]=[C-:2][C@@:7]21[H:15])([H:8])([H:9])[H:10]"
C        1.69968974      -0.25008728      -0.40926216
C        0.69521484       1.12250997       0.42582722
O       -0.18679480       1.64147864      -0.51904668
C       -1.28656446       0.88963876       0.00353434
C       -1.14838675      -0.54070759      -0.55320849
C       -0.01073286      -0.71853427       0.42439460
C       -0.42907163       0.45189668       1.21471057
H        2.07122398       0.49698737      -1.10723359
H        2.47882726      -0.47551551       0.31342917
H        1.51479188      -1.13692340      -1.03294164
H       -2.23476560       1.42255732      -0.00305897
H       -2.00693494      -1.13825638      -0.24131496
H       -0.96601911      -0.66168820      -1.62329801
H        0.36761902      -1.64871031       0.82337409
H       -0.55809656       0.54535419       2.28409452
15
Frame=2 idx=009023 GeodesicLength=0.08653261609101792 rxn_smarts="[C:1]([C@@:2]12[O:3][C@@:4]3([H:11])[C:5]([H:12])([H:13])[C@:6]1([H:14])[C@@:7]23[H:15])([H:8])([H:9])[H:10]>>[C:1]([C@:6]1([H:14])[C:5]([H:12])([H:13])[C@:4]2([H:11])[O+:3]=[C-:2][C@@:7]21[H:15])([H:8])([H:9])[H:10]"
C        1.70844750      -0.25358634      -0.40680174
C        0.68856599       1.12426064       0.41171116
O       -0.19905834       1.64432819      -0.52484392
C       -1.29378869       0.88851163       0.00661254
C       -1.15597439      -0.54049055      -0.55261356
C       -0.00796591      -0.71626333       0.41565113
C       -0.42520629       0.45587548       1.21179624
H        2.09137312       0.49464641      -1.09780790
H        2.47800291      -0.48137839       0.32583892
H        1.53956666      -1.13613941      -1.04035181
H       -2.24257443       1.42023887       0.00770779
H       -2.01063799      -1.14254109      -0.23913703
H       -0.97997917      -0.65521184      -1.62437318
H        0.35376174      -1.64918875       0.82411535
H       -0.54453272       0.54693848       2.28249602
15
Frame=3 idx=009023 GeodesicLength=0.12980436084139355 rxn_smarts="[C:1]([C@@:2]12[O:3][C@@:4]3([H:11])[C:5]([H:12])([H:13])[C@:6]1([H:14])[C@@:7]23[H:15])([H:8])([H:9])[H:10]>>[C:1]([C@:6]1([H:14])[C:5]([H:12])([H:13])[C@:4]2([H:11])[O+:3]=[C-:2][C@@:7]21[H:15])([H:8])([H:9])[H:10]"
C        1.71724252      -0.25714097      -0.40428987
C        0.68185071       1.12586444       0.39715604
O       -0.21158479       1.64716588      -0.53072217
C       -1.30105553       0.88733421       0.00978101
C       -1.16375492      -0.54029687      -0.55200783
C       -0.00527551      -0.71408313       0.40660774
C       -0.42115926       0.45984416       1.20865934
H        2.11177517       0.49239259      -1.08779288
H        2.47688899      -0.48731203       0.33837713
H        1.56508756      -1.13523396      -1.04752592
H       -2.25036275       1.41786442       0.01879220
H       -2.01449875      -1.14681034      -0.23689648
H       -0.99434151      -0.64875201      -1.62539572
H        0.33965463      -1.64941805       0.82464461
H       -0.53046658       0.54858168       2.28061281
15
Frame=4 idx=009023 GeodesicLength=0.17307651164801421 rxn_smarts="[C:1]([C@@:2]12[O:3][C@@:4]3([H:11])[C:5]([H:12])([H:13])[C@:6]1([H:14])[C@@:7]23[H:15])([H:8])([H:9])[H:10]>>[C:1]([C@:6]1([H:14])[C:5]([H:12])([H:13])[C@:4]2([H:11])[O+:3]=[C-:2][C@@:7]21[H:15])([H:8])([H:9])[H:10]"
C        1.72607271      -0.26075175      -0.40172451
C        0.67506418       1.12731279       0.38214736
O       -0.22437525       1.64999009      -0.53668132
C       -1.30835979       0.88610659       0.01304207
C       -1.17173482      -0.54012659      -0.55138952
C       -0.00266672      -0.71200053       0.39725180
C       -0.41692162       0.46380058       1.20528764
H        2.13241197       0.49022860      -1.07716164
H        2.47547176      -0.49331291       0.35104288
H        1.59137668      -1.13420550      -1.05443719
H       -2.25811941       1.41543768       0.03020327
H       -2.01852481      -1.15106033      -0.23458771
H       -1.00912375      -0.64230799      -1.62636186
H        0.32531244      -1.64939190       0.82494407
H       -0.51588359       0.55028116       2.27842466
15
Frame=5 idx=009023 GeodesicLength=0.21634776180407086 rxn_smarts="[C:1]([C@@:2]12[O:3][C@@:4]3([H:11])[C:5]([H:12])([H:13])[C@:6]1([H:14])[C@@:7]23[H:15])([H:8])([H:9])[H:10]>>[C:1]([C@:6]1([H:14])[C:5]([H:12])([H:13])[C@:4]2([H:11])[O+:3]=[C-:2][C@@:7]21[H:15])([H:8])([H:9])[H:10]"
C        1.73493408      -0.26442295      -0.39910594
C        0.66820112       1.12859380       0.36666771
O       -0.23743043       1.65279646      -0.54272072
C       -1.31569386       0.88482828       0.01639803
C       -1.17992231      -0.53998045      -0.55075657
C       -0.00014660      -0.71002513       0.38757059
C       -0.41248149       0.46774113       1.20166721
H        2.15326360       0.48815998      -1.06588326
H        2.47372738      -0.49937361       0.36383634
H        1.61846074      -1.13304382      -1.06105403
H       -2.26582758       1.41296262       0.04195139
H       -2.02272649      -1.15528629      -0.23220417
H       -1.02434417      -0.63588016      -1.62726712
H        0.31074908      -1.64910471       0.82499519
H       -0.50076304       0.55203485       2.27590535
15
Frame=6 idx=009023 GeodesicLength=0.25961472345252573 rxn_smarts="[C:1]([C@@:2]12[O:3][C@@:4]3([H:11])[C:5]([H:12])([H:13])[C@:6]1([H:14])[C@@:7]23[H:15])([H:8])([H:9])[H:10]>>[C:1]([C@:6]1([H:14])[C:5]([H:12])([H:13])[C@:4]2([H:11])[O+:3]=[C-:2][C@@:7]21[H:15])([H:8])([H:9])[H:10]"
C        1.74382260      -0.26815827      -0.39643131
C        0.66125752       1.12969490       0.35069876
O       -0.25075160       1.65558167      -0.54884023
C       -1.32304992       0.88349902       0.01985047
C       -1.18832515      -0.53985902      -0.55010691
C        0.00227808      -0.70816557       0.37755063
C       -0.40782986       0.47166413       1.19778208
H        2.17430691       0.48619248      -1.05392184
H        2.47163293      -0.50548898       0.37676068
H        1.64636188      -1.13173637      -1.06734808
H       -2.27346907       1.41044142       0.05404709
H       -2.02711326      -1.15948392      -0.22973835
H       -1.04002295      -0.62946893      -1.62810608
H        0.29598094      -1.64855211       0.82477981
H       -0.48507904       0.55383956       2.27302329
15
Frame=7 idx=009023 GeodesicLength=0.3028769734948392 rxn_smarts="[C:1]([C@@:2]12[O:3][C@@:4]3([H:11])[C:5]([H:12])([H:13])[C@:6]1([H:14])[C@@:7]23[H:15])([H:8])([H:9])[H:10]>>[C:1]([C@:6]1([H:14])[C:5]([H:12])([H:13])[C@:4]2([H:11])[O+:3]=[C-:2][C@@:7]21[H:15])([H:8])([H:9])[H:10]"
C        1.75273238      -0.27195696      -0.39370022
C        0.65422766       1.13060517       0.33422342
O       -0.26433876       1.65834335      -0.55503956
C       -1.33042159       0.88211976       0.02340119
C       -1.19695075      -0.53976224      -0.54943799
C        0.00460044      -0.70642969       0.36717772
C       -0.40295710       0.47556681       1.19361766
H        2.19551570       0.48433238      -1.04124688
H        2.46917505      -0.51165939       0.38980686
H        1.67510897      -1.13027742      -1.07328002
H       -2.28102807       1.40787940       0.06650050
H       -2.03169429      -1.16364862      -0.22718344
H       -1.05617821      -0.62307382      -1.62887348
H        0.28102498      -1.64773149       0.82427855
H       -0.46881642       0.55569277       2.26975569
15
Frame=8 idx=009023 GeodesicLength=0.346133714825786 rxn_smarts="[C:1]([C@@:2]12[O:3][C@@:4]3([H:11])[C:5]([H:12])([H:13])[C@:6]1([H:14])[C@@:7]23[H:15])([H:8])([H:9])[H:10]>>[C:1]([C@:6]1([H:14])[C:5]([H:12])([H:13])[C@:4]2([H:11])[O+:3]=[C-:2][C@@:7]21[H:15])([H:8])([H:9])[H:10]"
C        1.76165753      -0.27582393      -0.39091187
C        0.64710612       1.13131060       0.31722145
O       -0.27819153       1.66107696      -0.56131962
C       -1.33779880       0.88068980       0.02705191
C       -1.20580796      -0.53969075      -0.54874736
C        0.00681225      -0.70482761       0.35643699
C       -0.39785116       0.47944599       1.18915553
H        2.21686207       0.48258771      -1.02781741
H        2.46632611      -0.51787854       0.40297442
H        1.70472656      -1.12864909      -1.07881369
H       -2.28848321       1.40528081       0.07932218
H       -2.03648002      -1.16777548      -0.22453029
H       -1.07283089      -0.61669536      -1.62956259
H        0.26589912      -1.64664231       0.82347180
H       -0.45194619       0.55759119       2.26606853
15
Frame=9 idx=009023 GeodesicLength=0.3893822238155774 rxn_smarts="[C:1]([C@@:2]12[O:3][C@@:4]3([H:11])[C:5]([H:12])([H:13])[C@:6]1([H:14])[C@@:7]23[H:15])([H:8])([H:9])[H:10]>>[C:1]([C@:6]1([H:14])[C:5]([H:12])([H:13])[C@:4]2([H:11])[O+:3]=[C-:2][C@@:7]21[H:15])([H:8])([H:9])[H:10]"
C        1.77059438      -0.27975903      -0.38806277
C        0.63988854       1.13179970       0.29967753
O       -0.29230624       1.66377883      -0.56768032
C       -1.34517261       0.87921008       0.03080370
C       -1.21490273      -0.53964524      -0.54803092
C        0.00890773      -0.70336643       0.34531444
C       -0.39250325       0.48329788       1.18438160
H        2.23831896       0.48096400      -1.01360701
H        2.46307139      -0.52414181       0.41626440
H        1.73522710      -1.12684247      -1.08391985
H       -2.29581828       1.40265250       0.09251797
H       -2.04147775      -1.17186078      -0.22176946
H       -1.08999818      -0.61033327      -1.63016640
H        0.25062440      -1.64528268       0.82233947
H       -0.43445346       0.55952871       2.26193762
15
Frame=10 idx=009023 GeodesicLength=0.4326256625395637 rxn_smarts="[C:1]([C@@:2]12[O:3][C@@:4]3([H:11])[C:5]([H:12])([H:13])[C@:6]1([H:14])[C@@:7]23[H:15])([H:8])([H:9])[H:10]>>[C:1]([C@:6]1([H:14])[C:5]([H:12])([H:13])[C@:4]2([H:11])[O+:3]=[C-:2][C@@:7]21[H:15])([H:8])([H:9])[H:10]"
C        1.77953518      -0.28376673      -0.38515878
C        0.63257019       1.13205796       0.28156832
O       -0.30668181       1.66644533      -0.57412213
C       -1.35253195       0.87768222       0.03465737
C       -1.22424368      -0.53962532      -0.54728616
C        0.01087869      -0.70205589       0.33379198
C       -0.38690106       0.48711971       1.17927392
H        2.25984324       0.47947361      -0.99857225
H        2.45938120      -0.53045186       0.42966473
H        1.76664862      -1.12483490      -1.08853741
H       -2.30300725       1.39999914       0.10610224
H       -2.04669763      -1.17589824      -0.21889083
H       -1.10770370      -0.60398811      -1.63067676
H        0.23521943      -1.64365745       0.82086081
H       -0.41630945       0.56150055       2.25732494
15
Frame=11 idx=009023 GeodesicLength=0.4758658500724634 rxn_smarts="[C:1]([C@@:2]12[O:3][C@@:4]3([H:11])[C:5]([H:12])([H:13])[C@:6]1([H:14])[C@@:7]23[H:15])([H:8])([H:9])[H:10]>>[C:1]([C@:6]1([H:14])[C:5]([H:12])([H:13])[C@:4]2([H:11])[O+:3]=[C-:2][C@@:7]21[H:15])([H:8])([H:9])[H:10]"
C        1.78847467      -0.28784795      -0.38220241
C        0.62514534       1.13207329       0.26287503
O       -0.32131342       1.66907321      -0.58064440
C       -1.35986601       0.87610717       0.03861354
C       -1.23383672      -0.53963103      -0.54651025
C        0.01271830      -0.70090485       0.32185185
C       -0.38103324       0.49090707       1.17381370
H        2.28139365       0.47812500      -0.98268172
H        2.45523633      -0.53680623       0.44316542
H        1.79901179      -1.12261275      -1.09261292
H       -2.31002717       1.39732787       0.12008322
H       -2.05214658      -1.17988331      -0.21588516
H       -1.12596675      -0.59765879      -1.63108542
H        0.21970511      -1.64176939       0.81901334
H       -0.39749530       0.56350070       2.25220617
15
Frame=12 idx=009023 GeodesicLength=0.5191078587853819 rxn_smarts="[C:1]([C@@:2]12[O:3][C@@:4]3([H:11])[C:5]([H:12])([H:13])[C@:6]1([H:14])[C@@:7]23[H:15])([H:8])([H:9])[H:10]>>[C:1]([C@:6]1([H:14])[C:5]([H:12])([H:13])[C@:4]2([H:11])[O+:3]=[C-:2][C@@:7]21[H:15])([H:8])([H:9])[H:10]"
C        1.79740442      -0.29200834      -0.37919874
C        0.61760890       1.13182792       0.24357478
O       -0.33619594       1.67165613      -0.58724919
C       -1.36715985       0.87448546       0.04267268
C       -1.24369024      -0.53966323      -0.54569877
C        0.01441798      -0.69992499       0.30947567
C       -0.37488675       0.49465513       1.16797807
H        2.30292615       0.47693275      -0.96588978
H        2.45060263      -0.54320377       0.45676058
H        1.83234311      -1.12014416      -1.09609141
H       -2.31684848       1.39464618       0.13447111
H       -2.05783451      -1.18381015      -0.21273889
H       -1.14481149      -0.59134687      -1.63138166
H        0.20410214      -1.63962556       0.81677533
H       -0.37797806       0.56552349       2.24654022
15
Frame=13 idx=009023 GeodesicLength=0.5623523705593356 rxn_smarts="[C:1]([C@@:2]12[O:3][C@@:4]3([H:11])[C:5]([H:12])([H:13])[C@:6]1([H:14])[C@@:7]23[H:15])([H:8])([H:9])[H:10]>>[C:1]([C@:6]1([H:14])[C:5]([H:12])([H:13])[C@:4]2([H:11])[O+:3]=[C-:2][C@@:7]21[H:15])([H:8])([H:9])[H:10]"
C        1.80631939      -0.29624703      -0.37614909
C        0.60995643       1.13131065       0.22364988
O       -0.35132101       1.67419103      -0.59393588
C       -1.37439946       0.87281868       0.04683492
C       -1.25380781      -0.53972178      -0.54484729
C        0.01597192      -0.69912419       0.29664560
C       -0.36845118       0.49835897       1.16174743
H        2.32438710       0.47590271      -0.94816700
H        2.44546364      -0.54964449       0.47043916
H        1.86665441      -1.11740915      -1.09891746
H       -2.32344737       1.39196291       0.14927093
H       -2.06376553      -1.18767430      -0.20944042
H       -1.16425375      -0.58505093      -1.63155516
H        0.18843372      -1.63723170       0.81412543
H       -0.35774048       0.56755863       2.24029896
15
Frame=14 idx=009023 GeodesicLength=0.6056073028431835 rxn_smarts="[C:1]([C@@:2]12[O:3][C@@:4]3([H:11])[C:5]([H:12])([H:13])[C@:6]1([H:14])[C@@:7]23[H:15])([H:8])([H:9])[H:10]>>[C:1]([C@:6]1([H:14])[C:5]([H:12])([H:13])[C@:4]2([H:11])[O+:3]=[C-:2][C@@:7]21[H:15])([H:8])([H:9])[H:10]"
C        1.81520697      -0.30056526      -0.37306328
C        0.60218192       1.13050419       0.20307822
O       -0.36668179       1.67667383      -0.60070367
C       -1.38156933       0.87110902       0.05109929
C       -1.26419583      -0.53980615      -0.54395204
C        0.01737111      -0.69851299       0.28334186
C       -0.36171315       0.50201278       1.15509727
H        2.34571560       0.47505237      -0.92947268
H        2.43978926      -0.55613707       0.48417679
H        1.90198077      -1.11437866      -1.10100855
H       -2.32979041       1.38928526       0.16449375
H       -2.06994722      -1.19146928      -0.20597758
H       -1.18431608      -0.57877090      -1.63159379
H        0.17272067      -1.63459611       0.81104114
H       -0.33675249       0.56959897       2.23344326
15
Frame=15 idx=009023 GeodesicLength=0.6488789864469363 rxn_smarts="[C:1]([C@@:2]12[O:3][C@@:4]3([H:11])[C:5]([H:12])([H:13])[C@:6]1([H:14])[C@@:7]23[H:15])([H:8])([H:9])[H:10]>>[C:1]([C@:6]1([H:14])[C:5]([H:12])([H:13])[C@:4]2([H:11])[O+:3]=[C-:2][C@@:7]21[H:15])([H:8])([H:9])[H:10]"
C        1.82405933      -0.30496573      -0.36995088
C        0.59428134       1.12939243       0.18184029
O       -0.38226593       1.67909937      -0.60755327
C       -1.38865144       0.86935822       0.05546457
C       -1.27485764      -0.53991654      -0.54300809
C        0.01860855      -0.69810153       0.26954472
C       -0.35466009       0.50560982       1.14800382
H        2.36684901       0.47439536      -0.90977166
H        2.43355303      -0.56268263       0.49795570
H        1.93833431      -1.11101918      -1.10229078
H       -2.33584499       1.38662329       0.18014544
H       -2.07638361      -1.19518960      -0.20233666
H       -1.20501732      -0.57250664      -1.63148422
H        0.15698622      -1.63173071       0.80750124
H       -0.31499079       0.57163406       2.22593977
15
Frame=16 idx=009023 GeodesicLength=0.6921792035189394 rxn_smarts="[C:1]([C@@:2]12[O:3][C@@:4]3([H:11])[C:5]([H:12])([H:13])[C@:6]1([H:14])[C@@:7]23[H:15])([H:8])([H:9])[H:10]>>[C:1]([C@:6]1([H:14])[C:5]([H:12])([H:13])[C@:4]2([H:11])[O+:3]=[C-:2][C@@:7]21[H:15])([H:8])([H:9])[H:10]"
C        1.83286532      -0.30945028      -0.36682433
C        0.58624909       1.12795895       0.15991586
O       -0.39806109       1.68146255      -0.61448520
C       -1.39562655       0.86756795       0.05992910
C       -1.28579654      -0.54005284      -0.54201010
C        0.01967662      -0.69790041       0.25523348
C       -0.34727861       0.50914293       1.14044190
H        2.38771572       0.47394795      -0.88902505
H        2.42672582      -0.56929036       0.51175005
H        1.97573422      -1.10729343      -1.10267848
H       -2.34157486       1.38398622       0.19623208
H       -2.08307832      -1.19882951      -0.19850272
H       -1.22637614      -0.56625760      -1.63121170
H        0.14125308      -1.62864632       0.80348288
H       -0.29242775       0.57365419       2.21775224
