13
Frame=0 idx=005505 GeodesicLength=0.0 rxn_smarts="[C:1]([C:2]([O:3][C:4]([C:5]#[N:6])([H:12])[H:13])([H:10])[H:11])([H:7])([H:8])[H:9]>>[C:1]([C:2]([O:3][C:4](=[C:5]=[N:6][H:13])[H:12])([H:10])[H:11])([H:7])([H:8])[H:9]"
C       -1.98914887      -0.43546168       0.03303180
C       -0.51283628      -0.57560880      -0.23937366
O        0.16919325       0.36188902       0.61216638
C        1.50782403       0.41919317       0.49951851
C        2.20663050      -0.01045517      -0.76947650
N        2.23367689       1.26019149      -0.78471032
H       -2.32698047       0.57733321      -0.18924950
H       -2.54885760      -1.13074804      -0.59406942
H       -2.21412664      -0.65435332       1.07753552
H       -0.27434975      -0.35528304      -1.28306484
H       -0.15372349      -1.58338700      -0.01692541
H        2.08123523       0.39824357       1.41844431
H        1.82146316       1.72844657       0.23617316
13
Frame=1 idx=005505 GeodesicLength=0.10535392291633863 rxn_smarts="[C:1]([C:2]([O:3][C:4]([C:5]#[N:6])([H:12])[H:13])([H:10])[H:11])([H:7])([H:8])[H:9]>>[C:1]([C:2]([O:3][C:4](=[C:5]=[N:6][H:13])[H:12])([H:10])[H:11])([H:7])([H:8])[H:9]"
C       -1.99215538      -0.44289397       0.03799395
C       -0.51607717      -0.56253507      -0.24574592
O        0.16373080       0.35516580       0.62568007
C        1.50283709       0.42814776       0.51409668
C        2.22151302      -0.03980164      -0.72037046
N        2.26349099       1.22134024      -0.82074984
H       -2.33995202       0.57338844      -0.15028507
H       -2.54973172      -1.12293724      -0.60749596
H       -2.20946159      -0.69653287       1.07624940
H       -0.28435830      -0.30891467      -1.28373091
H       -0.15003401      -1.57455959      -0.05501633
H        2.06432208       0.43272756       1.44093871
H        1.82587622       1.73740523       0.18843567
13
Frame=2 idx=005505 GeodesicLength=0.21063465113293617 rxn_smarts="[C:1]([C:2]([O:3][C:4]([C:5]#[N:6])([H:12])[H:13])([H:10])[H:11])([H:7])([H:8])[H:9]>>[C:1]([C:2]([O:3][C:4](=[C:5]=[N:6][H:13])[H:12])([H:10])[H:11])([H:7])([H:8])[H:9]"
C       -1.99503431      -0.45069721       0.04276872
C       -0.51934349      -0.54873390      -0.25155587
O        0.15804376       0.34823061       0.64005267
C        1.49735254       0.43810023       0.52850918
C        2.23435890      -0.06637963      -0.67085062
N        2.29501473       1.17923810      -0.85556217
H       -2.35296441       0.56787792      -0.11079485
H       -2.55036303      -1.11472260      -0.62111482
H       -2.20445917      -0.73950848       1.07343314
H       -0.29462094      -0.26152475      -1.28265306
H       -0.14606250      -1.56396122      -0.09331948
H        2.04718028       0.46791222       1.46220004
H        1.83089762       1.74416871       0.13888714
13
Frame=3 idx=005505 GeodesicLength=0.3158277955823192 rxn_smarts="[C:1]([C:2]([O:3][C:4]([C:5]#[N:6])([H:12])[H:13])([H:10])[H:11])([H:7])([H:8])[H:9]>>[C:1]([C:2]([O:3][C:4](=[C:5]=[N:6][H:13])[H:12])([H:10])[H:11])([H:7])([H:8])[H:9]"
C       -1.99775647      -0.45885815       0.04735930
C       -0.52263750      -0.53419368      -0.25680452
O        0.15218711       0.34091143       0.65533101
C        1.49136558       0.44910169       0.54273094
C        2.24538371      -0.09016424      -0.62097598
N        2.32801591       1.13375522      -0.88901985
H       -2.36599059       0.56074747      -0.07075966
H       -2.55077119      -1.10602888      -0.63488587
H       -2.19903468      -0.78324141       1.06902997
H       -0.30525745      -0.21302409      -1.27977548
H       -0.14176192      -1.55150600      -0.13196741
H        2.02980310       0.50393705       1.48225797
H        1.83645439       1.74856360       0.08747959
13
Frame=4 idx=005505 GeodesicLength=0.42092697847496496 rxn_smarts="[C:1]([C:2]([O:3][C:4]([C:5]#[N:6])([H:12])[H:13])([H:10])[H:11])([H:7])([H:8])[H:9]>>[C:1]([C:2]([O:3][C:4](=[C:5]=[N:6][H:13])[H:12])([H:10])[H:11])([H:7])([H:8])[H:9]"
C       -2.00032763      -0.46744204       0.05181476
C       -0.52601497      -0.51881269      -0.26154694
O        0.14613178       0.33334425       0.67130915
C        1.48480237       0.46129180       0.55663237
C        2.25464289      -0.11111322      -0.57091779
N        2.36277174       1.08476601      -0.92074709
H       -2.37915934       0.55180564      -0.03016942
H       -2.55097879      -1.09698795      -0.64862943
H       -2.19301910      -0.82772117       1.06306308
H       -0.31652250      -0.16333451      -1.27512714
H       -0.13708751      -1.53696626      -0.17103894
H        2.01201689       0.54072500       1.50110359
H        1.84274418       1.75044514       0.03425379
13
Frame=5 idx=005505 GeodesicLength=0.5259526258377403 rxn_smarts="[C:1]([C:2]([O:3][C:4]([C:5]#[N:6])([H:12])[H:13])([H:10])[H:11])([H:7])([H:8])[H:9]>>[C:1]([C:2]([O:3][C:4](=[C:5]=[N:6][H:13])[H:12])([H:10])[H:11])([H:7])([H:8])[H:9]"
C       -2.00271475      -0.47646588       0.05612397
C       -0.52948654      -0.50252229      -0.26577501
O        0.13992818       0.32543864       0.68800187
C        1.47763301       0.47478851       0.57018012
C        2.26230713      -0.12921562      -0.52066977
N        2.39894294       1.03201747      -0.95064734
H       -2.39246910       0.54094286       0.01102573
H       -2.55098178      -1.08756395      -0.66233292
H       -2.18627328      -0.87297170       1.05544603
H       -0.32857436      -0.11230548      -1.26861395
H       -0.13198143      -1.52015320      -0.21069092
H        1.99378185       0.57841041       1.51876109
H        1.84988814       1.74960024      -0.02080890
13
Frame=6 idx=005505 GeodesicLength=0.630940761376752 rxn_smarts="[C:1]([C:2]([O:3][C:4]([C:5]#[N:6])([H:12])[H:13])([H:10])[H:11])([H:7])([H:8])[H:9]>>[C:1]([C:2]([O:3][C:4](=[C:5]=[N:6][H:13])[H:12])([H:10])[H:11])([H:7])([H:8])[H:9]"
C       -2.00493979      -0.48605213       0.06034950
C       -0.53315936      -0.48516615      -0.26956079
O        0.13349571       0.31759868       0.70502003
C        1.46974391       0.48981223       0.58313460
C        2.26823451      -0.14437721      -0.47056190
N        2.43701930       0.97542090      -0.97815890
H       -2.40611588       0.52786839       0.05276205
H       -2.55081294      -1.07808059      -0.67572189
H       -2.17853656      -0.91895230       1.04625804
H       -0.34180056      -0.05992622      -1.26031780
H       -0.12644366      -1.50074019      -0.25089428
H        1.97488296       0.61666118       1.53517071
H        1.85843236       1.74593341      -0.07747937
13
Frame=7 idx=005505 GeodesicLength=0.7358261580413256 rxn_smarts="[C:1]([C:2]([O:3][C:4]([C:5]#[N:6])([H:12])[H:13])([H:10])[H:11])([H:7])([H:8])[H:9]>>[C:1]([C:2]([O:3][C:4](=[C:5]=[N:6][H:13])[H:12])([H:10])[H:11])([H:7])([H:8])[H:9]"
C       -2.00688124      -0.49609954       0.06448873
C       -0.53699101      -0.46681181      -0.27288804
O        0.12704998       0.30925180       0.72257392
C        1.46119463       0.50621333       0.59544580
C        2.27286348      -0.15655198      -0.42058695
N        2.47648474       0.91477951      -1.00304862
H       -2.41984162       0.51262905       0.09511374
H       -2.55047902      -1.06817867      -0.68886521
H       -2.16976163      -0.96559101       1.03536396
H       -0.35619845      -0.00604604      -1.25002079
H       -0.12043774      -1.47864952      -0.29186375
H        1.95531986       0.65594073       1.55029307
H        1.86767803       1.73911413      -0.13600587
13
Frame=8 idx=005505 GeodesicLength=0.8408772614594882 rxn_smarts="[C:1]([C:2]([O:3][C:4]([C:5]#[N:6])([H:12])[H:13])([H:10])[H:11])([H:7])([H:8])[H:9]>>[C:1]([C:2]([O:3][C:4](=[C:5]=[N:6][H:13])[H:12])([H:10])[H:11])([H:7])([H:8])[H:9]"
C       -2.00861775      -0.50695546       0.06871191
C       -0.54125445      -0.44696942      -0.27599003
O        0.12033271       0.30142101       0.73994090
C        1.45174255       0.52454173       0.60671903
C        2.27570023      -0.16598756      -0.37093963
N        2.51885875       0.84951853      -1.02419280
H       -2.43414017       0.49455454       0.13859515
H       -2.55010700      -1.05835530      -0.70143268
H       -2.15931786      -1.01343410       1.02281555
H       -0.37256955       0.04974844      -1.23792930
H       -0.11407480      -1.45315369      -0.33385925
H        1.93463421       0.69612586       1.56401592
H        1.87881314       1.72894543      -0.19645476
13
Frame=9 idx=005505 GeodesicLength=0.9460196455911124 rxn_smarts="[C:1]([C:2]([O:3][C:4]([C:5]#[N:6])([H:12])[H:13])([H:10])[H:11])([H:7])([H:8])[H:9]>>[C:1]([C:2]([O:3][C:4](=[C:5]=[N:6][H:13])[H:12])([H:10])[H:11])([H:7])([H:8])[H:9]"
C       -2.00992671      -0.51846589       0.07275257
C       -0.54575722      -0.42569587      -0.27860229
O        0.11369719       0.29342806       0.75766530
C        1.44152831       0.54470501       0.61719913
C        2.27743282      -0.17247022      -0.32114622
N        2.56119037       0.77893904      -1.04253181
H       -2.44851304       0.47371949       0.18302028
H       -2.54948854      -1.04815994      -0.71384029
H       -2.14713243      -1.06235081       1.00810714
H       -0.39067126       0.10761571      -1.22346949
H       -0.10716948      -1.42406217      -0.37704813
H        1.91308423       0.73783736       1.57642510
H        1.89172576       1.71496023      -0.25853127
13
Frame=10 idx=005505 GeodesicLength=1.0513844198709488 rxn_smarts="[C:1]([C:2]([O:3][C:4]([C:5]#[N:6])([H:12])[H:13])([H:10])[H:11])([H:7])([H:8])[H:9]>>[C:1]([C:2]([O:3][C:4](=[C:5]=[N:6][H:13])[H:12])([H:10])[H:11])([H:7])([H:8])[H:9]"
C       -2.01085342      -0.53081035       0.07695548
C       -0.55086451      -0.40273765      -0.28107566
O        0.10698440       0.28597836       0.77484240
C        1.43043552       0.56666616       0.62610292
C        2.27743790      -0.17612163      -0.27241177
N        2.60684941       0.70361632      -1.05530799
H       -2.46330484       0.44961302       0.22857572
H       -2.54891002      -1.03811786      -0.72529923
H       -2.13272895      -1.11220908       0.99162565
H       -0.41138797       0.16761017      -1.20694389
H       -0.10007720      -1.39088689      -0.42145615
H        1.89034494       0.78047375       1.58700273
H        1.90607475       1.69692567      -0.32261021
13
Frame=11 idx=005505 GeodesicLength=1.156953722960997 rxn_smarts="[C:1]([C:2]([O:3][C:4]([C:5]#[N:6])([H:12])[H:13])([H:10])[H:11])([H:7])([H:8])[H:9]>>[C:1]([C:2]([O:3][C:4](=[C:5]=[N:6][H:13])[H:12])([H:10])[H:11])([H:7])([H:8])[H:9]"
C       -2.01110750      -0.54389320       0.08088399
C       -0.55628706      -0.37807983      -0.28302445
O        0.10054551       0.27878287       0.79199108
C        1.41865295       0.59049508       0.63390195
C        2.27658947      -0.17656352      -0.22393199
N        2.65114284       0.62233554      -1.06448317
H       -2.47790684       0.42221621       0.27491748
H       -2.54799843      -1.02782827      -0.73648268
H       -2.11591118      -1.16293421       0.97266512
H       -0.43432398       0.22972850      -1.18770145
H       -0.09248834      -1.35325275      -0.46701983
H        1.86669949       0.82452838       1.59610951
H        1.92239306       1.67446521      -0.38782556
13
Frame=12 idx=005505 GeodesicLength=1.2628295457771965 rxn_smarts="[C:1]([C:2]([O:3][C:4]([C:5]#[N:6])([H:12])[H:13])([H:10])[H:11])([H:7])([H:8])[H:9]>>[C:1]([C:2]([O:3][C:4](=[C:5]=[N:6][H:13])[H:12])([H:10])[H:11])([H:7])([H:8])[H:9]"
C       -2.01074703      -0.55779151       0.08493677
C       -0.56250071      -0.35157635      -0.28484767
O        0.09416188       0.27275784       0.80798917
C        1.40614159       0.61587626       0.63963553
C        2.27384302      -0.17403144      -0.17781890
N        2.69857281       0.53679158      -1.06625306
H       -2.49257458       0.39120612       0.32191126
H       -2.54712887      -1.01811060      -0.74630582
H       -2.09624530      -1.21388663       0.95190737
H       -0.46046745       0.29366151      -1.16617949
H       -0.08509675      -1.31091220      -0.51348825
H        1.84217371       0.86856134       1.60306941
H        1.93986769       1.64745408      -0.45455632
13
Frame=13 idx=005505 GeodesicLength=1.3689454289395129 rxn_smarts="[C:1]([C:2]([O:3][C:4]([C:5]#[N:6])([H:12])[H:13])([H:10])[H:11])([H:7])([H:8])[H:9]>>[C:1]([C:2]([O:3][C:4](=[C:5]=[N:6][H:13])[H:12])([H:10])[H:11])([H:7])([H:8])[H:9]"
C       -2.00947452      -0.57240529       0.08867591
C       -0.56921607      -0.32324540      -0.28617463
O        0.08815724       0.26777758       0.82329800
C        1.39319583       0.64279352       0.64381543
C        2.27014643      -0.16819321      -0.13341144
N        2.74470273       0.44594655      -1.06238547
H       -2.50667844       0.35657325       0.36919951
H       -2.54591753      -1.00854310      -0.75549660
H       -2.07358471      -1.26500507       0.92864999
H       -0.48932839       0.35924182      -1.14180943
H       -0.07765136      -1.26355647      -0.56057347
H        1.81711644       0.91301304       1.60834539
H        1.95853235       1.61560279      -0.52213319
13
Frame=14 idx=005505 GeodesicLength=1.4752963543229862 rxn_smarts="[C:1]([C:2]([O:3][C:4]([C:5]#[N:6])([H:12])[H:13])([H:10])[H:11])([H:7])([H:8])[H:9]>>[C:1]([C:2]([O:3][C:4](=[C:5]=[N:6][H:13])[H:12])([H:10])[H:11])([H:7])([H:8])[H:9]"
C       -2.00713938      -0.58764644       0.09197060
C       -0.57640479      -0.29315356      -0.28692383
O        0.08265360       0.26406806       0.83781271
C        1.38005087       0.67106706       0.64646365
C        2.26573638      -0.15887239      -0.09129487
N        2.78852719       0.35005453      -1.05254770
H       -2.51990178       0.31831645       0.41634743
H       -2.54428262      -0.99913700      -0.76411169
H       -2.04779373      -1.31585389       0.90278285
H       -0.52083621       0.42602587      -1.11448554
H       -0.07028011      -1.21109355      -0.60779619
H        1.79188947       0.95737119       1.61208932
H        1.97778112       1.57885367      -0.59030673
13
Frame=15 idx=005505 GeodesicLength=1.5820025543966145 rxn_smarts="[C:1]([C:2]([O:3][C:4]([C:5]#[N:6])([H:12])[H:13])([H:10])[H:11])([H:7])([H:8])[H:9]>>[C:1]([C:2]([O:3][C:4](=[C:5]=[N:6][H:13])[H:12])([H:10])[H:11])([H:7])([H:8])[H:9]"
C       -2.00396607      -0.60333749       0.09533496
C       -0.58475809      -0.26144913      -0.28757632
O        0.07738101       0.26224665       0.85041305
C        1.36673292       0.70002212       0.64645015
C        2.25901388      -0.14697557      -0.05471975
N        2.83698317       0.25316227      -1.03128061
H       -2.53231287       0.27666861       0.46325944
H       -2.54301158      -0.99068569      -0.77083189
H       -2.01887548      -1.36537753       0.87534087
H       -0.55595411       0.49333546      -1.08476765
H       -0.06441975      -1.15399988      -0.65496949
H        1.76713914       0.99941474       1.61344145
H        1.99604783       1.53697545      -0.66009422
13
Frame=16 idx=005505 GeodesicLength=1.6880371825590357 rxn_smarts="[C:1]([C:2]([O:3][C:4]([C:5]#[N:6])([H:12])[H:13])([H:10])[H:11])([H:7])([H:8])[H:9]>>[C:1]([C:2]([O:3][C:4](=[C:5]=[N:6][H:13])[H:12])([H:10])[H:11])([H:7])([H:8])[H:9]"
C       -1.99877612      -0.61916292       0.09732999
C       -0.59265044      -0.22846734      -0.28691754
O        0.07310870       0.26176858       0.86279740
C        1.35373269       0.73004408       0.64614862
C        2.25331915      -0.13050446      -0.02008468
N        2.87361843       0.15000142      -1.00784402
H       -2.54233738       0.23224506       0.50789195
H       -2.53966869      -0.98230900      -0.77806999
H       -1.98662115      -1.41322764       0.84464782
H       -0.59187939       0.56025173      -1.05161245
H       -0.05789141      -1.09225379      -0.70035096
H        1.74271598       1.04071298       1.61466310
H        2.01332963       1.49090130      -0.72859923
