12
Frame=0 idx=005290 GeodesicLength=0.0 rxn_smarts="[O:1]([C@:2]12[C:3]([H:8])([H:9])[C@@:4]1([H:10])[O:5][C:6]2([H:11])[H:12])[H:7]>>[O:1]([C:2]([C:3]([C:4](=[O:5])[H:10])([H:8])[H:9])=[C:6]([H:11])[H:12])[H:7]"
O        0.23143642      -1.36629073      -1.25581387
C        0.19809689      -0.83824747       0.04809362
C       -1.07083808      -0.06249918       0.46444876
C       -0.63060717       1.18165670      -0.13154836
O        0.63768654       1.48667698      -0.04523300
C        1.26901626       0.16189084       0.29209108
H        0.03527250      -2.29929263      -1.18107412
H       -2.00643514      -0.42252699       0.04000605
H       -1.16039921      -0.01958191       1.55609222
H       -1.21507357       1.86376858      -0.74501627
H        1.58919117       0.23744130       1.33304540
H        2.12265343       0.07700447      -0.37509147
12
Frame=1 idx=005290 GeodesicLength=0.09490808618458134 rxn_smarts="[O:1]([C@:2]12[C:3]([H:8])([H:9])[C@@:4]1([H:10])[O:5][C:6]2([H:11])[H:12])[H:7]>>[O:1]([C:2]([C:3]([C:4](=[O:5])[H:10])([H:8])[H:9])=[C:6]([H:11])[H:12])[H:7]"
O        0.25463461      -1.35634434      -1.25887954
C        0.20739562      -0.82573090       0.04057382
C       -1.06455557      -0.06875887       0.46898660
C       -0.63342310       1.16905739      -0.15235408
O        0.62949169       1.49615784      -0.07055846
C        1.28274242       0.15807874       0.30531957
H       -0.02845683      -2.26813684      -1.19941273
H       -1.99875061      -0.44160802       0.05267440
H       -1.14565054      -0.01117774       1.55993698
H       -1.23803631       1.84548172      -0.75295689
H        1.58543436       0.23739497       1.35098033
H        2.14917426       0.06558604      -0.34431001
12
Frame=2 idx=005290 GeodesicLength=0.1897724491485952 rxn_smarts="[O:1]([C@:2]12[C:3]([H:8])([H:9])[C@@:4]1([H:10])[O:5][C:6]2([H:11])[H:12])[H:7]>>[O:1]([C:2]([C:3]([C:4](=[O:5])[H:10])([H:8])[H:9])=[C:6]([H:11])[H:12])[H:7]"
O        0.27667051      -1.34821799      -1.25995030
C        0.21604460      -0.81352617       0.03414951
C       -1.05838656      -0.07452652       0.47394487
C       -0.63637793       1.15601263      -0.17333442
O        0.62098246       1.50462458      -0.09775585
C        1.29597780       0.15341231       0.31865090
H       -0.08759282      -2.23200783      -1.22009468
H       -1.99111296      -0.46019659       0.06625335
H       -1.13130523      -0.00118744       1.56379468
H       -1.26110008       1.82646553      -0.76044296
H        1.58190144       0.23659049       1.36843989
H        2.17429876       0.05255699      -0.31365500
12
Frame=3 idx=005290 GeodesicLength=0.28467442576829816 rxn_smarts="[O:1]([C@:2]12[C:3]([H:8])([H:9])[C@@:4]1([H:10])[O:5][C:6]2([H:11])[H:12])[H:7]>>[O:1]([C:2]([C:3]([C:4](=[O:5])[H:10])([H:8])[H:9])=[C:6]([H:11])[H:12])[H:7]"
O        0.29772139      -1.34216514      -1.25933115
C        0.22414329      -0.80154837       0.02855793
C       -1.05234961      -0.07985484       0.47917596
C       -0.63948450       1.14267869      -0.19443389
O        0.61214905       1.51234099      -0.12670935
C        1.30881560       0.14807508       0.33201504
H       -0.14257813      -2.19165194      -1.24242411
H       -1.98348026      -0.47840116       0.08042120
H       -1.11747272       0.01003996       1.56759586
H       -1.28426604       1.80718865      -0.76707175
H        1.57863373       0.23504711       1.38551231
H        2.19816820       0.03825097      -0.28330805
12
Frame=4 idx=005290 GeodesicLength=0.3796602709877688 rxn_smarts="[O:1]([C@:2]12[C:3]([H:8])([H:9])[C@@:4]1([H:10])[O:5][C:6]2([H:11])[H:12])[H:7]>>[O:1]([C:2]([C:3]([C:4](=[O:5])[H:10])([H:8])[H:9])=[C:6]([H:11])[H:12])[H:7]"
O        0.31788436      -1.33818087      -1.25705121
C        0.23179661      -0.78969145       0.02364782
C       -1.04640191      -0.08475583       0.48457150
C       -0.64281416       1.12900239      -0.21568854
O        0.60288894       1.51925416      -0.15747115
C        1.32129464       0.14212056       0.34538881
H       -0.19364632      -2.14717386      -1.26604990
H       -1.97576790      -0.49625552       0.09507738
H       -1.10408553       0.02241826       1.57116002
H       -1.30763105       1.78776570      -0.77255722
H        1.57561095       0.23273913       1.40219001
H        2.22087139       0.02275733      -0.25321751
12
Frame=5 idx=005290 GeodesicLength=0.4746169977468636 rxn_smarts="[O:1]([C@:2]12[C:3]([H:8])([H:9])[C@@:4]1([H:10])[O:5][C:6]2([H:11])[H:12])[H:7]>>[O:1]([C:2]([C:3]([C:4](=[O:5])[H:10])([H:8])[H:9])=[C:6]([H:11])[H:12])[H:7]"
O        0.33655318      -1.33576458      -1.25342976
C        0.23883275      -0.77785796       0.01929490
C       -1.04064510      -0.08910002       0.49023292
C       -0.64645653       1.11520182      -0.23682359
O        0.59314943       1.52544811      -0.18988201
C        1.33335775       0.13551222       0.35871281
H       -0.23968457      -2.09947043      -1.29078694
H       -1.96810966      -0.51356569       0.11033963
H       -1.09114668       0.03595687       1.57459851
H       -1.33102615       1.76819327      -0.77713113
H        1.57287908       0.22942845       1.41845567
H        2.24229651       0.00601793      -0.22358100
12
Frame=6 idx=005290 GeodesicLength=0.5695432669925824 rxn_smarts="[O:1]([C@:2]12[C:3]([H:8])([H:9])[C@@:4]1([H:10])[O:5][C:6]2([H:11])[H:12])[H:7]>>[O:1]([C:2]([C:3]([C:4](=[O:5])[H:10])([H:8])[H:9])=[C:6]([H:11])[H:12])[H:7]"
O        0.35370858      -1.33481245      -1.24858450
C        0.24532145      -0.76594415       0.01537020
C       -1.03507718      -0.09288455       0.49608996
C       -0.65046771       1.10135291      -0.25776085
O        0.58285331       1.53099866      -0.22387605
C        1.34505395       0.12830316       0.37196779
H       -0.28078171      -2.04899218      -1.31629023
H       -1.96045991      -0.53034275       0.12607141
H       -1.07866613       0.05052991       1.57782295
H       -1.35445608       1.74859353      -0.78067866
H        1.57046251       0.22504936       1.43433372
H        2.26250893      -0.01185144      -0.19446574
12
Frame=7 idx=005290 GeodesicLength=0.6647370571923067 rxn_smarts="[O:1]([C@:2]12[C:3]([H:8])([H:9])[C@@:4]1([H:10])[O:5][C:6]2([H:11])[H:12])[H:7]>>[O:1]([C:2]([C:3]([C:4](=[O:5])[H:10])([H:8])[H:9])=[C:6]([H:11])[H:12])[H:7]"
O        0.37003442      -1.33587246      -1.24200328
C        0.25156354      -0.75400034       0.01209456
C       -1.02947818      -0.09631225       0.50235863
C       -0.65490382       1.08718104      -0.27848221
O        0.57187949       1.53571270      -0.25978619
C        1.35652438       0.12063199       0.38538558
H       -0.31896890      -1.99369754      -1.34372128
H       -1.95253373      -0.54703228       0.14264360
H       -1.06638749       0.06604742       1.58102482
H       -1.37788668       1.72797157      -0.78417082
H        1.56837309       0.22005298       1.45010511
H        2.28178388      -0.03068283      -0.16544852
12
Frame=8 idx=005290 GeodesicLength=0.7599897691395117 rxn_smarts="[O:1]([C@:2]12[C:3]([H:8])([H:9])[C@@:4]1([H:10])[O:5][C:6]2([H:11])[H:12])[H:7]>>[O:1]([C:2]([C:3]([C:4](=[O:5])[H:10])([H:8])[H:9])=[C:6]([H:11])[H:12])[H:7]"
O        0.38448042      -1.33799009      -1.23411429
C        0.25725252      -0.74183543       0.00931544
C       -1.02402754      -0.09912445       0.50911415
C       -0.65988669       1.07311573      -0.29849736
O        0.56010760       1.53973854      -0.29722519
C        1.36765759       0.11233688       0.39880415
H       -0.35209106      -1.93521438      -1.37246018
H       -1.94450910      -0.56318841       0.16005678
H       -1.05433985       0.08252769       1.58424791
H       -1.40121658       1.70648001      -0.78785594
H        1.56673884       0.21387567       1.46557510
H        2.29983384      -0.05072177      -0.13696056
12
Frame=9 idx=005290 GeodesicLength=0.8552961672653874 rxn_smarts="[O:1]([C@:2]12[C:3]([H:8])([H:9])[C@@:4]1([H:10])[O:5][C:6]2([H:11])[H:12])[H:7]>>[O:1]([C:2]([C:3]([C:4](=[O:5])[H:10])([H:8])[H:9])=[C:6]([H:11])[H:12])[H:7]"
O        0.39692188      -1.34119686      -1.22513867
C        0.26245289      -0.72933016       0.00686074
C       -1.01876649      -0.10134183       0.51625894
C       -0.66542330       1.05926973      -0.31778536
O        0.54754244       1.54318490      -0.33625481
C        1.37856055       0.10349941       0.41221123
H       -0.38014162      -1.87402782      -1.40206109
H       -1.93639439      -0.57891620       0.17807592
H       -1.04261451       0.09983254       1.58746704
H       -1.42454127       1.68441868      -0.79143377
H        1.56557704       0.20652633       1.48085404
H        2.31682679      -0.07191873      -0.10905421
12
Frame=10 idx=005290 GeodesicLength=0.9509151397868657 rxn_smarts="[O:1]([C@:2]12[C:3]([H:8])([H:9])[C@@:4]1([H:10])[O:5][C:6]2([H:11])[H:12])[H:7]>>[O:1]([C:2]([C:3]([C:4](=[O:5])[H:10])([H:8])[H:9])=[C:6]([H:11])[H:12])[H:7]"
O        0.40734021      -1.34556074      -1.21504961
C        0.26736164      -0.71631634       0.00453055
C       -1.01353625      -0.10302610       0.52358115
C       -0.67156371       1.04566845      -0.33638425
O        0.53397016       1.54596020      -0.37709904
C        1.38923743       0.09413733       0.42558887
H       -0.40331409      -1.80989211      -1.43173442
H       -1.92788367      -0.59427266       0.19641299
H       -1.03105346       0.11772506       1.59039642
H       -1.44802814       1.66199299      -0.79457557
H        1.56470515       0.19786832       1.49592246
H        2.33276473      -0.09428439      -0.08158956
12
Frame=11 idx=005290 GeodesicLength=1.0466237294039462 rxn_smarts="[O:1]([C@:2]12[C:3]([H:8])([H:9])[C@@:4]1([H:10])[O:5][C:6]2([H:11])[H:12])[H:7]>>[O:1]([C:2]([C:3]([C:4](=[O:5])[H:10])([H:8])[H:9])=[C:6]([H:11])[H:12])[H:7]"
O        0.41531647      -1.35037089      -1.20435870
C        0.27187462      -0.70259511       0.00214928
C       -1.00848489      -0.10404827       0.53106007
C       -0.67832240       1.03266750      -0.35407774
O        0.51937909       1.54839777      -0.41941192
C        1.39974969       0.08425680       0.43889217
H       -0.42086958      -1.74467849      -1.46097722
H       -1.91915598      -0.60910537       0.21487593
H       -1.01979212       0.13615115       1.59313400
H       -1.47164609       1.63949555      -0.79726607
H        1.56427139       0.18762905       1.51083193
H        2.34767980      -0.11779968      -0.05485173
12
Frame=12 idx=005290 GeodesicLength=1.142584866439391 rxn_smarts="[O:1]([C@:2]12[C:3]([H:8])([H:9])[C@@:4]1([H:10])[O:5][C:6]2([H:11])[H:12])[H:7]>>[O:1]([C:2]([C:3]([C:4](=[O:5])[H:10])([H:8])[H:9])=[C:6]([H:11])[H:12])[H:7]"
O        0.42089695      -1.35555763      -1.19300629
C        0.27610988      -0.68803860      -0.00033151
C       -1.00351329      -0.10442746       0.53869734
C       -0.68574361       1.02033126      -0.37080469
O        0.50358823       1.55048250      -0.46332310
C        1.41014092       0.07386250       0.45215817
H       -0.43308170      -1.67820036      -1.48978980
H       -1.91004497      -0.62348886       0.23347703
H       -1.00870025       0.15505436       1.59566926
H       -1.49550903       1.61676284      -0.79968155
H        1.56422412       0.17578033       1.52563302
H        2.36163274      -0.14256088      -0.02869787
12
Frame=13 idx=005290 GeodesicLength=1.2388369946915447 rxn_smarts="[O:1]([C@:2]12[C:3]([H:8])([H:9])[C@@:4]1([H:10])[O:5][C:6]2([H:11])[H:12])[H:7]>>[O:1]([C:2]([C:3]([C:4](=[O:5])[H:10])([H:8])[H:9])=[C:6]([H:11])[H:12])[H:7]"
O        0.42405878      -1.36079024      -1.18130886
C        0.28019643      -0.67245827      -0.00312878
C       -0.99858051      -0.10415620       0.54635702
C       -0.69382836       1.00883591      -0.38655430
O        0.48649884       1.55235341      -0.50885206
C        1.42049216       0.06297315       0.46541453
H       -0.44007636      -1.61127154      -1.51756431
H       -1.90049999      -0.63740999       0.25199252
H       -0.99777583       0.17428689       1.59793513
H       -1.51972250       1.59399628      -0.80163158
H        1.56449302       0.16218706       1.54041743
H        2.37474432      -0.16854647      -0.00307673
12
Frame=14 idx=005290 GeodesicLength=1.3352086987000138 rxn_smarts="[O:1]([C@:2]12[C:3]([H:8])([H:9])[C@@:4]1([H:10])[O:5][C:6]2([H:11])[H:12])[H:7]>>[O:1]([C:2]([C:3]([C:4](=[O:5])[H:10])([H:8])[H:9])=[C:6]([H:11])[H:12])[H:7]"
O        0.42486257      -1.36501669      -1.16965404
C        0.28416137      -0.65555036      -0.00643175
C       -0.99357654      -0.10310815       0.55384620
C       -0.70254060       0.99840550      -0.40145140
O        0.46780778       1.55448970      -0.55541364
C        1.43071788       0.05154313       0.47864171
H       -0.44180197      -1.54600534      -1.54343902
H       -1.89033199      -0.65066093       0.27021095
H       -0.98689530       0.19381206       1.59972285
H       -1.54423954       1.57152545      -0.80304659
H        1.56502974       0.14620163       1.55514834
H        2.38680660      -0.19563600       0.02186639
12
Frame=15 idx=005290 GeodesicLength=1.4317617275112378 rxn_smarts="[O:1]([C@:2]12[C:3]([H:8])([H:9])[C@@:4]1([H:10])[O:5][C:6]2([H:11])[H:12])[H:7]>>[O:1]([C:2]([C:3]([C:4](=[O:5])[H:10])([H:8])[H:9])=[C:6]([H:11])[H:12])[H:7]"
O        0.42365773      -1.36825481      -1.15831187
C        0.28825503      -0.63721595      -0.01038816
C       -0.98845074      -0.10132589       0.56115965
C       -0.71191255       0.98906856      -0.41552687
O        0.44747679       1.55689932      -0.60331675
C        1.44103973       0.03960508       0.49199799
H       -0.43912546      -1.48229248      -1.56749785
H       -1.87958070      -0.66337889       0.28814522
H       -0.97607595       0.21367554       1.60114081
H       -1.56929281       1.54917039      -0.80395100
H        1.56577007       0.12793483       1.57009432
H        2.39823887      -0.22388572       0.04645450
12
Frame=16 idx=005290 GeodesicLength=1.5287539098433212 rxn_smarts="[O:1]([C@:2]12[C:3]([H:8])([H:9])[C@@:4]1([H:10])[O:5][C:6]2([H:11])[H:12])[H:7]>>[O:1]([C:2]([C:3]([C:4](=[O:5])[H:10])([H:8])[H:9])=[C:6]([H:11])[H:12])[H:7]"
O        0.42061811      -1.37027856      -1.14713496
C        0.29265387      -0.61729975      -0.01501514
C       -0.98290661      -0.09889036       0.56825785
C       -0.72184713       0.98086512      -0.42874254
O        0.42523448       1.55945797      -0.65295304
C        1.45134036       0.02705898       0.50556496
H       -0.43260167      -1.41952411      -1.58947694
H       -1.86780833      -0.67562234       0.30582697
H       -0.96507786       0.23367285       1.60207723
H       -1.59481174       1.52659490      -0.80454859
H        1.56637581       0.10731720       1.58522679
H        2.40883072      -0.25335189       0.07091743
