15
Frame=0 idx=006502 GeodesicLength=0.0 rxn_smarts="[O:1]=[C:2]1[N:3]([H:8])[C:4]([H:9])([H:10])[C:5]([H:11])([H:12])[C:6]([H:13])([H:14])[N:7]1[H:15]>>[O:1]1[C:2]([N:7]([C:6]([C:5]([C:4]([H:8])([H:9])[H:10])([H:11])[H:12])([H:13])[H:14])[H:15])=[N:3]1"
O        3.03676676      -0.28645900       0.17970706
C        1.80842364      -0.17985186       0.03738857
N        1.37076808      -1.41452182      -0.16082261
C       -0.98294759      -1.21041727      -0.28415483
C       -1.12378033       0.08067470       0.47839687
C       -0.28034615       1.19810924      -0.11974020
N        1.13282822       0.98723362       0.11271098
H        0.11605337      -1.45367222      -0.62053911
H       -1.45830577      -1.17822888      -1.26777480
H       -1.29122527      -2.09566350       0.26550771
H       -0.84561277      -0.05864398       1.52478554
H       -2.17290505       0.38880264       0.45889859
H       -0.54630931       2.14772640       0.34577892
H       -0.49625524       1.29123191      -1.19182307
H        1.73284747       1.78368004       0.24168044
15
Frame=1 idx=006502 GeodesicLength=0.07496061575466124 rxn_smarts="[O:1]=[C:2]1[N:3]([H:8])[C:4]([H:9])([H:10])[C:5]([H:11])([H:12])[C:6]([H:13])([H:14])[N:7]1[H:15]>>[O:1]1[C:2]([N:7]([C:6]([C:5]([C:4]([H:8])([H:9])[H:10])([H:11])[H:12])([H:13])[H:14])[H:15])=[N:3]1"
O        3.02627368      -0.29393907       0.24598742
C        1.81005875      -0.17055429       0.02619866
N        1.38413901      -1.39568979      -0.23070772
C       -0.98021285      -1.20835068      -0.28053466
C       -1.11621200       0.08251396       0.48383111
C       -0.28206217       1.19997791      -0.12610215
N        1.13339647       0.99514175       0.09923165
H        0.11351768      -1.51244554      -0.62519802
H       -1.46678250      -1.17301871      -1.25945093
H       -1.30631681      -2.08704638       0.27032494
H       -0.82761670      -0.05545269       1.52804682
H       -2.16627370       0.38985711       0.47615015
H       -0.55056642       2.15226910       0.33365010
H       -0.49982481       1.28652451      -1.19854457
H        1.72848237       1.79021284       0.25711719
15
Frame=2 idx=006502 GeodesicLength=0.1475178152578116 rxn_smarts="[O:1]=[C:2]1[N:3]([H:8])[C:4]([H:9])([H:10])[C:5]([H:11])([H:12])[C:6]([H:13])([H:14])[N:7]1[H:15]>>[O:1]1[C:2]([N:7]([C:6]([C:5]([C:4]([H:8])([H:9])[H:10])([H:11])[H:12])([H:13])[H:14])[H:15])=[N:3]1"
O        3.01387840      -0.30338285       0.28898133
C        1.80926049      -0.16146308       0.01985106
N        1.39492252      -1.37161023      -0.30406800
C       -0.97473373      -1.20655132      -0.27550155
C       -1.11000981       0.08473533       0.48748030
C       -0.28293998       1.20223156      -0.13093353
N        1.13316912       1.00305770       0.09182062
H        0.11319583      -1.57580414      -0.61430483
H       -1.46553210      -1.16906434      -1.25237339
H       -1.32393192      -2.07674765       0.27581152
H       -0.81646326      -0.05065258       1.53056895
H       -2.16034654       0.39055830       0.48608026
H       -0.55479095       2.15657832       0.32226701
H       -0.49918007       1.28281406      -1.20377168
H        1.72350201       1.79530093       0.27809194
15
Frame=3 idx=006502 GeodesicLength=0.2199762914140357 rxn_smarts="[O:1]=[C:2]1[N:3]([H:8])[C:4]([H:9])([H:10])[C:5]([H:11])([H:12])[C:6]([H:13])([H:14])[N:7]1[H:15]>>[O:1]1[C:2]([N:7]([C:6]([C:5]([C:4]([H:8])([H:9])[H:10])([H:11])[H:12])([H:13])[H:14])[H:15])=[N:3]1"
O        3.00111898      -0.31676533       0.31559435
C        1.80784017      -0.15228928       0.01000443
N        1.40230444      -1.34247173      -0.38234331
C       -0.96643574      -1.20561488      -0.26953528
C       -1.10562583       0.08757767       0.48960716
C       -0.28377059       1.20553137      -0.13402938
N        1.13266469       1.01104455       0.08900275
H        0.11711584      -1.64374682      -0.58354155
H       -1.45421171      -1.16741373      -1.24809407
H       -1.34504388      -2.06489836       0.28083664
H       -0.81164781      -0.04363264       1.53311389
H       -2.15657352       0.39100000       0.48941163
H       -0.55936621       2.16152220       0.31337510
H       -0.49716913       1.28123422      -1.20747154
H        1.71880029       1.79892275       0.30406917
15
Frame=4 idx=006502 GeodesicLength=0.2925754566417551 rxn_smarts="[O:1]=[C:2]1[N:3]([H:8])[C:4]([H:9])([H:10])[C:5]([H:11])([H:12])[C:6]([H:13])([H:14])[N:7]1[H:15]>>[O:1]1[C:2]([N:7]([C:6]([C:5]([C:4]([H:8])([H:9])[H:10])([H:11])[H:12])([H:13])[H:14])[H:15])=[N:3]1"
O        2.99045813      -0.33391271       0.32033577
C        1.80674801      -0.14303941      -0.00724720
N        1.40345281      -1.31004793      -0.46117357
C       -0.95513347      -1.20593146      -0.26229894
C       -1.10433671       0.09109825       0.48967499
C       -0.28441944       1.20975123      -0.13463731
N        1.13180472       1.01788648       0.09309589
H        0.12753327      -1.71049538      -0.53046608
H       -1.43270386      -1.16945307      -1.24634250
H       -1.36823968      -2.05211440       0.28493882
H       -0.81683571      -0.03372175       1.53595450
H       -2.15636094       0.39112600       0.48312716
H       -0.56399871       2.16693160       0.30800625
H       -0.49286662       1.28215944      -1.20914595
H        1.71489821       1.79976311       0.33617817
15
Frame=5 idx=006502 GeodesicLength=0.3656243441837913 rxn_smarts="[O:1]=[C:2]1[N:3]([H:8])[C:4]([H:9])([H:10])[C:5]([H:11])([H:12])[C:6]([H:13])([H:14])[N:7]1[H:15]>>[O:1]1[C:2]([N:7]([C:6]([C:5]([C:4]([H:8])([H:9])[H:10])([H:11])[H:12])([H:13])[H:14])[H:15])=[N:3]1"
O        2.98220868      -0.35258536       0.30537534
C        1.80609513      -0.13371884      -0.03252303
N        1.39640561      -1.27945590      -0.52942895
C       -0.94144539      -1.20707670      -0.25471876
C       -1.10565618       0.09479393       0.48769971
C       -0.28487449       1.21443999      -0.13318879
N        1.13037642       1.02262154       0.10149725
H        0.14432882      -1.76823552      -0.46231819
H       -1.40478074      -1.17380397      -1.24592950
H       -1.39020581      -2.03965555       0.28667177
H       -0.83000550      -0.02268540       1.53813471
H       -2.15868475       0.39066987       0.46893991
H       -0.56788125       2.17217540       0.30610706
H       -0.48704797       1.28569946      -1.20878213
H        1.71116740       1.79681706       0.37246361
15
Frame=6 idx=006502 GeodesicLength=0.4396015800098904 rxn_smarts="[O:1]=[C:2]1[N:3]([H:8])[C:4]([H:9])([H:10])[C:5]([H:11])([H:12])[C:6]([H:13])([H:14])[N:7]1[H:15]>>[O:1]1[C:2]([N:7]([C:6]([C:5]([C:4]([H:8])([H:9])[H:10])([H:11])[H:12])([H:13])[H:14])[H:15])=[N:3]1"
O        2.97586772      -0.37069810       0.27889963
C        1.80600740      -0.12430417      -0.06272117
N        1.38341954      -1.25387559      -0.58313224
C       -0.92693465      -1.20859180      -0.24741842
C       -1.10863066       0.09848602       0.48443781
C       -0.28519304       1.21913518      -0.13086627
N        1.12883074       1.02535681       0.11089223
H        0.16489090      -1.81390878      -0.39129433
H       -1.37657383      -1.17915845      -1.24529324
H       -1.40782893      -2.02876426       0.28658853
H       -0.84726634      -0.01147838       1.53941944
H       -2.16245334       0.38988272       0.45062302
H       -0.57077150       2.17714054       0.30617926
H       -0.48070675       1.29056813      -1.20747373
H        1.70734275       1.79021013       0.41115948
15
Frame=7 idx=006502 GeodesicLength=0.5141815971103412 rxn_smarts="[O:1]=[C:2]1[N:3]([H:8])[C:4]([H:9])([H:10])[C:5]([H:11])([H:12])[C:6]([H:13])([H:14])[N:7]1[H:15]>>[O:1]1[C:2]([N:7]([C:6]([C:5]([C:4]([H:8])([H:9])[H:10])([H:11])[H:12])([H:13])[H:14])[H:15])=[N:3]1"
O        2.97019542      -0.38777702       0.24861279
C        1.80628339      -0.11476337      -0.09473224
N        1.36740323      -1.23288993      -0.62494717
C       -0.91259667      -1.21021356      -0.24079061
C       -1.11250135       0.10206398       0.48068571
C       -0.28543645       1.22363079      -0.12821462
N        1.12750516       1.02671834       0.11975419
H        0.18708116      -1.84946083      -0.32360816
H       -1.35088651      -1.18471991      -1.24422972
H       -1.42084017      -2.01964093       0.28538636
H       -0.86585052      -0.00055937       1.54014687
H       -2.16697459       0.38883797       0.43119239
H       -0.57277624       2.18183727       0.30751331
H       -0.47442285       1.29578834      -1.20586712
H        1.70381699       1.78114824       0.44909801
15
Frame=8 idx=006502 GeodesicLength=0.5889831088822395 rxn_smarts="[O:1]=[C:2]1[N:3]([H:8])[C:4]([H:9])([H:10])[C:5]([H:11])([H:12])[C:6]([H:13])([H:14])[N:7]1[H:15]>>[O:1]1[C:2]([N:7]([C:6]([C:5]([C:4]([H:8])([H:9])[H:10])([H:11])[H:12])([H:13])[H:14])[H:15])=[N:3]1"
O        2.96522433      -0.40295184       0.21410591
C        1.80606228      -0.10550543      -0.12672465
N        1.34955662      -1.21551907      -0.65787862
C       -0.89847310      -1.21141691      -0.23428246
C       -1.11678149       0.10575393       0.47627523
C       -0.28562821       1.22785994      -0.12587621
N        1.12603111       1.02667202       0.12767825
H        0.21028025      -1.87732112      -0.25959318
H       -1.32764376      -1.18980209      -1.24206025
H       -1.42930289      -2.01169012       0.28451661
H       -0.88505931       0.01014311       1.53983445
H       -2.17141111       0.38808215       0.41058122
H       -0.57407653       2.18619449       0.30867542
H       -0.46810983       1.30117421      -1.20437507
H        1.69933165       1.76832673       0.48912334
15
Frame=9 idx=006502 GeodesicLength=0.6637213526758319 rxn_smarts="[O:1]=[C:2]1[N:3]([H:8])[C:4]([H:9])([H:10])[C:5]([H:11])([H:12])[C:6]([H:13])([H:14])[N:7]1[H:15]>>[O:1]1[C:2]([N:7]([C:6]([C:5]([C:4]([H:8])([H:9])[H:10])([H:11])[H:12])([H:13])[H:14])[H:15])=[N:3]1"
O        2.96028560      -0.41687857       0.17953415
C        1.80546754      -0.09653455      -0.15736616
N        1.33111618      -1.20053891      -0.68445297
C       -0.88497082      -1.21244269      -0.22834500
C       -1.12141158       0.10931551       0.47175013
C       -0.28577321       1.23188169      -0.12344638
N        1.12472878       1.02586871       0.13490884
H        0.23379365      -1.89964023      -0.20003888
H       -1.30694928      -1.19445811      -1.23963800
H       -1.43465494      -2.00499457       0.28350329
H       -0.90424087       0.02028863       1.53909867
H       -2.17597246       0.38726000       0.39019647
H       -0.57476886       2.19033642       0.31043961
H       -0.46187224       1.30654784      -1.20280299
H        1.69522251       1.75398883       0.52665921
15
Frame=10 idx=006502 GeodesicLength=0.7385436800594176 rxn_smarts="[O:1]=[C:2]1[N:3]([H:8])[C:4]([H:9])([H:10])[C:5]([H:11])([H:12])[C:6]([H:13])([H:14])[N:7]1[H:15]>>[O:1]1[C:2]([N:7]([C:6]([C:5]([C:4]([H:8])([H:9])[H:10])([H:11])[H:12])([H:13])[H:14])[H:15])=[N:3]1"
O        2.95560766      -0.42943601       0.14403897
C        1.80438019      -0.08791046      -0.18669616
N        1.31241926      -1.18742278      -0.70630791
C       -0.87201029      -1.21322207      -0.22270282
C       -1.12633418       0.11288168       0.46698892
C       -0.28587932       1.23577416      -0.12109269
N        1.12350988       1.02440133       0.14150176
H        0.25770749      -1.91774616      -0.14377444
H       -1.28825982      -1.19875148      -1.23684724
H       -1.43749963      -1.99924198       0.28281557
H       -0.92351493       0.03010839       1.53781058
H       -2.18054621       0.38657895       0.36970156
H       -0.57498119       2.19437446       0.31239272
H       -0.45563417       1.31195872      -1.20125549
H        1.69103526       1.73765326       0.56342668
15
Frame=11 idx=006502 GeodesicLength=0.8133840579797058 rxn_smarts="[O:1]=[C:2]1[N:3]([H:8])[C:4]([H:9])([H:10])[C:5]([H:11])([H:12])[C:6]([H:13])([H:14])[N:7]1[H:15]>>[O:1]1[C:2]([N:7]([C:6]([C:5]([C:4]([H:8])([H:9])[H:10])([H:11])[H:12])([H:13])[H:14])[H:15])=[N:3]1"
O        2.95101608      -0.44082350       0.10810394
C        1.80277652      -0.07962737      -0.21467690
N        1.29371117      -1.17570074      -0.72450366
C       -0.85956966      -1.21375348      -0.21733860
C       -1.13146834       0.11644486       0.46204089
C       -0.28595717       1.23955773      -0.11878447
N        1.12235659       1.02242129       0.14754347
H        0.28198599      -1.93251741      -0.09028880
H       -1.27123508      -1.20268780      -1.23382651
H       -1.43837343      -1.99423433       0.28246593
H       -0.94276046       0.03960381       1.53603118
H       -2.18506346       0.38602302       0.34921234
H       -0.57479532       2.19831077       0.31455032
H       -0.44941362       1.31740187      -1.19970295
H        1.68679021       1.71958128       0.59917383
15
Frame=12 idx=006502 GeodesicLength=0.8882381196673643 rxn_smarts="[O:1]=[C:2]1[N:3]([H:8])[C:4]([H:9])([H:10])[C:5]([H:11])([H:12])[C:6]([H:13])([H:14])[N:7]1[H:15]>>[O:1]1[C:2]([N:7]([C:6]([C:5]([C:4]([H:8])([H:9])[H:10])([H:11])[H:12])([H:13])[H:14])[H:15])=[N:3]1"
O        2.94632146      -0.45122591       0.07201618
C        1.80062930      -0.07164319      -0.24142283
N        1.27509704      -1.16504487      -0.73983454
C       -0.84759674      -1.21400145      -0.21220787
C       -1.13673108       0.12001519       0.45691905
C       -0.28601986       1.24324301      -0.11653870
N        1.12124094       1.02004025       0.15304281
H        0.30670328      -1.94451351      -0.03912618
H       -1.25560604      -1.20627534      -1.23063279
H       -1.43761330      -1.98978774       0.28251565
H       -0.96187285       0.04880585       1.53378462
H       -2.18943311       0.38558979       0.32875792
H       -0.57427142       2.20212569       0.31686855
H       -0.44325558       1.32287066      -1.19815550
H        1.68240796       1.69980155       0.63401363
15
Frame=13 idx=006502 GeodesicLength=0.9630762785915272 rxn_smarts="[O:1]=[C:2]1[N:3]([H:8])[C:4]([H:9])([H:10])[C:5]([H:11])([H:12])[C:6]([H:13])([H:14])[N:7]1[H:15]>>[O:1]1[C:2]([N:7]([C:6]([C:5]([C:4]([H:8])([H:9])[H:10])([H:11])[H:12])([H:13])[H:14])[H:15])=[N:3]1"
O        2.94148206      -0.46080310       0.03603754
C        1.79799767      -0.06396574      -0.26694151
N        1.25670097      -1.15523250      -0.75279079
C       -0.83609365      -1.21401160      -0.20732837
C       -1.14210474       0.12357437       0.45166757
C       -0.28607111       1.24685632      -0.11430687
N        1.12017512       1.01736123       0.15810051
H        0.33183432      -1.95424819       0.01001241
H       -1.24117506      -1.20953845      -1.22737414
H       -1.43558639      -1.98582399       0.28288474
H       -0.98081855       0.05769080       1.53113336
H       -2.19367645       0.38526269       0.30843094
H       -0.57347221       2.20585132       0.31939654
H       -0.43714639       1.32838409      -1.19657114
H        1.67795440       1.67864274       0.66764921
15
Frame=14 idx=006502 GeodesicLength=1.0379333035229952 rxn_smarts="[O:1]=[C:2]1[N:3]([H:8])[C:4]([H:9])([H:10])[C:5]([H:11])([H:12])[C:6]([H:13])([H:14])[N:7]1[H:15]>>[O:1]1[C:2]([N:7]([C:6]([C:5]([C:4]([H:8])([H:9])[H:10])([H:11])[H:12])([H:13])[H:14])[H:15])=[N:3]1"
O        2.93644338      -0.46965481       0.00017222
C        1.79489999      -0.05655380      -0.29139128
N        1.23855530      -1.14611756      -0.76379927
C       -0.82502650      -1.21377811      -0.20266218
C       -1.14756464       0.12713982       0.44627913
C       -0.28611450       1.25041403      -0.11209980
N        1.11915251       1.01444982       0.16274295
H        0.35747887      -1.96200791       0.05748656
H       -1.22777497      -1.21252365      -1.22407119
H       -1.43250312      -1.98224007       0.28361209
H       -0.99960265       0.06630858       1.52809053
H       -2.19777023       0.38505447       0.28818845
H       -0.57243313       2.20949529       0.32210498
H       -0.43109598       1.33394920      -1.19495922
H        1.67335568       1.65606470       0.70030602
15
Frame=15 idx=006502 GeodesicLength=1.1127850370658394 rxn_smarts="[O:1]=[C:2]1[N:3]([H:8])[C:4]([H:9])([H:10])[C:5]([H:11])([H:12])[C:6]([H:13])([H:14])[N:7]1[H:15]>>[O:1]1[C:2]([N:7]([C:6]([C:5]([C:4]([H:8])([H:9])[H:10])([H:11])[H:12])([H:13])[H:14])[H:15])=[N:3]1"
O        2.93111293      -0.47794536      -0.03530263
C        1.79136995      -0.04940826      -0.31478863
N        1.22069798      -1.13756719      -0.77315070
C       -0.81438845      -1.21331358      -0.19823598
C       -1.15307740       0.13069160       0.44079102
C       -0.28615691       1.25391912      -0.10988950
N        1.11817025       1.01136858       0.16701771
H        0.38365545      -1.96807856       0.10345965
H       -1.21528718      -1.21521074      -1.22079693
H       -1.42857418      -1.97897182       0.28461488
H       -1.01815065       0.07461276       1.52470260
H       -2.20170195       0.38494918       0.26812382
H       -0.57120080       2.21305027       0.32501985
H       -0.42511437       1.33956727      -1.19329232
H        1.66864533       1.63233675       0.73172717
15
Frame=16 idx=006502 GeodesicLength=1.1876257668666743 rxn_smarts="[O:1]=[C:2]1[N:3]([H:8])[C:4]([H:9])([H:10])[C:5]([H:11])([H:12])[C:6]([H:13])([H:14])[N:7]1[H:15]>>[O:1]1[C:2]([N:7]([C:6]([C:5]([C:4]([H:8])([H:9])[H:10])([H:11])[H:12])([H:13])[H:14])[H:15])=[N:3]1"
O        2.92543449      -0.48580145      -0.07023054
C        1.78743985      -0.04252393      -0.33717988
N        1.20314233      -1.12949061      -0.78108682
C       -0.80417304      -1.21262644      -0.19406306
C       -1.15862117       0.13422097       0.43522490
C       -0.28620371       1.25737313      -0.10766183
N        1.11722559       1.00816385       0.17096383
H        0.41041131      -1.97266891       0.14809918
H       -1.20361794      -1.21759625      -1.21760108
H       -1.42396572      -1.97596298       0.28583966
H       -1.03641941       0.08258304       1.52100374
H       -2.20546524       0.38494425       0.24828547
H       -0.56981420       2.21651103       0.32814565
H       -0.41920795       1.34523368      -1.19155698
H        1.66383480       1.60764063       0.76181777
