10
Frame=0 idx=001542 GeodesicLength=0.0 rxn_smarts="[C:1]([C:2]([C:3](=[O:4])[H:10])([H:8])[H:9])([H:5])([H:6])[H:7]>>[C:1]([O:4][C:3](=[C:2]([H:8])[H:9])[H:10])([H:5])([H:6])[H:7]"
C       -1.18079098       0.70833119      -0.00556272
C        0.42661269      -1.06385594       0.12100260
C        1.26409045       0.02995849       0.00737407
O        0.82026077       1.14822266      -0.34130584
H       -1.05784478       1.13890794       0.97614390
H       -1.84640309      -0.14052009      -0.05306045
H       -1.29055543       1.40906919      -0.81955308
H        0.71670761      -1.95414644       0.66844806
H       -0.19506691      -1.23336060      -0.75102150
H        2.34298966      -0.04260640       0.19753495
10
Frame=1 idx=001542 GeodesicLength=0.0426969326081766 rxn_smarts="[C:1]([C:2]([C:3](=[O:4])[H:10])([H:8])[H:9])([H:5])([H:6])[H:7]>>[C:1]([O:4][C:3](=[C:2]([H:8])[H:9])[H:10])([H:5])([H:6])[H:7]"
C       -1.16667336       0.69986505      -0.00727125
C        0.41758216      -1.05431109       0.12434168
C        1.26645246       0.03132237      -0.00375481
O        0.82120604       1.15439818      -0.33939186
H       -1.05963617       1.11343361       0.98434301
H       -1.84710512      -0.13654615      -0.07906653
H       -1.29288171       1.42115396      -0.80155960
H        0.70563704      -1.93195007       0.69309002
H       -0.18992432      -1.24915646      -0.75243842
H        2.34534298      -0.04820941       0.18170775
10
Frame=2 idx=001542 GeodesicLength=0.0854158213781013 rxn_smarts="[C:1]([C:2]([C:3](=[O:4])[H:10])([H:8])[H:9])([H:5])([H:6])[H:7]>>[C:1]([O:4][C:3](=[C:2]([H:8])[H:9])[H:10])([H:5])([H:6])[H:7]"
C       -1.15284051       0.69175047      -0.00923471
C        0.40877287      -1.04496044       0.12737134
C        1.26851922       0.03263283      -0.01452153
O        0.82212351       1.16054260      -0.33685765
H       -1.06185252       1.08809764       0.99176466
H       -1.84710439      -0.13197713      -0.10479573
H       -1.29503382       1.43269353      -0.78338260
H        0.69508056      -1.90956890       0.71679489
H       -0.18507023      -1.26519939      -0.75284403
H        2.34740531      -0.05401121       0.16570537
10
Frame=3 idx=001542 GeodesicLength=0.12817195719014124 rxn_smarts="[C:1]([C:2]([C:3](=[O:4])[H:10])([H:8])[H:9])([H:5])([H:6])[H:7]>>[C:1]([O:4][C:3](=[C:2]([H:8])[H:9])[H:10])([H:5])([H:6])[H:7]"
C       -1.13933191       0.68395785      -0.01148010
C        0.40014464      -1.03575822       0.13033728
C        1.27025094       0.03400245      -0.02448335
O        0.82300610       1.16678449      -0.33319800
H       -1.06482926       1.06278305       0.99841484
H       -1.84631822      -0.12693662      -0.13064129
H       -1.29691153       1.44378978      -0.76502208
H        0.68483043      -1.88694948       0.73993577
H       -0.18023661      -1.28136990      -0.75218641
H        2.34939543      -0.06030341       0.14832333
10
Frame=4 idx=001542 GeodesicLength=0.17098207460624215 rxn_smarts="[C:1]([C:2]([C:3](=[O:4])[H:10])([H:8])[H:9])([H:5])([H:6])[H:7]>>[C:1]([O:4][C:3](=[C:2]([H:8])[H:9])[H:10])([H:5])([H:6])[H:7]"
C       -1.12604835       0.67650839      -0.01390422
C        0.39169985      -1.02675335       0.13298609
C        1.27172927       0.03532462      -0.03428797
O        0.82389437       1.17300563      -0.32899859
H       -1.06813104       1.03762175       1.00433467
H       -1.84486743      -0.12139214      -0.15612259
H       -1.29859272       1.45430131      -0.74655534
H        0.67505368      -1.86420572       0.76212975
H       -0.17575353      -1.29774939      -0.75059027
H        2.35101589      -0.06666109       0.13100847
10
Frame=5 idx=001542 GeodesicLength=0.21381882210133532 rxn_smarts="[C:1]([C:2]([C:3](=[O:4])[H:10])([H:8])[H:9])([H:5])([H:6])[H:7]>>[C:1]([O:4][C:3](=[C:2]([H:8])[H:9])[H:10])([H:5])([H:6])[H:7]"
C       -1.11303072       0.66938578      -0.01653009
C        0.38342314      -1.01791213       0.13552708
C        1.27294670       0.03665577      -0.04363405
O        0.82477727       1.17927009      -0.32385152
H       -1.07202660       1.01249322       1.00953371
H       -1.84269960      -0.11539088      -0.18165907
H       -1.30006838       1.46434892      -0.72793304
H        0.66565448      -1.84126273       0.78371303
H       -0.17142524      -1.31424698      -0.74797778
H        2.35244894      -0.07334105       0.11281173
10
Frame=6 idx=001542 GeodesicLength=0.25668655805010354 rxn_smarts="[C:1]([C:2]([C:3](=[O:4])[H:10])([H:8])[H:9])([H:5])([H:6])[H:7]>>[C:1]([O:4][C:3](=[C:2]([H:8])[H:9])[H:10])([H:5])([H:6])[H:7]"
C       -1.10023652       0.66259976      -0.01929710
C        0.37530164      -1.00924823       0.13788354
C        1.27392566       0.03797074      -0.05275100
O        0.82567821       1.18555273      -0.31793423
H       -1.07638007       0.98749470       1.01403067
H       -1.83986386      -0.10895284      -0.20703176
H       -1.30133660       1.47385761      -0.70924170
H        0.65668609      -1.81820549       0.80451330
H       -0.16735903      -1.33089140      -0.74440669
H        2.35358449      -0.08017758       0.09423498
10
Frame=7 idx=001542 GeodesicLength=0.2995783919844333 rxn_smarts="[C:1]([C:2]([C:3](=[O:4])[H:10])([H:8])[H:9])([H:5])([H:6])[H:7]>>[C:1]([O:4][C:3](=[C:2]([H:8])[H:9])[H:10])([H:5])([H:6])[H:7]"
C       -1.08763562       0.65614911      -0.02215336
C        0.36732161      -1.00077242       0.14000231
C        1.27467592       0.03924848      -0.06178353
O        0.82659831       1.19180489      -0.31139640
H       -1.08106100       0.96270556       1.01783827
H       -1.83638994      -0.10209922      -0.23208959
H       -1.30243224       1.48276730      -0.69055024
H        0.64818136      -1.79511067       0.82441586
H       -0.16362146      -1.34763991      -0.73993136
H        2.35436306      -0.08705312       0.07564803
10
Frame=8 idx=001542 GeodesicLength=0.34248337180156224 rxn_smarts="[C:1]([C:2]([C:3](=[O:4])[H:10])([H:8])[H:9])([H:5])([H:6])[H:7]>>[C:1]([O:4][C:3](=[C:2]([H:8])[H:9])[H:10])([H:5])([H:6])[H:7]"
C       -1.07520556       0.65002802      -0.02505023
C        0.35947253      -0.99249397       0.14182701
C        1.27520519       0.04047308      -0.07084583
O        0.82753719       1.19797773      -0.30439704
H       -1.08594794       0.93820958       1.02097702
H       -1.83232381      -0.09485844      -0.25667124
H       -1.30338621       1.49102682      -0.67192927
H        0.64015643      -1.77205356       0.84331633
H       -0.16025773      -1.36444788      -0.73462462
H        2.35474991      -0.09386137       0.05739788
10
Frame=9 idx=001542 GeodesicLength=0.38538299380349855 rxn_smarts="[C:1]([C:2]([C:3](=[O:4])[H:10])([H:8])[H:9])([H:5])([H:6])[H:7]>>[C:1]([O:4][C:3](=[C:2]([H:8])[H:9])[H:10])([H:5])([H:6])[H:7]"
C       -1.06293393       0.64422819      -0.02794112
C        0.35174375      -0.98442143       0.14330721
C        1.27552644       0.04164114      -0.08000125
O        0.82849620       1.20402578      -0.29710198
H       -1.09093287       0.91409381       1.02347699
H       -1.82772757      -0.08726642      -0.28061599
H       -1.30423318       1.49859027      -0.65345316
H        0.63260264      -1.74911594       0.86112687
H       -0.15728527      -1.38126129      -0.72857765
H        2.35474380      -0.10051411       0.03978009
10
Frame=10 idx=001542 GeodesicLength=0.4282705230573269 rxn_smarts="[C:1]([C:2]([C:3](=[O:4])[H:10])([H:8])[H:9])([H:5])([H:6])[H:7]>>[C:1]([O:4][C:3](=[C:2]([H:8])[H:9])[H:10])([H:5])([H:6])[H:7]"
C       -1.05080797       0.63873695      -0.03079484
C        0.34413347      -0.97656267       0.14439131
C        1.27564161       0.04274280      -0.08929169
O        0.82946335       1.20990021      -0.28968927
H       -1.09589105       0.89041730       1.02538039
H       -1.82267975      -0.07936503      -0.30379426
H       -1.30500382       1.50544623      -0.63517347
H        0.62551714      -1.72634976       0.87779522
H       -0.15472262      -1.39803070      -0.72189542
H        2.35434965      -0.10693533       0.02307204
10
Frame=11 idx=001542 GeodesicLength=0.4711434912963869 rxn_smarts="[C:1]([C:2]([C:3](=[O:4])[H:10])([H:8])[H:9])([H:5])([H:6])[H:7]>>[C:1]([O:4][C:3](=[C:2]([H:8])[H:9])[H:10])([H:5])([H:6])[H:7]"
C       -1.03884517       0.63354134      -0.03361558
C        0.33663240      -0.96889067       0.14520969
C        1.27556632       0.04382780      -0.09855363
O        0.83043596       1.21565271      -0.28190107
H       -1.10100781       0.86710791       1.02669738
H       -1.81715281      -0.07117807      -0.32642839
H       -1.30566918       1.51166648      -0.61709416
H        0.61883117      -1.70373534       0.89351437
H       -0.15244678      -1.41472371      -0.71452326
H        2.35365590      -0.11326846       0.00669466
10
Frame=12 idx=001542 GeodesicLength=0.5140271202091768 rxn_smarts="[C:1]([C:2]([C:3](=[O:4])[H:10])([H:8])[H:9])([H:5])([H:6])[H:7]>>[C:1]([O:4][C:3](=[C:2]([H:8])[H:9])[H:10])([H:5])([H:6])[H:7]"
C       -1.02704241       0.62862224      -0.03641892
C        0.32923853      -0.96138331       0.14583757
C        1.27530340       0.04491185      -0.10781613
O        0.83146284       1.22131228      -0.27354753
H       -1.10638268       0.84401458       1.02745612
H       -1.81116770      -0.06270294      -0.34875122
H       -1.30617088       1.51733627      -0.59917627
H        0.61256543      -1.68118415       0.90844540
H       -0.15050009      -1.43138133      -0.70637885
H        2.35269357      -0.11954549      -0.00965017
10
Frame=13 idx=001542 GeodesicLength=0.5569681958920031 rxn_smarts="[C:1]([C:2]([C:3](=[O:4])[H:10])([H:8])[H:9])([H:5])([H:6])[H:7]>>[C:1]([O:4][C:3](=[C:2]([H:8])[H:9])[H:10])([H:5])([H:6])[H:7]"
C       -1.01535808       0.62396425      -0.03914418
C        0.32193288      -0.95405882       0.14620297
C        1.27483282       0.04600617      -0.11699961
O        0.83246379       1.22681354      -0.26492367
H       -1.11182737       0.82129460       1.02766038
H       -1.80470613      -0.05400976      -0.37048026
H       -1.30656964       1.52238617      -0.58150440
H        0.60660882      -1.65883166       0.92246242
H       -0.14876996      -1.44786560      -0.69762604
H        2.35139287      -0.12569889      -0.02564761
10
Frame=14 idx=001542 GeodesicLength=0.5998919675973654 rxn_smarts="[C:1]([C:2]([C:3](=[O:4])[H:10])([H:8])[H:9])([H:5])([H:6])[H:7]>>[C:1]([O:4][C:3](=[C:2]([H:8])[H:9])[H:10])([H:5])([H:6])[H:7]"
C       -1.00382663       0.61955793      -0.04180088
C        0.31473226      -0.94691018       0.14633766
C        1.27420077       0.04710331      -0.12617677
O        0.83349553       1.23215671      -0.25596032
H       -1.11741382       0.79885663       1.02736160
H       -1.79786452      -0.04507568      -0.39176556
H       -1.30686948       1.52689181      -0.56404753
H        0.60101380      -1.63662034       0.93567770
H       -0.14732604      -1.46422441      -0.68824494
H        2.34985814      -0.13173577      -0.04138097
10
Frame=15 idx=001542 GeodesicLength=0.6428282537375068 rxn_smarts="[C:1]([C:2]([C:3](=[O:4])[H:10])([H:8])[H:9])([H:5])([H:6])[H:7]>>[C:1]([O:4][C:3](=[C:2]([H:8])[H:9])[H:10])([H:5])([H:6])[H:7]"
C       -0.99244238       0.61539429      -0.04439044
C        0.30762767      -0.93992228       0.14634830
C        1.27339838       0.04823279      -0.13525711
O        0.83455477       1.23738037      -0.24642338
H       -1.12328271       0.77662236       1.02654585
H       -1.79056978      -0.03590675      -0.41282211
H       -1.30703960       1.53092229      -0.54678453
H        0.59575462      -1.61451190       0.94824567
H       -0.14609231      -1.48045818      -0.67815273
H        2.34809131      -0.13775298      -0.05730952
10
Frame=16 idx=001542 GeodesicLength=0.6858290047264511 rxn_smarts="[C:1]([C:2]([C:3](=[O:4])[H:10])([H:8])[H:9])([H:5])([H:6])[H:7]>>[C:1]([O:4][C:3](=[C:2]([H:8])[H:9])[H:10])([H:5])([H:6])[H:7]"
C       -0.98118670       0.61145110      -0.04691124
C        0.30061847      -0.93308011       0.14627246
C        1.27241129       0.04940522      -0.14423900
O        0.83564041       1.24246830      -0.23622915
H       -1.12947329       0.75450569       1.02520590
H       -1.78277545      -0.02649376      -0.43376981
H       -1.30705441       1.53451592      -0.52967246
H        0.59080879      -1.59244254       0.96026112
H       -0.14505566      -1.49656335      -0.66730961
H        2.34606656      -0.14376647      -0.07360820
