10
Frame=0 idx=003089 GeodesicLength=0.0 rxn_smarts="[N:1]([c:2]1[c:3]([H:9])[o:4][c:5]([H:10])[n:6]1)([H:7])[H:8]>>[N:1]([C:2]#[C:3][H:9])([H:7])[H:8].[O:4]=[C:5]=[N:6][H:10]"
N        1.93940590      -0.38972771       0.30574121
C        0.91593823       0.43744380       0.03936337
C        0.20344417       1.40060407      -0.17753174
O       -2.53915457       0.56937224      -0.19969047
C       -1.81001844      -0.36514747      -0.01161445
N       -0.64609006      -0.83413765       0.12949401
H        2.82395801      -0.13038760      -0.09718597
H        1.71050171      -1.36816307       0.23492330
H       -0.49459578       2.18109042      -0.37057767
H       -2.10338917      -1.50094704       0.14707841
10
Frame=1 idx=003089 GeodesicLength=0.05906586162206303 rxn_smarts="[N:1]([c:2]1[c:3]([H:9])[o:4][c:5]([H:10])[n:6]1)([H:7])[H:8]>>[N:1]([C:2]#[C:3][H:9])([H:7])[H:8].[O:4]=[C:5]=[N:6][H:10]"
N        1.93480969      -0.38553629       0.29986299
C        0.89959153       0.42423926       0.01875907
C        0.18820280       1.40186434      -0.15235161
O       -2.52589319       0.57680813      -0.19797832
C       -1.81854570      -0.35941086       0.06391984
N       -0.65874640      -0.83353905       0.21038748
H        2.81198607      -0.13134636      -0.12205397
H        1.71220891      -1.36700976       0.25295737
H       -0.46851462       2.19923491      -0.41105991
H       -2.07509908      -1.52530431       0.03755705
10
Frame=2 idx=003089 GeodesicLength=0.12065641202968128 rxn_smarts="[N:1]([c:2]1[c:3]([H:9])[o:4][c:5]([H:10])[n:6]1)([H:7])[H:8]>>[N:1]([C:2]#[C:3][H:9])([H:7])[H:8].[O:4]=[C:5]=[N:6][H:10]"
N        1.92737333      -0.38163099       0.29563080
C        0.87946275       0.41071627       0.00507779
C        0.17182605       1.40043419      -0.13692493
O       -2.51342946       0.58356533      -0.18026294
C       -1.82883788      -0.36047809       0.12252446
N       -0.67192452      -0.83192216       0.28959991
H        2.79527062      -0.13444047      -0.14906027
H        1.71105035      -1.36555508       0.27534112
H       -0.44255580       2.21235290      -0.44993419
H       -2.02823544      -1.53304190      -0.07199174
10
Frame=3 idx=003089 GeodesicLength=0.1842698418383628 rxn_smarts="[N:1]([c:2]1[c:3]([H:9])[o:4][c:5]([H:10])[n:6]1)([H:7])[H:8]>>[N:1]([C:2]#[C:3][H:9])([H:7])[H:8].[O:4]=[C:5]=[N:6][H:10]"
N        1.91846488      -0.37817215       0.29364987
C        0.85737217       0.39796248       0.00082192
C        0.15412973       1.39761140      -0.12624543
O       -2.50300204       0.59074519      -0.15065069
C       -1.83980419      -0.36650219       0.16823593
N       -0.68485562      -0.83234574       0.35519572
H        2.77507472      -0.13874815      -0.17647987
H        1.70867427      -1.36381547       0.29912623
H       -0.41661454       2.22036182      -0.49062368
H       -1.96943937      -1.52709719      -0.17303001
10
Frame=4 idx=003089 GeodesicLength=0.24897395557265461 rxn_smarts="[N:1]([c:2]1[c:3]([H:9])[o:4][c:5]([H:10])[n:6]1)([H:7])[H:8]>>[N:1]([C:2]#[C:3][H:9])([H:7])[H:8].[O:4]=[C:5]=[N:6][H:10]"
N        1.91010247      -0.37253899       0.29579110
C        0.83520048       0.38410668      -0.00387220
C        0.13528822       1.39173857      -0.12443155
O       -2.49507866       0.60065087      -0.09912617
C       -1.85058718      -0.37683976       0.20684894
N       -0.69603254      -0.84066120       0.39410011
H        2.75559269      -0.14230631      -0.19851136
H        1.70965408      -1.35958795       0.33158858
H       -0.39157208       2.22322139      -0.53360180
H       -1.91256747      -1.50778331      -0.26878564
10
Frame=5 idx=003089 GeodesicLength=0.3146902240891248 rxn_smarts="[N:1]([c:2]1[c:3]([H:9])[o:4][c:5]([H:10])[n:6]1)([H:7])[H:8]>>[N:1]([C:2]#[C:3][H:9])([H:7])[H:8].[O:4]=[C:5]=[N:6][H:10]"
N        1.90206705      -0.36684828       0.29795518
C        0.81305068       0.37231986      -0.00008487
C        0.11553172       1.38639137      -0.12109627
O       -2.48681708       0.60849057      -0.05067928
C       -1.86132739      -0.38984488       0.23731813
N       -0.70709309      -0.85076708       0.42589980
H        2.73352545      -0.14722226      -0.22425337
H        1.71068219      -1.35428474       0.36299604
H       -0.36568723       2.22267485      -0.57537884
H       -1.85393231      -1.48090941      -0.35267652
10
Frame=6 idx=003089 GeodesicLength=0.3808122694322521 rxn_smarts="[N:1]([c:2]1[c:3]([H:9])[o:4][c:5]([H:10])[n:6]1)([H:7])[H:8]>>[N:1]([C:2]#[C:3][H:9])([H:7])[H:8].[O:4]=[C:5]=[N:6][H:10]"
N        1.89511945      -0.35906687       0.30269082
C        0.79175947       0.36013997       0.00281203
C        0.09520499       1.37910566      -0.12337137
O       -2.47831397       0.61655390       0.01006368
C       -1.87136307      -0.40548374       0.26418628
N       -0.71663904      -0.86711375       0.44004198
H        2.71282331      -0.15134752      -0.24554217
H        1.71491710      -1.34607216       0.39957162
H       -0.34041040       2.21787181      -0.61845143
H       -1.80309784      -1.44458731      -0.43200143
10
Frame=7 idx=003089 GeodesicLength=0.4475695102472297 rxn_smarts="[N:1]([c:2]1[c:3]([H:9])[o:4][c:5]([H:10])[n:6]1)([H:7])[H:8]>>[N:1]([C:2]#[C:3][H:9])([H:7])[H:8].[O:4]=[C:5]=[N:6][H:10]"
N        1.88844818      -0.35099184       0.30681177
C        0.77093624       0.34969250       0.00997770
C        0.07459538       1.37252059      -0.12535045
O       -2.46868901       0.62202835       0.06548788
C       -1.88110743      -0.42237559       0.28537298
N       -0.72598775      -0.88419279       0.45013403
H        2.69030222      -0.15716244      -0.26929541
H        1.71916796      -1.33639159       0.43535185
H       -0.31418304       2.21219500      -0.65764783
H       -1.75348275      -1.40532219      -0.50084253
10
Frame=8 idx=003089 GeodesicLength=0.5146531614851836 rxn_smarts="[N:1]([c:2]1[c:3]([H:9])[o:4][c:5]([H:10])[n:6]1)([H:7])[H:8]>>[N:1]([C:2]#[C:3][H:9])([H:7])[H:8].[O:4]=[C:5]=[N:6][H:10]"
N        1.88224005      -0.34166234       0.31176116
C        0.75083467       0.33992260       0.01752202
C        0.05383447       1.36550883      -0.13011882
O       -2.45756633       0.62585397       0.12464169
C       -1.89008117      -0.44066305       0.30318599
N       -0.73444587      -0.90398921       0.45105280
H        2.66768009      -0.16396006      -0.29159914
H        1.72454370      -1.32413781       0.47367387
H       -0.28788668       2.20454512      -0.69578383
H       -1.70915293      -1.36141805      -0.56433573
10
Frame=9 idx=003089 GeodesicLength=0.58220972049227 rxn_smarts="[N:1]([c:2]1[c:3]([H:9])[o:4][c:5]([H:10])[n:6]1)([H:7])[H:8]>>[N:1]([C:2]#[C:3][H:9])([H:7])[H:8].[O:4]=[C:5]=[N:6][H:10]"
N        1.87617862      -0.33167544       0.31620645
C        0.73121703       0.33176405       0.02742501
C        0.03296545       1.35912374      -0.13558033
O       -2.44507305       0.62717459       0.18156519
C       -1.89848015      -0.45976268       0.31695506
N       -0.74240165      -0.92430968       0.44782586
H        2.64311998      -0.17341610      -0.31577106
H        1.72988895      -1.30957261       0.51323089
H       -0.26073858       2.19663809      -0.73078871
H       -1.66667660      -1.31596398      -0.62106837
10
Frame=10 idx=003089 GeodesicLength=0.6501904846723745 rxn_smarts="[N:1]([c:2]1[c:3]([H:9])[o:4][c:5]([H:10])[n:6]1)([H:7])[H:8]>>[N:1]([C:2]#[C:3][H:9])([H:7])[H:8].[O:4]=[C:5]=[N:6][H:10]"
N        1.87017005      -0.32081338       0.32038346
C        0.71207662       0.32497383       0.03833608
C        0.01204475       1.35314921      -0.14247055
O       -2.43093310       0.62602865       0.23864732
C       -1.90606941      -0.47962043       0.32755571
N       -0.74958090      -0.94543766       0.43937334
H        2.61687678      -0.18578849      -0.34063069
H        1.73532590      -1.29212196       0.55500792
H       -0.23295338       2.18841255      -0.76339703
H       -1.62695732      -1.26878231      -0.67280557
10
Frame=11 idx=003089 GeodesicLength=0.7186486211027165 rxn_smarts="[N:1]([c:2]1[c:3]([H:9])[o:4][c:5]([H:10])[n:6]1)([H:7])[H:8]>>[N:1]([C:2]#[C:3][H:9])([H:7])[H:8].[O:4]=[C:5]=[N:6][H:10]"
N        1.86400425      -0.30931756       0.32370916
C        0.69324906       0.31984958       0.05060528
C       -0.00893639       1.34792038      -0.15022651
O       -2.41534240       0.62219041       0.29390900
C       -1.91288716      -0.49993325       0.33506128
N       -0.75603553      -0.96650584       0.42757630
H        2.58811590      -0.20178976      -0.36690126
H        1.74052690      -1.27172481       0.59827592
H       -0.20403164       2.18076467      -0.79277277
H       -1.58866300      -1.22145381      -0.71923641
10
Frame=12 idx=003089 GeodesicLength=0.7875442565850393 rxn_smarts="[N:1]([c:2]1[c:3]([H:9])[o:4][c:5]([H:10])[n:6]1)([H:7])[H:8]>>[N:1]([C:2]#[C:3][H:9])([H:7])[H:8].[O:4]=[C:5]=[N:6][H:10]"
N        1.85743182      -0.29735437       0.32598909
C        0.67460089       0.31608297       0.06303477
C       -0.02995571       1.34329159      -0.15925404
O       -2.39842977       0.61582135       0.34681300
C       -1.91895868      -0.52040434       0.34010408
N       -0.76179045      -0.98715734       0.41328608
H        2.55717956      -0.22108417      -0.39336839
H        1.74537708      -1.24850238       0.64195925
H       -0.17365286       2.17450116      -0.81831697
H       -1.55180188      -1.17519446      -0.76024689
10
Frame=13 idx=003089 GeodesicLength=0.8569046069685324 rxn_smarts="[N:1]([c:2]1[c:3]([H:9])[o:4][c:5]([H:10])[n:6]1)([H:7])[H:8]>>[N:1]([C:2]#[C:3][H:9])([H:7])[H:8].[O:4]=[C:5]=[N:6][H:10]"
N        1.85036100      -0.28494007       0.32706414
C        0.65604824       0.31355087       0.07497551
C       -0.05105748       1.33916805      -0.16986905
O       -2.38026057       0.60706408       0.39726295
C       -1.92425353      -0.54091275       0.34311873
N       -0.76679717      -1.00720770       0.39702799
H        2.52396642      -0.24397732      -0.41967242
H        1.74985512      -1.22219782       0.68591117
H       -0.14165110       2.17023120      -0.83954490
H       -1.51621092      -1.13077854      -0.79627412
10
Frame=14 idx=003089 GeodesicLength=0.9266661883019031 rxn_smarts="[N:1]([c:2]1[c:3]([H:9])[o:4][c:5]([H:10])[n:6]1)([H:7])[H:8]>>[N:1]([C:2]#[C:3][H:9])([H:7])[H:8].[O:4]=[C:5]=[N:6][H:10]"
N        1.84265244      -0.27218284       0.32696258
C        0.63751907       0.31173555       0.08493236
C       -0.07225127       1.33518931      -0.18288386
O       -2.36080853       0.59633027       0.44529995
C       -1.92883184      -0.56123645       0.34486341
N       -0.77116598      -1.02658130       0.37929976
H        2.48944504      -0.26976531      -0.44426727
H        1.75380928      -1.19303058       0.72915215
H       -0.10798801       2.16861851      -0.85588685
H       -1.48238019      -1.08907717      -0.82747222
10
Frame=15 idx=003089 GeodesicLength=0.9967673714914869 rxn_smarts="[N:1]([c:2]1[c:3]([H:9])[o:4][c:5]([H:10])[n:6]1)([H:7])[H:8]>>[N:1]([C:2]#[C:3][H:9])([H:7])[H:8].[O:4]=[C:5]=[N:6][H:10]"
N        1.83426621      -0.25919105       0.32568959
C        0.61897569       0.31028138       0.09204136
C       -0.09355084       1.33104471      -0.19897726
O       -2.34004204       0.58409221       0.49084703
C       -1.93278054      -0.58118297       0.34595965
N       -0.77505258      -1.04522234       0.36066295
H        2.45444100      -0.29784244      -0.46623531
H        1.75706322      -1.16124898       0.77095505
H       -0.07274912       2.17006506      -0.86679125
H       -1.45057100      -1.05079558      -0.85415181
10
Frame=16 idx=003089 GeodesicLength=1.0670634209166483 rxn_smarts="[N:1]([c:2]1[c:3]([H:9])[o:4][c:5]([H:10])[n:6]1)([H:7])[H:8]>>[N:1]([C:2]#[C:3][H:9])([H:7])[H:8].[O:4]=[C:5]=[N:6][H:10]"
N        1.82520281      -0.24613270       0.32330583
C        0.60041034       0.30879297       0.09561839
C       -0.11490118       1.32635538      -0.21888167
O       -2.31796625       0.57104939       0.53355879
C       -1.93627179      -0.60046338       0.34704616
N       -0.77873475      -1.06305930       0.34186523
H        2.42010622      -0.32710401      -0.48472458
H        1.75938255      -1.12747727       0.81031328
H       -0.03617939       2.17474757      -0.87160034
H       -1.42104856      -1.01670865      -0.87650110
