16
Frame=0 idx=008331 GeodesicLength=0.0 rxn_smarts="[N:1](=[C:2]1/[C:3]([H:9])([H:10])[C:4]([H:11])([H:12])[C:5]([H:13])([H:14])[C:6]([H:15])([H:16])[O:7]1)\[H:8]>>[N:1](=[C:2](/[C:3]([C:4]([C:5]([C:6](=[O:7])[H:15])([H:13])[H:14])([H:11])[H:12])([H:9])[H:10])[H:16])\[H:8]"
N        2.34223973       0.95504342      -0.18417511
C        1.25270093       0.40035646      -0.11435761
C        0.81058609      -1.02357614      -0.21839332
C       -0.62040837      -1.25332800       0.26646631
C       -1.48580332      -0.03539519      -0.05890721
C       -0.62403338       1.17812659       0.22514699
O        0.10621551       1.11533694       1.31054062
H        2.46099210       1.95326848      -0.14432614
H        0.92957971      -1.29585481      -1.27085494
H        1.52526112      -1.61156715       0.35694218
H       -0.60169514      -1.38860298       1.34596685
H       -1.02505469      -2.16300661      -0.17825759
H       -1.84465348      -0.03001105      -1.09284786
H       -2.35824841      -0.00655772       0.59899229
H       -1.05784201       2.15065449      -0.06929038
H        0.19016365       1.05511329      -0.77264503
16
Frame=1 idx=008331 GeodesicLength=0.08901632600357115 rxn_smarts="[N:1](=[C:2]1/[C:3]([H:9])([H:10])[C:4]([H:11])([H:12])[C:5]([H:13])([H:14])[C:6]([H:15])([H:16])[O:7]1)\[H:8]>>[N:1](=[C:2](/[C:3]([C:4]([C:5]([C:6](=[O:7])[H:15])([H:13])[H:14])([H:11])[H:12])([H:9])[H:10])[H:16])\[H:8]"
N        2.36239066       0.93234100      -0.17701463
C        1.25753185       0.40204360      -0.11771973
C        0.81224086      -1.02216470      -0.22258943
C       -0.61575315      -1.25008624       0.27280462
C       -1.48694597      -0.03887942      -0.06117456
C       -0.64298796       1.18670530       0.22372631
O        0.10859966       1.13428757       1.29515463
H        2.49010557       1.92991270      -0.13141719
H        0.91676963      -1.29187316      -1.27744110
H        1.53009898      -1.61534765       0.34314874
H       -0.59236080      -1.37543519       1.35372503
H       -1.02049470      -2.16535332      -0.16020327
H       -1.83267581      -0.04136736      -1.09972278
H       -2.36852864      -0.01600319       0.58452026
H       -1.10669083       2.15300937      -0.04301076
H        0.18870063       1.07821070      -0.78278614
16
Frame=2 idx=008331 GeodesicLength=0.1778400451279622 rxn_smarts="[N:1](=[C:2]1/[C:3]([H:9])([H:10])[C:4]([H:11])([H:12])[C:5]([H:13])([H:14])[C:6]([H:15])([H:16])[O:7]1)\[H:8]>>[N:1](=[C:2](/[C:3]([C:4]([C:5]([C:6](=[O:7])[H:15])([H:13])[H:14])([H:11])[H:12])([H:9])[H:10])[H:16])\[H:8]"
N        2.38227935       0.90922477      -0.16978234
C        1.26269040       0.40369701      -0.12141976
C        0.81398609      -1.02077875      -0.22669725
C       -0.61102252      -1.24656021       0.27910648
C       -1.48795415      -0.04218354      -0.06359210
C       -0.66218587       1.19537329       0.22218004
O        0.11105855       1.15371175       1.27876717
H        2.51890479       1.90605507      -0.11871385
H        0.90416896      -1.28813368      -1.28366945
H        1.53471574      -1.61913379       0.32964291
H       -0.58303555      -1.36172580       1.36136887
H       -1.01580572      -2.16732092      -0.14205131
H       -1.82027827      -0.05224734      -1.10660227
H       -2.37865622      -0.02567971       0.56952745
H       -1.15609515       2.15407772      -0.01485064
H        0.18722957       1.10162413      -0.79321396
16
Frame=3 idx=008331 GeodesicLength=0.2664712342636593 rxn_smarts="[N:1](=[C:2]1/[C:3]([H:9])([H:10])[C:4]([H:11])([H:12])[C:5]([H:13])([H:14])[C:6]([H:15])([H:16])[O:7]1)\[H:8]>>[N:1](=[C:2](/[C:3]([C:4]([C:5]([C:6](=[O:7])[H:15])([H:13])[H:14])([H:11])[H:12])([H:9])[H:10])[H:16])\[H:8]"
N        2.40187970       0.88572771      -0.16245450
C        1.26818611       0.40530586      -0.12545882
C        0.81582121      -1.01942263      -0.23070497
C       -0.60622705      -1.24273122       0.28536602
C       -1.48882715      -0.04529136      -0.06617145
C       -0.68162805       1.20414528       0.22047356
O        0.11356759       1.17362932       1.26129835
H        2.54733872       1.88173914      -0.10620777
H        0.89179119      -1.28465398      -1.28952914
H        1.53910327      -1.62293296       0.31645676
H       -0.57373655      -1.34744324       1.36888634
H       -1.01100830      -2.16888310      -0.12380011
H       -1.80747346      -0.06264341      -1.11348708
H       -2.38860912      -0.03557289       0.55399360
H       -1.20591922       2.15371883       0.01534680
H        0.18574111       1.12530865      -0.80400760
16
Frame=4 idx=008331 GeodesicLength=0.35491057937159665 rxn_smarts="[N:1](=[C:2]1/[C:3]([H:9])([H:10])[C:4]([H:11])([H:12])[C:5]([H:13])([H:14])[C:6]([H:15])([H:16])[O:7]1)\[H:8]>>[N:1](=[C:2](/[C:3]([C:4]([C:5]([C:6](=[O:7])[H:15])([H:13])[H:14])([H:11])[H:12])([H:9])[H:10])[H:16])\[H:8]"
N        2.42116217       0.86188762      -0.15500434
C        1.27402586       0.40686012      -0.12983574
C        0.81774414      -1.01809954      -0.23459953
C       -0.60137914      -1.23857886       0.29157830
C       -1.48956574      -0.04818401      -0.06892522
C       -0.70131974       1.21304069       0.21857143
O        0.11609826       1.19405636       1.24266481
H        2.57534931       1.85701490      -0.09388828
H        0.87964844      -1.28144885      -1.29500952
H        1.54325226      -1.62675073       0.30362574
H       -0.56448245      -1.33255471       1.37626337
H       -1.00612475      -2.17000939      -0.10544685
H       -1.79427541      -0.07254610      -1.12038016
H       -2.39836659      -0.04566612       0.53789797
H       -1.25598806       2.15176162       0.04774470
H        0.18422145       1.14921699      -0.81525670
16
Frame=5 idx=008331 GeodesicLength=0.44317957106993155 rxn_smarts="[N:1](=[C:2]1/[C:3]([H:9])([H:10])[C:4]([H:11])([H:12])[C:5]([H:13])([H:14])[C:6]([H:15])([H:16])[O:7]1)\[H:8]>>[N:1](=[C:2](/[C:3]([C:4]([C:5]([C:6](=[O:7])[H:15])([H:13])[H:14])([H:11])[H:12])([H:9])[H:10])[H:16])\[H:8]"
N        2.44011915       0.83773338      -0.14739322
C        1.28021600       0.40835132      -0.13452254
C        0.81975044      -1.01680853      -0.23838062
C       -0.59648584      -1.23409859       0.29774767
C       -1.49017791      -0.05083318      -0.07182184
C       -0.72126419       1.22207370       0.21652829
O        0.11865440       1.21496471       1.22284257
H        2.60291268       1.83191954      -0.08172322
H        0.86773629      -1.27849341      -1.30012793
H        1.54715958      -1.63060622       0.29114164
H       -0.55527159      -1.31707542       1.38350259
H       -1.00116996      -2.17069478      -0.08700259
H       -1.78070321      -0.08188557      -1.12725697
H       -2.40791898      -0.05594291       0.52127845
H       -1.30619799       2.14804746       0.08218360
H        0.18264115       1.17334851      -0.82699588
16
Frame=6 idx=008331 GeodesicLength=0.5312674996613963 rxn_smarts="[N:1](=[C:2]1/[C:3]([H:9])([H:10])[C:4]([H:11])([H:12])[C:5]([H:13])([H:14])[C:6]([H:15])([H:16])[O:7]1)\[H:8]>>[N:1](=[C:2](/[C:3]([C:4]([C:5]([C:6](=[O:7])[H:15])([H:13])[H:14])([H:11])[H:12])([H:9])[H:10])[H:16])\[H:8]"
N        2.45870362       0.81331614      -0.13958626
C        1.28675318       0.40977273      -0.13953693
C        0.82183641      -1.01555342      -0.24202974
C       -0.59156461      -1.22926519       0.30386405
C       -1.49067003      -0.05323245      -0.07490138
C       -0.74147738       1.23125903       0.21425375
O        0.12117355       1.23639830       1.20169406
H        2.62995227       1.80651835      -0.06968354
H        0.85607259      -1.27582332      -1.30486176
H        1.55081474      -1.63449066       0.27906117
H       -0.54613478      -1.30094469       1.39058391
H       -0.99616937      -2.17090402      -0.06845044
H       -1.76677851      -0.09070173      -1.13413737
H       -2.41724506      -0.06638736       0.50408095
H       -1.35624123       2.14241744       0.11902757
H        0.18097460       1.19762083      -0.83937806
16
Frame=7 idx=008331 GeodesicLength=0.6191745539631273 rxn_smarts="[N:1](=[C:2]1/[C:3]([H:9])([H:10])[C:4]([H:11])([H:12])[C:5]([H:13])([H:14])[C:6]([H:15])([H:16])[O:7]1)\[H:8]>>[N:1](=[C:2](/[C:3]([C:4]([C:5]([C:6](=[O:7])[H:15])([H:13])[H:14])([H:11])[H:12])([H:9])[H:10])[H:16])\[H:8]"
N        2.47688065       0.78868659      -0.13153810
C        1.29363108       0.41112102      -0.14487578
C        0.82399388      -1.01433111      -0.24553987
C       -0.58663128      -1.22406338       0.30992450
C       -1.49105346      -0.05537024      -0.07816637
C       -0.76197912       1.24060942       0.21172787
O        0.12361787       1.25836236       1.17912797
H        2.65641454       1.78087167      -0.05771561
H        0.84465885      -1.27343942      -1.30920855
H        1.55420928      -1.63840126       0.26740585
H       -0.53708835      -1.28413759       1.39749645
H       -0.99114589      -2.17061693      -0.04978776
H       -1.75253045      -0.09899116      -1.14101497
H       -2.42633174      -0.07698634       0.48630133
H       -1.40583024       2.13470508       0.15837957
H        0.17918439       1.22198130      -0.85251652
16
Frame=8 idx=008331 GeodesicLength=0.7068961908922599 rxn_smarts="[N:1](=[C:2]1/[C:3]([H:9])([H:10])[C:4]([H:11])([H:12])[C:5]([H:13])([H:14])[C:6]([H:15])([H:16])[O:7]1)\[H:8]>>[N:1](=[C:2](/[C:3]([C:4]([C:5]([C:6](=[O:7])[H:15])([H:13])[H:14])([H:11])[H:12])([H:9])[H:10])[H:16])\[H:8]"
N        2.49461140       0.76389958      -0.12319826
C        1.30083975       0.41239271      -0.15052928
C        0.82621186      -1.01313597      -0.24890405
C       -0.58170295      -1.21847953       0.31592408
C       -1.49134254      -0.05723564      -0.08161608
C       -0.78279291       1.25013433       0.20894188
O        0.12594510       1.28085263       1.15505575
H        2.68222675       1.75504977      -0.04575749
H        0.83349210      -1.27133517      -1.31316755
H        1.55733325      -1.64233188       0.25619509
H       -0.52814906      -1.26663257       1.40422199
H       -0.98612510      -2.16981117      -0.03101093
H       -1.73799276      -0.10675047      -1.14788093
H       -2.43516398      -0.08772678       0.46794348
H       -1.45461298       2.12473292       0.20030822
H        0.17722209       1.24637724      -0.86652594
16
Frame=9 idx=008331 GeodesicLength=0.7944521182822327 rxn_smarts="[N:1](=[C:2]1/[C:3]([H:9])([H:10])[C:4]([H:11])([H:12])[C:5]([H:13])([H:14])[C:6]([H:15])([H:16])[O:7]1)\[H:8]>>[N:1](=[C:2](/[C:3]([C:4]([C:5]([C:6](=[O:7])[H:15])([H:13])[H:14])([H:11])[H:12])([H:9])[H:10])[H:16])\[H:8]"
N        2.51188407       0.73899139      -0.11451790
C        1.30837240       0.41358065      -0.15644722
C        0.82847960      -1.01196554      -0.25212961
C       -0.57677990      -1.21252548       0.32187034
C       -1.49155189      -0.05880039      -0.08518682
C       -0.80392759       1.25982893       0.20603206
O        0.12817075       1.30379843       1.12948872
H        2.70736685       1.72909463      -0.03374712
H        0.82254527      -1.26946008      -1.31677539
H        1.56018863      -1.64630542       0.24539118
H       -0.51928890      -1.24848702       1.41077503
H       -0.98111365      -2.16849623      -0.01214778
H       -1.72319814      -0.11389083      -1.15468783
H       -2.44374154      -0.09857458       0.44908707
H       -1.50242980       2.11239088       0.24442220
H        0.17502386       1.27082065      -0.88142692
16
Frame=10 idx=008331 GeodesicLength=0.881829549777344 rxn_smarts="[N:1](=[C:2]1/[C:3]([H:9])([H:10])[C:4]([H:11])([H:12])[C:5]([H:13])([H:14])[C:6]([H:15])([H:16])[O:7]1)\[H:8]>>[N:1](=[C:2](/[C:3]([C:4]([C:5]([C:6](=[O:7])[H:15])([H:13])[H:14])([H:11])[H:12])([H:9])[H:10])[H:16])\[H:8]"
N        2.52862213       0.71404185      -0.10541530
C        1.31620044       0.41469456      -0.16266071
C        0.83078345      -1.01081044      -0.25520160
C       -0.57189436      -1.20617610       0.32774851
C       -1.49170789      -0.06008049      -0.08892815
C       -0.82543487       1.26969846       0.20288437
O        0.13018392       1.32724576       1.10223515
H        2.73172548       1.70310149      -0.02158501
H        0.81183360      -1.26784242      -1.32000758
H        1.56276122      -1.65028626       0.23505455
H       -0.51055775      -1.22962898       1.41711761
H       -0.97614420      -2.16663931       0.00682451
H       -1.70819123      -0.12049505      -1.16145712
H       -2.45204637      -0.10953020       0.42968159
H       -1.54865413       2.09750558       0.29115135
H        0.17252057       1.29520155      -0.89744217
16
Frame=11 idx=008331 GeodesicLength=0.9690361009861423 rxn_smarts="[N:1](=[C:2]1/[C:3]([H:9])([H:10])[C:4]([H:11])([H:12])[C:5]([H:13])([H:14])[C:6]([H:15])([H:16])[O:7]1)\[H:8]>>[N:1](=[C:2](/[C:3]([C:4]([C:5]([C:6](=[O:7])[H:15])([H:13])[H:14])([H:11])[H:12])([H:9])[H:10])[H:16])\[H:8]"
N        2.54477651       0.68911636      -0.09581888
C        1.32429988       0.41573974      -0.16915715
C        0.83310661      -1.00965939      -0.25812391
C       -0.56706285      -1.19943322       0.33355518
C       -1.49183523      -0.06108004      -0.09282028
C       -0.84734795       1.27972896       0.19953326
O        0.13193344       1.35117035       1.07320606
H        2.75522930       1.67714446      -0.00914614
H        0.80134118      -1.26645745      -1.32287742
H        1.56504404      -1.65426332       0.22517917
H       -0.50196308      -1.21006301       1.42323513
H       -0.97123610      -2.16423772       0.02590066
H       -1.69302122      -0.12656307      -1.16816050
H       -2.46007047      -0.12058098       0.40976499
H       -1.59282680       2.07997163       0.34043336
H        0.16963274       1.31946670      -0.91470352
16
Frame=12 idx=008331 GeodesicLength=1.0560734242384173 rxn_smarts="[N:1](=[C:2]1/[C:3]([H:9])([H:10])[C:4]([H:11])([H:12])[C:5]([H:13])([H:14])[C:6]([H:15])([H:16])[O:7]1)\[H:8]>>[N:1](=[C:2](/[C:3]([C:4]([C:5]([C:6](=[O:7])[H:15])([H:13])[H:14])([H:11])[H:12])([H:9])[H:10])[H:16])\[H:8]"
N        2.56028772       0.66428756      -0.08564438
C        1.33264378       0.41672032      -0.17591071
C        0.83543049      -1.00850059      -0.26089842
C       -0.56230237      -1.19230437       0.33928203
C       -1.49196107      -0.06181054      -0.09683667
C       -0.86970542       1.28989624       0.19603516
O        0.13336165       1.37553010       1.04231337
H        2.77778557       1.65130698       0.00369545
H        0.79104726      -1.26526862      -1.32539621
H        1.56702953      -1.65822167       0.21575260
H       -0.49350845      -1.18980991       1.42910312
H       -0.96640960      -2.16128659       0.04506558
H       -1.67774237      -0.13209546      -1.17476575
H       -2.46779999      -0.13171654       0.38939305
H       -1.63442960       2.05972050       0.39214875
H        0.16627287       1.34355259      -0.93333697
16
Frame=13 idx=008331 GeodesicLength=1.142962636190296 rxn_smarts="[N:1](=[C:2]1/[C:3]([H:9])([H:10])[C:4]([H:11])([H:12])[C:5]([H:13])([H:14])[C:6]([H:15])([H:16])[O:7]1)\[H:8]>>[N:1](=[C:2](/[C:3]([C:4]([C:5]([C:6](=[O:7])[H:15])([H:13])[H:14])([H:11])[H:12])([H:9])[H:10])[H:16])\[H:8]"
N        2.57513929       0.63959574      -0.07481516
C        1.34121057       0.41762843      -0.18287665
C        0.83774499      -1.00733482      -0.26354357
C       -0.55760284      -1.18481528       0.34492993
C       -1.49210736      -0.06225307      -0.10090295
C       -0.89251002       1.30016996       0.19254954
O        0.13446261       1.40023345       1.00953830
H        2.79934880       1.62564089       0.01708205
H        0.78091482      -1.26422323      -1.32761474
H        1.56873207      -1.66218043       0.20672474
H       -0.48513920      -1.16894327       1.43473529
H       -0.96165741      -2.15780529       0.06427898
H       -1.66242120      -0.13702255      -1.18121792
H       -2.47524333      -0.14286531       0.36869401
H       -1.67319811       2.03672177       0.44583893
H        0.16232630       1.36745300      -0.95340079
16
Frame=14 idx=008331 GeodesicLength=1.229727700680796 rxn_smarts="[N:1](=[C:2]1/[C:3]([H:9])([H:10])[C:4]([H:11])([H:12])[C:5]([H:13])([H:14])[C:6]([H:15])([H:16])[O:7]1)\[H:8]>>[N:1](=[C:2](/[C:3]([C:4]([C:5]([C:6](=[O:7])[H:15])([H:13])[H:14])([H:11])[H:12])([H:9])[H:10])[H:16])\[H:8]"
N        2.58922256       0.61514065      -0.06320577
C        1.34995727       0.41849394      -0.19007873
C        0.84002917      -1.00614210      -0.26606713
C       -0.55299926      -1.17697152       0.35048232
C       -1.49231601      -0.06245319      -0.10503746
C       -0.91582910       1.31051903       0.18903013
O        0.13510078       1.42529272       0.97467659
H        2.81977149       1.60024958       0.03124812
H        0.77094584      -1.26331336      -1.32953716
H        1.57014102      -1.66610061       0.19810289
H       -0.47690258      -1.14744070       1.44008889
H       -0.95700755      -2.15379891       0.08355377
H       -1.64712742      -0.14142564      -1.18751111
H       -2.48238183      -0.15403781       0.34769124
H       -1.70828941       2.01093105       0.50170924
H        0.15768503       1.39105686      -0.97514582
16
Frame=15 idx=008331 GeodesicLength=1.3163962537545486 rxn_smarts="[N:1](=[C:2]1/[C:3]([H:9])([H:10])[C:4]([H:11])([H:12])[C:5]([H:13])([H:14])[C:6]([H:15])([H:16])[O:7]1)\[H:8]>>[N:1](=[C:2](/[C:3]([C:4]([C:5]([C:6](=[O:7])[H:15])([H:13])[H:14])([H:11])[H:12])([H:9])[H:10])[H:16])\[H:8]"
N        2.60248271       0.59098708      -0.05070857
C        1.35885279       0.41932354      -0.19749236
C        0.84226704      -1.00491285      -0.26849160
C       -0.54849593      -1.16879847       0.35592818
C       -1.49261385      -0.06242806      -0.10919449
C       -0.93967729       1.32089706       0.18556400
O        0.13521021       1.45064603       0.93761819
H        2.83895478       1.57520349       0.04643251
H        0.76110996      -1.26248747      -1.33120166
H        1.57126017      -1.66997635       0.18983779
H       -0.46877652      -1.12535012       1.44514638
H       -0.95246234      -2.14928798       0.10286137
H       -1.63194273      -0.14530442      -1.19359781
H       -2.48920551      -0.16519037       0.32651194
H       -1.73919547       1.98238096       0.55951564
H        0.15223197       1.41429793      -0.99872950
16
Frame=16 idx=008331 GeodesicLength=1.4030077894416013 rxn_smarts="[N:1](=[C:2]1/[C:3]([H:9])([H:10])[C:4]([H:11])([H:12])[C:5]([H:13])([H:14])[C:6]([H:15])([H:16])[O:7]1)\[H:8]>>[N:1](=[C:2](/[C:3]([C:4]([C:5]([C:6](=[O:7])[H:15])([H:13])[H:14])([H:11])[H:12])([H:9])[H:10])[H:16])\[H:8]"
N        2.61486039       0.56719971      -0.03720196
C        1.36786519       0.42012729      -0.20510291
C        0.84444826      -1.00363966      -0.27085036
C       -0.54409021      -1.16032962       0.36125608
C       -1.49303396      -0.06219519      -0.11332049
C       -0.96406606       1.33125556       0.18224684
O        0.13471516       1.47622184       0.89823475
H        2.85677959       1.55057142       0.06293402
H        0.75137736      -1.26169193      -1.33266099
H        1.57210651      -1.67380589       0.18186462
H       -0.46072353      -1.10273258       1.44989413
H       -0.94801384      -2.14430193       0.12217015
H       -1.61697037      -0.14866059      -1.19942875
H       -2.49571546      -0.17626527       0.30531292
H       -1.76537159       1.95114873       0.61897499
H        0.14583256       1.43709811      -1.02432304
