15
Frame=0 idx=006545 GeodesicLength=0.0 rxn_smarts="[C:1]([N:2]([C@@:3]([C:4]([O:5][H:15])([H:13])[H:14])([C:6]#[N:7])[H:12])[H:11])([H:8])([H:9])[H:10]>>[C-:1]([N+:2]([C@@:3]([C:4]([O:5][H:15])([H:13])[H:14])([C:6]#[N:7])[H:12])([H:10])[H:11])([H:8])[H:9]"
C       -2.00535030       0.83412473       0.56772925
N       -0.52938159       0.19310472       0.73188462
C        0.11810755      -0.13107684      -0.52113991
C        1.64396979      -0.21159140      -0.38345803
O        2.19219550       1.03431857      -0.05404482
C       -0.41633826      -1.38886612      -1.06617219
N       -0.78884248      -2.39732591      -1.46478528
H       -2.45127949       0.35666802      -0.30667686
H       -2.52808694       0.51163399       1.46840515
H       -0.65756841       1.27026756       0.91085546
H       -0.41702359      -0.49827819       1.46339220
H       -0.13277910       0.67997384      -1.21299905
H        2.06782699      -0.50672673      -1.34345674
H        1.90574783      -0.98660889       0.34805567
H        1.99880243       1.24038271       0.86241054
15
Frame=1 idx=006545 GeodesicLength=0.054578907973150945 rxn_smarts="[C:1]([N:2]([C@@:3]([C:4]([O:5][H:15])([H:13])[H:14])([C:6]#[N:7])[H:12])[H:11])([H:8])([H:9])[H:10]>>[C-:1]([N+:2]([C@@:3]([C:4]([O:5][H:15])([H:13])[H:14])([C:6]#[N:7])[H:12])([H:10])[H:11])([H:8])[H:9]"
C       -2.00198765       0.82657808       0.56402228
N       -0.53112348       0.19689769       0.72692301
C        0.11786810      -0.13043432      -0.52553683
C        1.64289855      -0.21049438      -0.38272156
O        2.18221841       1.03757641      -0.04634865
C       -0.41519080      -1.38952988      -1.06874845
N       -0.78654910      -2.39721851      -1.47038283
H       -2.46213256       0.32906254      -0.29182906
H       -2.51767088       0.53346551       1.47882023
H       -0.66284805       1.28872704       0.89781314
H       -0.41824179      -0.49758253       1.45583039
H       -0.13212589       0.67850327      -1.21998868
H        2.07109646      -0.50106299      -1.34235744
H        1.90256131      -0.98902718       0.34586462
H        2.01122735       1.22453924       0.87863980
15
Frame=2 idx=006545 GeodesicLength=0.109126186208343 rxn_smarts="[C:1]([N:2]([C@@:3]([C:4]([O:5][H:15])([H:13])[H:14])([C:6]#[N:7])[H:12])[H:11])([H:8])([H:9])[H:10]>>[C-:1]([N+:2]([C@@:3]([C:4]([O:5][H:15])([H:13])[H:14])([C:6]#[N:7])[H:12])([H:10])[H:11])([H:8])[H:9]"
C       -1.99856876       0.81894990       0.56058875
N       -0.53280280       0.20046536       0.72216078
C        0.11762552      -0.12984646      -0.52980986
C        1.64181002      -0.20944219      -0.38187360
O        2.17217895       1.04065954      -0.03835626
C       -0.41412297      -1.39014083      -1.07134687
N       -0.78426433      -2.39702898      -1.47611467
H       -2.47238598       0.30186900      -0.27619805
H       -2.50722746       0.55524785       1.48831129
H       -0.66853835       1.30721231       0.88439485
H       -0.41943485      -0.49717405       1.44839171
H       -0.13142075       0.67707634      -1.22674331
H        2.07434397      -0.49532680      -1.34114075
H        1.89938170      -0.99153818       0.34369102
H        2.02342608       1.20901718       0.89404497
15
Frame=3 idx=006545 GeodesicLength=0.1636396758371977 rxn_smarts="[C:1]([N:2]([C@@:3]([C:4]([O:5][H:15])([H:13])[H:14])([C:6]#[N:7])[H:12])[H:11])([H:8])([H:9])[H:10]>>[C-:1]([N+:2]([C@@:3]([C:4]([O:5][H:15])([H:13])[H:14])([C:6]#[N:7])[H:12])([H:10])[H:11])([H:8])[H:9]"
C       -1.99507730       0.81126238       0.55745215
N       -0.53441511       0.20379681       0.71761465
C        0.11737938      -0.12931494      -0.53394951
C        1.64070516      -0.20843700      -0.38091939
O        2.16208150       1.04357413      -0.03012132
C       -0.41314469      -1.39069940      -1.07395595
N       -0.78200382      -2.39676386      -1.48194634
H       -2.48200739       0.27522891      -0.25987468
H       -2.49680421       0.57684016       1.49687202
H       -0.67464110       1.32570991       0.87061977
H       -0.42059676      -0.49706817       1.44108669
H       -0.13066938       0.67569245      -1.23325253
H        2.07755991      -0.48954996      -1.33980725
H        1.89621908      -0.99412351       0.34154707
H        2.03541473       1.19385210       0.90863462
15
Frame=4 idx=006545 GeodesicLength=0.21812343790897654 rxn_smarts="[C:1]([N:2]([C@@:3]([C:4]([O:5][H:15])([H:13])[H:14])([C:6]#[N:7])[H:12])[H:11])([H:8])([H:9])[H:10]>>[C-:1]([N+:2]([C@@:3]([C:4]([O:5][H:15])([H:13])[H:14])([C:6]#[N:7])[H:12])([H:10])[H:11])([H:8])[H:9]"
C       -1.99149525       0.80354104       0.55463641
N       -0.53595608       0.20687774       0.71330061
C        0.11712948      -0.12884250      -0.53794693
C        1.63958486      -0.20748214      -0.37986284
O        2.15193206       1.04632603      -0.02169714
C       -0.41226581      -1.39120703      -1.07656615
N       -0.77977855      -2.39643298      -1.48784341
H       -2.49097279       0.24929307      -0.24296514
H       -2.48644440       0.59809848       1.50451373
H       -0.68115556       1.34420621       0.85650966
H       -0.42172421      -0.49728522       1.43392373
H       -0.12987655       0.67435061      -1.23950574
H        2.08073519      -0.48376663      -1.33835625
H        1.89308152      -0.99676551       0.33944802
H        2.04720610       1.17908882       0.92241143
15
Frame=5 idx=006545 GeodesicLength=0.27260048242656226 rxn_smarts="[C:1]([N:2]([C@@:3]([C:4]([O:5][H:15])([H:13])[H:14])([C:6]#[N:7])[H:12])[H:11])([H:8])([H:9])[H:10]>>[C-:1]([N+:2]([C@@:3]([C:4]([O:5][H:15])([H:13])[H:14])([C:6]#[N:7])[H:12])([H:10])[H:11])([H:8])[H:9]"
C       -1.98779927       0.79581621       0.55215969
N       -0.53742078       0.20969252       0.70923305
C        0.11687559      -0.12843148      -0.54179379
C        1.63844977      -0.20658040      -0.37870958
O        2.14173351       1.04892009      -0.01312794
C       -0.41149394      -1.39166390      -1.07916790
N       -0.77759406      -2.39604981      -1.49376638
H       -2.49926188       0.22419703      -0.22557996
H       -2.47619324       0.61889494       1.51125630
H       -0.68808547       1.36269118       0.84209152
H       -0.42281536      -0.49784706       1.42690909
H       -0.12904843       0.67305070      -1.24549167
H        2.08386023      -0.47800278      -1.33678994
H        1.88997808      -0.99945152       0.33740153
H        2.05881524       1.16476429       0.93537597
15
Frame=6 idx=006545 GeodesicLength=0.327054491668414 rxn_smarts="[C:1]([N:2]([C@@:3]([C:4]([O:5][H:15])([H:13])[H:14])([C:6]#[N:7])[H:12])[H:11])([H:8])([H:9])[H:10]>>[C-:1]([N+:2]([C@@:3]([C:4]([O:5][H:15])([H:13])[H:14])([C:6]#[N:7])[H:12])([H:10])[H:11])([H:8])[H:9]"
C       -1.98398823       0.78812088       0.55005429
N       -0.53880765       0.21221942       0.70542975
C        0.11662080      -0.12809145      -0.54548544
C        1.63730964      -0.20573708      -0.37746218
O        2.13150427       1.05136695      -0.00446673
C       -0.41083757      -1.39208523      -1.08176426
N       -0.77545628      -2.39563964      -1.49969317
H       -2.50690438       0.20011846      -0.20784324
H       -2.46608679       0.63908668       1.51714694
H       -0.69541756       1.38114983       0.82738621
H       -0.42387761      -0.49878656       1.42004858
H       -0.12818460       0.67178525      -1.25120389
H        2.08694125      -0.47230081      -1.33511056
H        1.88692057      -1.00216127       0.33543183
H        2.07026415       1.15095456       0.94753187
15
Frame=7 idx=006545 GeodesicLength=0.3810784166435115 rxn_smarts="[C:1]([N:2]([C@@:3]([C:4]([O:5][H:15])([H:13])[H:14])([C:6]#[N:7])[H:12])[H:11])([H:8])([H:9])[H:10]>>[C-:1]([N+:2]([C@@:3]([C:4]([O:5][H:15])([H:13])[H:14])([C:6]#[N:7])[H:12])([H:10])[H:11])([H:8])[H:9]"
C       -1.98001815       0.78046264       0.54821312
N       -0.54012116       0.21454167       0.70186820
C        0.11635287      -0.12777120      -0.54902125
C        1.63613523      -0.20490165      -0.37614074
O        2.12119799       1.05371816       0.00425925
C       -0.41027572      -1.39242068      -1.08431626
N       -0.77338139      -2.39519561      -1.50546775
H       -2.51379520       0.17687777      -0.18997022
H       -2.45607721       0.65875872       1.52233781
H       -0.70311133       1.39945278       0.81247479
H       -0.42492846      -0.50004734       1.41330636
H       -0.12731067       0.67058680      -1.25666573
H        2.08993203      -0.46659607      -1.33333048
H        1.88389366      -1.00486446       0.33349321
H        2.08150752       1.13739848       0.95895969
15
Frame=8 idx=006545 GeodesicLength=0.4352031955186786 rxn_smarts="[C:1]([N:2]([C@@:3]([C:4]([O:5][H:15])([H:13])[H:14])([C:6]#[N:7])[H:12])[H:11])([H:8])([H:9])[H:10]>>[C-:1]([N+:2]([C@@:3]([C:4]([O:5][H:15])([H:13])[H:14])([C:6]#[N:7])[H:12])([H:10])[H:11])([H:8])[H:9]"
C       -1.97592220       0.77286101       0.54674927
N       -0.54136348       0.21653753       0.69855822
C        0.11608352      -0.12753263      -0.55240805
C        1.63495781      -0.20413068      -0.37472685
O        2.11085839       1.05591466       0.01304179
C       -0.40982027      -1.39272665      -1.08687512
N       -0.77133768      -2.39471969      -1.51125614
H       -2.52010545       0.15468100      -0.17181238
H       -2.44619931       0.67783495       1.52677896
H       -0.71120099       1.41774279       0.79724838
H       -0.42597089      -0.50173143       1.40668065
H       -0.12641290       0.66940852      -1.26185534
H        2.09288014      -0.46096802      -1.33143271
H        1.88092126      -1.00758417       0.33164019
H        2.09263207       1.12441279       0.96966914
15
Frame=9 idx=006545 GeodesicLength=0.48933671356747804 rxn_smarts="[C:1]([N:2]([C@@:3]([C:4]([O:5][H:15])([H:13])[H:14])([C:6]#[N:7])[H:12])[H:11])([H:8])([H:9])[H:10]>>[C-:1]([N+:2]([C@@:3]([C:4]([O:5][H:15])([H:13])[H:14])([C:6]#[N:7])[H:12])([H:10])[H:11])([H:8])[H:9]"
C       -1.97167698       0.76533485       0.54559264
N       -0.54253178       0.21825704       0.69549214
C        0.11581437      -0.12735380      -0.55565358
C        1.63377314      -0.20340274      -0.37323336
O        2.10046998       1.05797203       0.02193629
C       -0.40945764      -1.39299301      -1.08942903
N       -0.76933442      -2.39422072      -1.51702340
H       -2.52582575       0.13337143      -0.15341141
H       -2.43643730       0.69639939       1.53058582
H       -0.71973881       1.43600401       0.78166167
H       -0.42700479      -0.50378369       1.40018040
H       -0.12548767       0.66826425      -1.26680034
H        2.09578161      -0.45534781      -1.32944251
H        1.87799754      -1.01033637       0.32982376
H        2.10365851       1.11183516       0.97972089
15
Frame=10 idx=006545 GeodesicLength=0.5434341108233812 rxn_smarts="[C:1]([N:2]([C@@:3]([C:4]([O:5][H:15])([H:13])[H:14])([C:6]#[N:7])[H:12])[H:11])([H:8])([H:9])[H:10]>>[C-:1]([N+:2]([C@@:3]([C:4]([O:5][H:15])([H:13])[H:14])([C:6]#[N:7])[H:12])([H:10])[H:11])([H:8])[H:9]"
C       -1.96729484       0.75789688       0.54472994
N       -0.54362387       0.21971292       0.69267083
C        0.11554572      -0.12723342      -0.55876224
C        1.63258706      -0.20271058      -0.37166693
O        2.09002700       1.05989136       0.03097029
C       -0.40917953      -1.39322856      -1.09197778
N       -0.76735329      -2.39370572      -1.52278708
H       -2.53102141       0.11288017      -0.13477785
H       -2.42677069       0.71453600       1.53382139
H       -0.72875165       1.45422976       0.76566085
H       -0.42802304      -0.50619133       1.39380701
H       -0.12454451       0.66714870      -1.27151421
H        2.09864103      -0.44970392      -1.32737640
H        1.87513821      -1.01312804       0.32801946
H        2.11462383       1.09960578       0.98918273
15
Frame=11 idx=006545 GeodesicLength=0.5975031709421518 rxn_smarts="[C:1]([N:2]([C@@:3]([C:4]([O:5][H:15])([H:13])[H:14])([C:6]#[N:7])[H:12])[H:11])([H:8])([H:9])[H:10]>>[C-:1]([N+:2]([C@@:3]([C:4]([O:5][H:15])([H:13])[H:14])([C:6]#[N:7])[H:12])([H:10])[H:11])([H:8])[H:9]"
C       -1.96277288       0.75054975       0.54414868
N       -0.54464412       0.22090547       0.69008283
C        0.11527360      -0.12717157      -0.56173262
C        1.63138573      -0.20205003      -0.37001982
O        2.07950939       1.06166445       0.04016336
C       -0.40898573      -1.39343161      -1.09450757
N       -0.76536723      -2.39315186      -1.52857798
H       -2.53571620       0.09315838      -0.11588769
H       -2.41714591       0.73228435       1.53653624
H       -0.73825557       1.47241443       0.74915916
H       -0.42903689      -0.50895122       1.38754280
H       -0.12358060       0.66605439      -1.27599969
H        2.10144997      -0.44401092      -1.32522132
H        1.87231932      -1.01596024       0.32622532
H        2.12556711       1.08769623       0.99808831
15
Frame=12 idx=006545 GeodesicLength=0.6515745371172895 rxn_smarts="[C:1]([N:2]([C@@:3]([C:4]([O:5][H:15])([H:13])[H:14])([C:6]#[N:7])[H:12])[H:11])([H:8])([H:9])[H:10]>>[C-:1]([N+:2]([C@@:3]([C:4]([O:5][H:15])([H:13])[H:14])([C:6]#[N:7])[H:12])([H:10])[H:11])([H:8])[H:9]"
C       -1.95808121       0.74330726       0.54384548
N       -0.54558928       0.22181667       0.68773307
C        0.11500009      -0.12717144      -0.56456294
C        1.63017233      -0.20142176      -0.36829753
O        2.06891975       1.06330258       0.04947971
C       -0.40887216      -1.39360577      -1.09702020
N       -0.76337694      -2.39256852      -1.53439504
H       -2.53989443       0.07424300      -0.09681493
H       -2.40757998       0.74965124       1.53877323
H       -0.74824849       1.49054121       0.73221730
H       -0.43005652      -0.51208828       1.38138606
H       -0.12260014       0.66498193      -1.28025189
H        2.10420443      -0.43829674      -1.32297671
H        1.86955408      -1.01882481       0.32444502
H        2.13644846       1.07613344       1.00643937
15
Frame=13 idx=006545 GeodesicLength=0.70561858274238 rxn_smarts="[C:1]([N:2]([C@@:3]([C:4]([O:5][H:15])([H:13])[H:14])([C:6]#[N:7])[H:12])[H:11])([H:8])([H:9])[H:10]>>[C-:1]([N+:2]([C@@:3]([C:4]([O:5][H:15])([H:13])[H:14])([C:6]#[N:7])[H:12])([H:10])[H:11])([H:8])[H:9]"
C       -1.95324314       0.73618966       0.54382408
N       -0.54646451       0.22244690       0.68562780
C        0.11472344      -0.12723767      -0.56725589
C        1.62895601      -0.20082783      -0.36649568
O        2.05826102       1.06479996       0.05893939
C       -0.40884022      -1.39375955      -1.09952305
N       -0.76136164      -2.39195438      -1.54027940
H       -2.54362289       0.05612382      -0.07754868
H       -2.39805034       0.76666122       1.54058634
H       -0.75876255       1.50860294       0.71476457
H       -0.43108829      -0.51560226       1.37533790
H       -0.12160853       0.66392182      -1.28428002
H        2.10692029      -0.43255549      -1.32064526
H        1.86685435      -1.02172404       0.32268256
H        2.14732699       1.06491490       1.01426534
15
Frame=14 idx=006545 GeodesicLength=0.7596582804950881 rxn_smarts="[C:1]([N:2]([C@@:3]([C:4]([O:5][H:15])([H:13])[H:14])([C:6]#[N:7])[H:12])[H:11])([H:8])([H:9])[H:10]>>[C-:1]([N+:2]([C@@:3]([C:4]([O:5][H:15])([H:13])[H:14])([C:6]#[N:7])[H:12])([H:10])[H:11])([H:8])[H:9]"
C       -1.94825099       0.72919949       0.54406681
N       -0.54726841       0.22279960       0.68375908
C        0.11444338      -0.12736740      -0.56981472
C        1.62773122      -0.20026295      -0.36461360
O        2.04751743       1.06615069       0.06857753
C       -0.40888602      -1.39389063      -1.10201629
N       -0.75930369      -2.39130364      -1.54624621
H       -2.54692082       0.03873145      -0.05805233
H       -2.38851936       0.78339138       1.54201271
H       -0.76983669       1.52659418       0.69673190
H       -0.43213575      -0.51949023       1.36938776
H       -0.12060353       0.66287620      -1.28808967
H        2.10959475      -0.42675163      -1.31822693
H        1.86421171      -1.02466884       0.32091979
H        2.15822677       1.05399234       1.02160416
15
Frame=15 idx=006545 GeodesicLength=0.813706361523084 rxn_smarts="[C:1]([N:2]([C@@:3]([C:4]([O:5][H:15])([H:13])[H:14])([C:6]#[N:7])[H:12])[H:11])([H:8])([H:9])[H:10]>>[C-:1]([N+:2]([C@@:3]([C:4]([O:5][H:15])([H:13])[H:14])([C:6]#[N:7])[H:12])([H:10])[H:11])([H:8])[H:9]"
C       -1.94310334       0.72233842       0.54456586
N       -0.54799919       0.22287560       0.68212504
C        0.11416204      -0.12755973      -0.57224280
C        1.62649928      -0.19972393      -0.36265033
O        2.03668368       1.06734617       0.07842526
C       -0.40900449      -1.39399868      -1.10450454
N       -0.75719526      -2.39060762      -1.55231830
H       -2.54981498       0.02201239      -0.03829256
H       -2.37895529       0.79990805       1.54308787
H       -0.78150592       1.54450677       0.67805176
H       -0.43320136      -0.52374845       1.36353095
H       -0.11958196       0.66184262      -1.29168719
H        2.11223167      -0.42086159      -1.31572368
H        1.86162556      -1.02766715       0.31914148
H        2.16915955       1.04333712       1.02849117
15
Frame=16 idx=006545 GeodesicLength=0.8677548303348486 rxn_smarts="[C:1]([N:2]([C@@:3]([C:4]([O:5][H:15])([H:13])[H:14])([C:6]#[N:7])[H:12])[H:11])([H:8])([H:9])[H:10]>>[C-:1]([N+:2]([C@@:3]([C:4]([O:5][H:15])([H:13])[H:14])([C:6]#[N:7])[H:12])([H:10])[H:11])([H:8])[H:9]"
C       -1.93777973       0.71563726       0.54533177
N       -0.54865565       0.22264800       0.68074198
C        0.11387734      -0.12782167      -0.57452918
C        1.62526062      -0.19921305      -0.36060383
O        2.02575844       1.06839394       0.08844813
C       -0.40920083      -1.39408879      -1.10697943
N       -0.75501925      -2.38987720      -1.55848593
H       -2.55230653       0.00607603      -0.01836679
H       -2.36935937       0.81615641       1.54384684
H       -0.79377078       1.56230621       0.65876140
H       -0.43430781      -0.52841959       1.35776662
H       -0.11854951       0.66081859      -1.29505779
H        2.11482411      -0.41490785      -1.31313076
H        1.85910537      -1.03070822       0.31736256
H        2.18012358       1.03299994       1.03489441
