12
Frame=0 idx=005357 GeodesicLength=0.0 rxn_smarts="[O:1]([C@@:2]1([H:8])[C:3]([H:9])([H:10])[C@:4]1([C:5](=[O:6])[H:12])[H:11])[H:7]>>[O:1]([C@@:2]1([H:8])[C:3]([H:9])([H:10])[C@@:5]2([H:12])[C@:4]1([H:11])[O:6]2)[H:7]"
O       -1.91137764       0.49306893       0.34564540
C       -0.89202322      -0.28628205      -0.23447937
C        0.33914011       0.50151773      -0.67843166
C        0.04633455      -0.80413954       0.78828222
C        1.25442031       0.10813061       0.63164468
O        2.14310633      -0.77671514       0.36429647
H       -2.39016080       0.93112115      -0.36236533
H       -1.29067248      -1.01629097      -0.94247421
H        0.83162510       0.17701019      -1.58822528
H        0.16653003       1.57504330      -0.61632991
H        0.25218568      -1.85278752       0.98492667
H        1.45089200       0.95032335       1.30751035
12
Frame=1 idx=005357 GeodesicLength=0.0603452531228218 rxn_smarts="[O:1]([C@@:2]1([H:8])[C:3]([H:9])([H:10])[C@:4]1([C:5](=[O:6])[H:12])[H:11])[H:7]>>[O:1]([C@@:2]1([H:8])[C:3]([H:9])([H:10])[C@@:5]2([H:12])[C@:4]1([H:11])[O:6]2)[H:7]"
O       -1.90168564       0.49348009       0.35761291
C       -0.89198814      -0.28529654      -0.23812283
C        0.33907301       0.49574851      -0.68959939
C        0.06196026      -0.80868247       0.76768716
C        1.25544605       0.11769374       0.64107723
O        2.14146633      -0.77741746       0.39520083
H       -2.38802274       0.93648423      -0.34201356
H       -1.29780181      -1.01378474      -0.94341891
H        0.82763966       0.17039801      -1.60142751
H        0.16842278       1.56996273      -0.63533634
H        0.24887030      -1.85926015       0.96928327
H        1.43661993       0.96067405       1.31905714
12
Frame=2 idx=005357 GeodesicLength=0.12070808272219977 rxn_smarts="[O:1]([C@@:2]1([H:8])[C:3]([H:9])([H:10])[C@:4]1([C:5](=[O:6])[H:12])[H:11])[H:7]>>[O:1]([C@@:2]1([H:8])[C:3]([H:9])([H:10])[C@@:5]2([H:12])[C@:4]1([H:11])[O:6]2)[H:7]"
O       -1.89173664       0.49367586       0.36939168
C       -0.89175933      -0.28436081      -0.24174052
C        0.33904716       0.49005016      -0.70090296
C        0.07775372      -0.81295183       0.74686224
C        1.25629949       0.12690928       0.65039720
O        2.13944767      -0.77807009       0.42595642
H       -2.38538582       0.94168551      -0.32176671
H       -1.30466214      -1.01144559      -0.94417762
H        0.82312207       0.16425957      -1.61519327
H        0.17043013       1.56487851      -0.65383963
H        0.24544773      -1.86497879       0.95437706
H        1.42199597       0.97034823       1.33063612
12
Frame=3 idx=005357 GeodesicLength=0.18111079726561624 rxn_smarts="[O:1]([C@@:2]1([H:8])[C:3]([H:9])([H:10])[C@:4]1([C:5](=[O:6])[H:12])[H:11])[H:7]>>[O:1]([C@@:2]1([H:8])[C:3]([H:9])([H:10])[C@@:5]2([H:12])[C@:4]1([H:11])[O:6]2)[H:7]"
O       -1.88155704       0.49362435       0.38092487
C       -0.89131832      -0.28347579      -0.24534163
C        0.33904998       0.48447181      -0.71232977
C        0.09372895      -0.81690576       0.72581707
C        1.25702078       0.13574320       0.65959981
O        2.13701049      -0.77876911       0.45649610
H       -2.38229011       0.94663653      -0.30171179
H       -1.31119648      -1.00929874      -0.94475760
H        0.81801200       0.15870434      -1.62953913
H        0.17253450       1.55984353      -0.67176414
H        0.24185394      -1.86985731       0.94037990
H        1.40715131       0.97928297       1.34222632
12
Frame=4 idx=005357 GeodesicLength=0.24152869323378323 rxn_smarts="[O:1]([C@@:2]1([H:8])[C:3]([H:9])([H:10])[C@:4]1([C:5](=[O:6])[H:12])[H:11])[H:7]>>[O:1]([C@@:2]1([H:8])[C:3]([H:9])([H:10])[C@@:5]2([H:12])[C@:4]1([H:11])[O:6]2)[H:7]"
O       -1.87114382       0.49331401       0.39223871
C       -0.89065111      -0.28264860      -0.24893654
C        0.33909107       0.47901549      -0.72390409
C        0.10990873      -0.82058405       0.70452008
C        1.25761414       0.14420259       0.66869487
O        2.13416763      -0.77952905       0.48684174
H       -2.37873545       0.95135515      -0.28181062
H       -1.31739431      -1.00734401      -0.94518023
H        0.81230023       0.15373117      -1.64449101
H        0.17474201       1.55487767      -0.68914413
H        0.23805291      -1.87389269       0.92733679
H        1.39204797       0.98750231       1.35383443
12
Frame=5 idx=005357 GeodesicLength=0.3019900599348517 rxn_smarts="[O:1]([C@@:2]1([H:8])[C:3]([H:9])([H:10])[C@:4]1([C:5](=[O:6])[H:12])[H:11])[H:7]>>[O:1]([C@@:2]1([H:8])[C:3]([H:9])([H:10])[C@@:5]2([H:12])[C@:4]1([H:11])[O:6]2)[H:7]"
O       -1.86046202       0.49272823       0.40335801
C       -0.88973948      -0.28188315      -0.25253643
C        0.33917523       0.47367058      -0.73565046
C        0.12633179      -0.82402325       0.68291957
C        1.25807219       0.15228947       0.67770144
O        2.13091610      -0.78034910       0.51703107
H       -2.37469250       0.95584870      -0.26201789
H       -1.32325772      -1.00556703      -0.94546058
H        0.80595517       0.14933235      -1.66007139
H        0.17705706       1.54997764      -0.70602170
H        0.23401865      -1.87703057       0.91527110
H        1.37662553       0.99500614       1.36547726
12
Frame=6 idx=005357 GeodesicLength=0.3624933870555906 rxn_smarts="[O:1]([C@@:2]1([H:8])[C:3]([H:9])([H:10])[C@:4]1([C:5](=[O:6])[H:12])[H:11])[H:7]>>[O:1]([C@@:2]1([H:8])[C:3]([H:9])([H:10])[C@@:5]2([H:12])[C@:4]1([H:11])[O:6]2)[H:7]"
O       -1.84953673       0.49183859       0.41424669
C       -0.88856047      -0.28118715      -0.25615131
C        0.33929889       0.46848828      -0.74757100
C        0.14302365      -0.82720128       0.66100132
C        1.25842984       0.15997234       0.68660807
O        2.12723119      -0.78132155       0.54700329
H       -2.37020573       0.96003765      -0.24239178
H       -1.32872636      -1.00399567      -0.94561686
H        0.79893658       0.14561240      -1.67630284
H        0.17946911       1.54520520      -0.72234060
H        0.22966155      -1.87919545       0.90438432
H        1.36097847       1.00174665       1.37713070
12
Frame=7 idx=005357 GeodesicLength=0.42303528470599133 rxn_smarts="[O:1]([C@@:2]1([H:8])[C:3]([H:9])([H:10])[C@:4]1([C:5](=[O:6])[H:12])[H:11])[H:7]>>[O:1]([C@@:2]1([H:8])[C:3]([H:9])([H:10])[C@@:5]2([H:12])[C@:4]1([H:11])[O:6]2)[H:7]"
O       -1.83833688       0.49062626       0.42493102
C       -0.88709344      -0.28056981      -0.25979282
C        0.33946888       0.46345889      -0.75969156
C        0.16002562      -0.83017022       0.63871232
C        1.25868191       0.16725145       0.69543142
O        2.12311973      -0.78244431       0.57678483
H       -2.36524883       0.96393325      -0.22288757
H       -1.33379611      -1.00262425      -0.94566771
H        0.79121156       0.14256583      -1.69320403
H        0.18198326       1.54055778      -0.73814165
H        0.22493803      -1.88030834       0.89470893
H        1.34504627       1.00772346       1.38881683
12
Frame=8 idx=005357 GeodesicLength=0.4836334499040832 rxn_smarts="[O:1]([C@@:2]1([H:8])[C:3]([H:9])([H:10])[C@:4]1([C:5](=[O:6])[H:12])[H:11])[H:7]>>[O:1]([C@@:2]1([H:8])[C:3]([H:9])([H:10])[C@@:5]2([H:12])[C@:4]1([H:11])[O:6]2)[H:7]"
O       -1.82687359       0.48905582       0.43538384
C       -0.88530929      -0.28004035      -0.26347256
C        0.33968528       0.45862667      -0.77201756
C        0.17738332      -0.83291708       0.61601949
C        1.25885469       0.17409314       0.70416112
O        2.11855435      -0.78380483       0.60631837
H       -2.35986068       0.96744681      -0.20354458
H       -1.33840772      -1.00147288      -0.94563610
H        0.78274425       0.14029063      -1.71078934
H        0.18459333       1.53608593      -0.75337638
H        0.21973609      -1.88024937       0.88644789
H        1.32889998       1.01288552       1.40050581
12
Frame=9 idx=005357 GeodesicLength=0.5442751776347753 rxn_smarts="[O:1]([C@@:2]1([H:8])[C:3]([H:9])([H:10])[C@:4]1([C:5](=[O:6])[H:12])[H:11])[H:7]>>[O:1]([C@@:2]1([H:8])[C:3]([H:9])([H:10])[C@@:5]2([H:12])[C@:4]1([H:11])[O:6]2)[H:7]"
O       -1.81510700       0.48711004       0.44563364
C       -0.88318555      -0.27961286      -0.26719458
C        0.33995423       0.45397026      -0.78457487
C        0.19513994      -0.83550903       0.59286977
C        1.25893447       0.18048999       0.71282202
O        2.11354475      -0.78538805       0.63563405
H       -2.35400187       0.97058987      -0.18431873
H       -1.34256375      -1.00053364      -0.94553203
H        0.77349156       0.13876838      -1.72907162
H        0.18731030       1.53177375      -0.76809205
H        0.21401833      -1.87888802       0.87959355
H        1.31246459       1.01722932       1.41223085
12
Frame=10 idx=005357 GeodesicLength=0.604954900493064 rxn_smarts="[O:1]([C@@:2]1([H:8])[C:3]([H:9])([H:10])[C@:4]1([C:5](=[O:6])[H:12])[H:11])[H:7]>>[O:1]([C@@:2]1([H:8])[C:3]([H:9])([H:10])[C@@:5]2([H:12])[C@:4]1([H:11])[O:6]2)[H:7]"
O       -1.80304818       0.48476802       0.45565653
C       -0.88069351      -0.27930140      -0.27095474
C        0.34027627       0.44951842      -0.79736487
C        0.21333880      -0.83794820       0.56924896
C        1.25893573       0.18641126       0.72141401
O        2.10806796      -0.78726575       0.66467329
H       -2.34770485       0.97328970      -0.16525680
H       -1.34621032      -0.99983500      -0.94535877
H        0.76341752       0.13806900      -1.74804740
H        0.19013220       1.52765375      -0.78225210
H        0.20769038      -1.87607212       0.87426950
H        1.29579801       1.02071232       1.42397239
12
Frame=11 idx=005357 GeodesicLength=0.665705431612699 rxn_smarts="[O:1]([C@@:2]1([H:8])[C:3]([H:9])([H:10])[C@:4]1([C:5](=[O:6])[H:12])[H:11])[H:7]>>[O:1]([C@@:2]1([H:8])[C:3]([H:9])([H:10])[C@@:5]2([H:12])[C@:4]1([H:11])[O:6]2)[H:7]"
O       -1.79065983       0.48203518       0.46547792
C       -0.87781178      -0.27911829      -0.27473384
C        0.34065723       0.44524550      -0.81040942
C        0.23202545      -0.84026082       0.54514468
C        1.25882979       0.19185186       0.72998129
O        2.10211849      -0.78943331       0.69349102
H       -2.34093069       0.97556877      -0.14632724
H       -1.34935481      -0.99938646      -0.94508991
H        0.75246976       0.13814413      -1.76770639
H        0.19307760       1.52370558      -0.79592478
H        0.20076501      -1.87168614       0.87034371
H        1.27881378       1.02333400       1.43575298
12
Frame=12 idx=005357 GeodesicLength=0.7265139854400119 rxn_smarts="[O:1]([C@@:2]1([H:8])[C:3]([H:9])([H:10])[C@:4]1([C:5](=[O:6])[H:12])[H:11])[H:7]>>[O:1]([C@@:2]1([H:8])[C:3]([H:9])([H:10])[C@@:5]2([H:12])[C@:4]1([H:11])[O:6]2)[H:7]"
O       -1.77796517       0.47892880       0.47508078
C       -0.87451813      -0.27907190      -0.27849559
C        0.34109819       0.44114521      -0.82369847
C        0.25121058      -0.84244064       0.52060673
C        1.25860577       0.19678715       0.73855238
O        2.09566283      -0.79195372       0.72204654
H       -2.33370773       0.97737632      -0.12758847
H       -1.35194793      -0.99920933      -0.94468047
H        0.74061470       0.13899615      -1.78801888
H        0.19615778       1.51993038      -0.80909816
H        0.19323721      -1.86557875       0.86773655
H        1.26155191       1.02509034       1.44755706
12
Frame=13 idx=005357 GeodesicLength=0.7873592654092484 rxn_smarts="[O:1]([C@@:2]1([H:8])[C:3]([H:9])([H:10])[C@:4]1([C:5](=[O:6])[H:12])[H:11])[H:7]>>[O:1]([C@@:2]1([H:8])[C:3]([H:9])([H:10])[C@@:5]2([H:12])[C@:4]1([H:11])[O:6]2)[H:7]"
O       -1.76496776       0.47553575       0.48443278
C       -0.87081386      -0.27916041      -0.28215940
C        0.34158673       0.43716497      -0.83717455
C        0.27086433      -0.84444488       0.49580855
C        1.25824827       0.20122979       0.74719857
O        2.08863883      -0.79481992       0.75035032
H       -2.32606135       0.97868844      -0.10915484
H       -1.35399731      -0.99933504      -0.94402927
H        0.72777303       0.14051105      -1.80886255
H        0.19941147       1.51626854      -0.82178102
H        0.18522423      -1.85768350       0.86599230
H        1.24409340       1.02604521       1.45937911
12
Frame=14 idx=005357 GeodesicLength=0.8482199350761006 rxn_smarts="[O:1]([C@@:2]1([H:8])[C:3]([H:9])([H:10])[C@:4]1([C:5](=[O:6])[H:12])[H:11])[H:7]>>[O:1]([C@@:2]1([H:8])[C:3]([H:9])([H:10])[C@@:5]2([H:12])[C@:4]1([H:11])[O:6]2)[H:7]"
O       -1.75175155       0.47196784       0.49354103
C       -0.86673518      -0.27937356      -0.28563598
C        0.34213877       0.43324848      -0.85082902
C        0.29095199      -0.84623402       0.47095761
C        1.25773648       0.20521588       0.75601299
O        2.08105199      -0.79803652       0.77851198
H       -2.31805310       0.97962922      -0.09108014
H       -1.35556135      -0.99980013      -0.94298540
H        0.71393936       0.14253835      -1.83016848
H        0.20287858       1.51269504      -0.83410200
H        0.17698195      -1.84815154       0.86454757
H        1.22642206       1.02630096       1.47122983
12
Frame=15 idx=005357 GeodesicLength=0.9092366768248221 rxn_smarts="[O:1]([C@@:2]1([H:8])[C:3]([H:9])([H:10])[C@:4]1([C:5](=[O:6])[H:12])[H:11])[H:7]>>[O:1]([C@@:2]1([H:8])[C:3]([H:9])([H:10])[C@@:5]2([H:12])[C@:4]1([H:11])[O:6]2)[H:7]"
O       -1.73825011       0.46838622       0.50243352
C       -0.86225194      -0.27965828      -0.28880318
C        0.34271040       0.42925671      -0.86459073
C        0.31134014      -0.84759258       0.44633796
C        1.25693493       0.20884360       0.76510315
O        2.07267099      -0.80151168       0.80660042
H       -2.30951217       0.98030772      -0.07339924
H       -1.35655988      -1.00059962      -0.94136409
H        0.69899892       0.14472787      -1.85175583
H        0.20657847       1.50902684      -0.84613502
H        0.16887772      -1.83721020       0.86245127
H        1.20846252       1.02602340       1.48312177
12
Frame=16 idx=005357 GeodesicLength=0.9702633310007023 rxn_smarts="[O:1]([C@@:2]1([H:8])[C:3]([H:9])([H:10])[C@:4]1([C:5](=[O:6])[H:12])[H:11])[H:7]>>[O:1]([C@@:2]1([H:8])[C:3]([H:9])([H:10])[C@@:5]2([H:12])[C@:4]1([H:11])[O:6]2)[H:7]"
O       -1.72466367       0.46493448       0.51104284
C       -0.85747386      -0.27999489      -0.29158257
C        0.34331425       0.42517527      -0.87840460
C        0.33193573      -0.84845074       0.42227649
C        1.25591565       0.21216994       0.77455977
O        2.06354494      -0.80528438       0.83465960
H       -2.30066420       0.98083726      -0.05629663
H       -1.35712242      -1.00179059      -0.93903314
H        0.68298790       0.14700103      -1.87348888
H        0.21056820       1.50529921      -0.85796130
H        0.16121949      -1.82528897       0.85920281
H        1.19043800       1.02539238       1.49502562
