15
Frame=0 idx=008438 GeodesicLength=0.0 rxn_smarts="[C:1]1([H:8])([H:9])[C@@:2]2([H:10])[C@@:3]3([H:11])[O:4][C:5]([H:12])([H:13])[C@:6]1([H:14])[C@@:7]23[H:15]>>[C:1]1([H:8])([H:9])[C@:2]2([H:10])[C@@:3]([O+:4]=[C-:5][H:12])([H:11])[C@:7]2([H:15])[C:6]1([H:13])[H:14]"
C        0.69671676       1.15883053       0.16513695
C        1.32273627      -0.19838475      -0.16013326
C        0.34984148      -1.24707395       0.24676761
O       -0.46284002      -0.89955240       1.34748350
C       -1.66619050      -0.41939830       0.98347072
C       -0.55110852       0.75186909      -0.63669823
C        0.10798100      -0.53588186      -1.04332566
H        0.56951962       1.38099882       1.22630672
H        1.22359676       1.98215049      -0.31689892
H        2.37256099      -0.39549496      -0.33437296
H        0.63768472      -2.28836034       0.21560598
H       -1.99094306       0.26853349       1.77740878
H       -1.68449288       0.06897696      -0.10719613
H       -0.96520680       1.43076167      -1.37600013
H        0.04014423      -1.05797455      -1.98755496
15
Frame=1 idx=008438 GeodesicLength=0.07080319046710087 rxn_smarts="[C:1]1([H:8])([H:9])[C@@:2]2([H:10])[C@@:3]3([H:11])[O:4][C:5]([H:12])([H:13])[C@:6]1([H:14])[C@@:7]23[H:15]>>[C:1]1([H:8])([H:9])[C@:2]2([H:10])[C@@:3]([O+:4]=[C-:5][H:12])([H:11])[C@:7]2([H:15])[C:6]1([H:13])[H:14]"
C        0.69926871       1.16112186       0.16209216
C        1.32391527      -0.19735815      -0.15942112
C        0.35037066      -1.24637767       0.24640974
O       -0.46100071      -0.89957048       1.34837440
C       -1.66680509      -0.42367025       0.98869539
C       -0.55416770       0.75002509      -0.63084656
C        0.11062241      -0.53566582      -1.04336768
H        0.57710754       1.38913504       1.22263175
H        1.22579487       1.98159472      -0.32501208
H        2.37380115      -0.39748260      -0.32967858
H        0.63222369      -2.28920255       0.21628382
H       -1.99455460       0.25657822       1.78818740
H       -1.70312964       0.07531651      -0.11996696
H       -0.95918726       1.42983611      -1.37470745
H        0.04574069      -1.05428005      -1.98967424
15
Frame=2 idx=008438 GeodesicLength=0.14160783225639612 rxn_smarts="[C:1]1([H:8])([H:9])[C@@:2]2([H:10])[C@@:3]3([H:11])[O:4][C:5]([H:12])([H:13])[C@:6]1([H:14])[C@@:7]23[H:15]>>[C:1]1([H:8])([H:9])[C@:2]2([H:10])[C@@:3]([O+:4]=[C-:5][H:12])([H:11])[C@:7]2([H:15])[C:6]1([H:13])[H:14]"
C        0.70182432       1.16340675       0.15901018
C        1.32511109      -0.19633539      -0.15868472
C        0.35094054      -1.24569680       0.24610728
O       -0.45915087      -0.89961830       1.34930976
C       -1.66740081      -0.42805580       0.99389701
C       -0.55722070       0.74814083      -0.62492450
C        0.11325988      -0.53546863      -1.04335419
H        0.58475048       1.39732449       1.21885607
H        1.22795872       1.98099071      -0.33320574
H        2.37503813      -0.39944810      -0.32497576
H        0.62679388      -2.29002699       0.21699678
H       -1.99820026       0.24434637       1.79893394
H       -1.72177007       0.08224060      -0.13299048
H       -0.95319876       1.42880404      -1.37326839
H        0.05126442      -1.05060379      -1.99170725
15
Frame=3 idx=008438 GeodesicLength=0.21240354085371332 rxn_smarts="[C:1]1([H:8])([H:9])[C@@:2]2([H:10])[C@@:3]3([H:11])[O:4][C:5]([H:12])([H:13])[C@:6]1([H:14])[C@@:7]23[H:15]>>[C:1]1([H:8])([H:9])[C@:2]2([H:10])[C@@:3]([O+:4]=[C-:5][H:12])([H:11])[C@:7]2([H:15])[C:6]1([H:13])[H:14]"
C        0.70437643       1.16568267       0.15589334
C        1.32631963      -0.19531631      -0.15792316
C        0.35155155      -1.24503347       0.24586055
O       -0.45728466      -0.89969826       1.35029149
C       -1.66797346      -0.43256398       0.99908760
C       -0.56026898       0.74621250      -0.61893007
C        0.11589150      -0.53529412      -1.04328238
H        0.59244331       1.40556562       1.21497876
H        1.23007918       1.98033616      -0.34147426
H        2.37626680      -0.40138757      -0.32026632
H        0.62139996      -2.29083441       0.21774515
H       -2.00186605       0.23184390       1.80964597
H       -1.74040910       0.08977436      -0.14629421
H       -0.94724071       1.42766324      -1.37168156
H        0.05671458      -1.04695034      -1.99365089
15
Frame=4 idx=008438 GeodesicLength=0.2831902482873633 rxn_smarts="[C:1]1([H:8])([H:9])[C@@:2]2([H:10])[C@@:3]3([H:11])[O:4][C:5]([H:12])([H:13])[C@:6]1([H:14])[C@@:7]23[H:15]>>[C:1]1([H:8])([H:9])[C@:2]2([H:10])[C@@:3]([O+:4]=[C-:5][H:12])([H:11])[C@:7]2([H:15])[C:6]1([H:13])[H:14]"
C        0.70691675       1.16794510       0.15274819
C        1.32753932      -0.19430030      -0.15713701
C        0.35220697      -1.24439173       0.24567091
O       -0.45539596      -0.89981812       1.35132431
C       -1.66851932      -0.43720660       1.00428113
C       -0.56331607       0.74423598      -0.61286270
C        0.11851475      -0.53514664      -1.04315042
H        0.60017583       1.41385040       1.21100534
H        1.23214773       1.97963163      -0.34980190
H        2.37748611      -0.40329343      -0.31556174
H        0.61605542      -2.29162648       0.21853200
H       -2.00553354       0.21909293       1.82031151
H       -1.75904761       0.09794377      -0.15990863
H       -0.94131147       1.42641286      -1.36994995
H        0.06208109      -1.04332935      -1.99550107
15
Frame=5 idx=008438 GeodesicLength=0.3539714015064884 rxn_smarts="[C:1]1([H:8])([H:9])[C@@:2]2([H:10])[C@@:3]3([H:11])[O:4][C:5]([H:12])([H:13])[C@:6]1([H:14])[C@@:7]23[H:15]>>[C:1]1([H:8])([H:9])[C@:2]2([H:10])[C@@:3]([O+:4]=[C-:5][H:12])([H:11])[C@:7]2([H:15])[C:6]1([H:13])[H:14]"
C        0.70943889       1.17019138       0.14957679
C        1.32876913      -0.19328738      -0.15632591
C        0.35290825      -1.24377509       0.24554031
O       -0.45347964      -0.89998320       1.35241476
C       -1.66903805      -0.44199477       1.00949359
C       -0.56636676       0.74220770      -0.60672174
C        0.12112722      -0.53502939      -1.04295727
H        0.60794324       1.42217591       1.20693697
H        1.23415714       1.97887596      -0.35818534
H        2.37869733      -0.40516185      -0.31086460
H        0.61076722      -2.29240600       0.21935979
H       -2.00919238       0.20610018       1.83093423
H       -1.77768284       0.10677728      -0.17386642
H       -0.93541184       1.42505275      -1.36807649
H        0.06736308      -1.03974351      -1.99725869
15
Frame=6 idx=008438 GeodesicLength=0.4247437738816908 rxn_smarts="[C:1]1([H:8])([H:9])[C@@:2]2([H:10])[C@@:3]3([H:11])[O:4][C:5]([H:12])([H:13])[C@:6]1([H:14])[C@@:7]23[H:15]>>[C:1]1([H:8])([H:9])[C@:2]2([H:10])[C@@:3]([O+:4]=[C-:5][H:12])([H:11])[C@:7]2([H:15])[C:6]1([H:13])[H:14]"
C        0.71193464       1.17241850       0.14638202
C        1.33000550      -0.19227719      -0.15548988
C        0.35365678      -1.24318677       0.24546977
O       -0.45152833      -0.90019815       1.35356748
C       -1.66952450      -0.44694004       1.01473952
C       -0.56942603       0.74012282      -0.60050450
C        0.12372546      -0.53494650      -1.04270024
H        0.61573834       1.43053988       1.20277392
H        1.23609774       1.97806737      -0.36661894
H        2.37989737      -0.40698823      -0.30617755
H        0.60554199      -2.29317516       0.22022956
H       -2.01282807       0.19287378       1.84151470
H       -1.79631099       0.11630585      -0.18820218
H       -0.92953863       1.42358090      -1.36606201
H        0.07255874      -1.03619707      -1.99892167
15
Frame=7 idx=008438 GeodesicLength=0.49550701495014116 rxn_smarts="[C:1]1([H:8])([H:9])[C@@:2]2([H:10])[C@@:3]3([H:11])[O:4][C:5]([H:12])([H:13])[C@:6]1([H:14])[C@@:7]23[H:15]>>[C:1]1([H:8])([H:9])[C@:2]2([H:10])[C@@:3]([O+:4]=[C-:5][H:12])([H:11])[C@:7]2([H:15])[C:6]1([H:13])[H:14]"
C        0.71439554       1.17462334       0.14316679
C        1.33124529      -0.19126942      -0.15462910
C        0.35445416      -1.24263042       0.24546070
O       -0.44953463      -0.90046850       1.35478827
C       -1.66997412      -0.45205477       1.02003474
C       -0.57250002       0.73797622      -0.59420851
C        0.12630574      -0.53490210      -1.04237694
H        0.62355355       1.43893958       1.19851695
H        1.23795968       1.97720429      -0.37509735
H        2.38108435      -0.40876783      -0.30150354
H        0.60038708      -2.29393674       0.22114291
H       -2.01642632       0.17942213       1.85205570
H       -1.81492758       0.12656270      -0.20295391
H       -0.92368873       1.42199556      -1.36390803
H        0.07766601      -1.03269406      -2.00048867
15
Frame=8 idx=008438 GeodesicLength=0.5662607830966254 rxn_smarts="[C:1]1([H:8])([H:9])[C@@:2]2([H:10])[C@@:3]3([H:11])[O:4][C:5]([H:12])([H:13])[C@:6]1([H:14])[C@@:7]23[H:15]>>[C:1]1([H:8])([H:9])[C@:2]2([H:10])[C@@:3]([O+:4]=[C-:5][H:12])([H:11])[C@:7]2([H:15])[C:6]1([H:13])[H:14]"
C        0.71681236       1.17680258       0.13993418
C        1.33248511      -0.19026372      -0.15374387
C        0.35530213      -1.24210995       0.24551463
O       -0.44749062      -0.90080035       1.35608344
C       -1.67038185      -0.45735217       1.02539591
C       -0.57559576       0.73576225      -0.58783107
C        0.12886386      -0.53490061      -1.04198482
H        0.63138039       1.44737215       1.19416694
H        1.23973224       1.97628521      -0.38361508
H        2.38225630      -0.41049555      -0.29684575
H        0.59531029      -2.29469386       0.22210149
H       -2.01997196       0.16575413       1.86256128
H       -1.83352661       0.13758385      -0.21816295
H       -0.91785835       1.42029469      -1.36161612
H        0.08268248      -1.02923866      -2.00195821
15
Frame=9 idx=008438 GeodesicLength=0.637010109880867 rxn_smarts="[C:1]1([H:8])([H:9])[C@@:2]2([H:10])[C@@:3]3([H:11])[O:4][C:5]([H:12])([H:13])[C@:6]1([H:14])[C@@:7]23[H:15]>>[C:1]1([H:8])([H:9])[C@:2]2([H:10])[C@@:3]([O+:4]=[C-:5][H:12])([H:11])[C@:7]2([H:15])[C:6]1([H:13])[H:14]"
C        0.71917542       1.17895275       0.13668735
C        1.33372249      -0.18925999      -0.15283500
C        0.35620317      -1.24163023       0.24563370
O       -0.44538806      -0.90120132       1.35746108
C       -1.67074330      -0.46284664       1.03084174
C       -0.57872199       0.73347531      -0.58136972
C        0.13139545      -0.53494647      -1.04152175
H        0.63920936       1.45583407       1.18972548
H        1.24140455       1.97530925      -0.39216692
H        2.38341327      -0.41216647      -0.29220833
H        0.59032107      -2.29545097       0.22310789
H       -2.02345062       0.15187933       1.87303816
H       -1.85210296       0.14940905      -0.23387482
H       -0.91204346       1.41847728      -1.35918922
H        0.08760560      -1.02583495      -2.00332963
15
Frame=10 idx=008438 GeodesicLength=0.7077421695138466 rxn_smarts="[C:1]1([H:8])([H:9])[C@@:2]2([H:10])[C@@:3]3([H:11])[O:4][C:5]([H:12])([H:13])[C@:6]1([H:14])[C@@:7]23[H:15]>>[C:1]1([H:8])([H:9])[C@:2]2([H:10])[C@@:3]([O+:4]=[C-:5][H:12])([H:11])[C@:7]2([H:15])[C:6]1([H:13])[H:14]"
C        0.72147182       1.18107017       0.13343080
C        1.33494969      -0.18825715      -0.15190219
C        0.35715701      -1.24119431       0.24581828
O       -0.44321829      -0.90167657       1.35892533
C       -1.67105015      -0.46855074       1.03638991
C       -0.58188639       0.73110740      -0.57482029
C        0.13389462      -0.53504518      -1.04098368
H        0.64703008       1.46432232       1.18519341
H        1.24296041       1.97427443      -0.40074387
H        2.38454674      -0.41377362      -0.28759472
H        0.58542481      -2.29620983       0.22416146
H       -2.02683841       0.13781064       1.88349240
H       -1.87063527       0.16207276      -0.25014397
H       -0.90623785       1.41653828      -1.35662402
H        0.09243115      -1.02248861      -2.00459885
15
Frame=11 idx=008438 GeodesicLength=0.7784661861303619 rxn_smarts="[C:1]1([H:8])([H:9])[C@@:2]2([H:10])[C@@:3]3([H:11])[O:4][C:5]([H:12])([H:13])[C@:6]1([H:14])[C@@:7]23[H:15]>>[C:1]1([H:8])([H:9])[C@:2]2([H:10])[C@@:3]([O+:4]=[C-:5][H:12])([H:11])[C@:7]2([H:15])[C:6]1([H:13])[H:14]"
C        0.72369274       1.18315187       0.13016337
C        1.33616299      -0.18725476      -0.15094624
C        0.35816546      -1.24080646       0.24607038
O       -0.44096758      -0.90223107       1.36048609
C       -1.67129261      -0.47448273       1.04205990
C       -0.58510097       0.72865087      -0.56817826
C        0.13635427      -0.53520124      -1.04036721
H        0.65483375       1.47284169       1.18056506
H        1.24439158       1.97317428      -0.40935215
H        2.38565637      -0.41531341      -0.28299543
H        0.58062441      -2.29697481       0.22526252
H       -2.03012625       0.12353604       1.89394150
H       -1.88912268       0.17563455      -0.26701703
H       -0.90043432       1.41447216      -1.35392524
H        0.09716284      -1.01919698      -2.00576725
15
Frame=12 idx=008438 GeodesicLength=0.8491876692872459 rxn_smarts="[C:1]1([H:8])([H:9])[C@@:2]2([H:10])[C@@:3]3([H:11])[O:4][C:5]([H:12])([H:13])[C@:6]1([H:14])[C@@:7]23[H:15]>>[C:1]1([H:8])([H:9])[C@:2]2([H:10])[C@@:3]([O+:4]=[C-:5][H:12])([H:11])[C@:7]2([H:15])[C:6]1([H:13])[H:14]"
C        0.72582475       1.18519433       0.12688898
C        1.33735893      -0.18625313      -0.14996876
C        0.35923099      -1.24047293       0.24639312
O       -0.43862775      -0.90287422       1.36215421
C       -1.67146715      -0.48065757       1.04787646
C       -0.58837771       0.72609955      -0.56144132
C        0.13876899      -0.53542010      -1.03967019
H        0.66260826       1.48138687       1.17584362
H        1.24568198       1.97201010      -0.41798517
H        2.38674175      -0.41678051      -0.27841988
H        0.57593151      -2.29775263       0.22641553
H       -2.03329790       0.10906606       1.90440218
H       -1.90754622       0.19014026      -0.28456047
H       -0.89462679       1.41228019      -1.35109452
H        0.10179636      -1.01596628      -2.00683380
15
Frame=13 idx=008438 GeodesicLength=0.9199029630180476 rxn_smarts="[C:1]1([H:8])([H:9])[C@@:2]2([H:10])[C@@:3]3([H:11])[O:4][C:5]([H:12])([H:13])[C@:6]1([H:14])[C@@:7]23[H:15]>>[C:1]1([H:8])([H:9])[C@:2]2([H:10])[C@@:3]([O+:4]=[C-:5][H:12])([H:11])[C@:7]2([H:15])[C:6]1([H:13])[H:14]"
C        0.72785252       1.18719238       0.12361336
C        1.33853032      -0.18525098      -0.14897124
C        0.36035520      -1.24019812       0.24678851
O       -0.43618682      -0.90361398       1.36393766
C       -1.67156313      -0.48709247       1.05386184
C       -0.59172939       0.72344369      -0.55460512
C        0.14113041      -0.53570842      -1.03888811
H        0.67033936       1.48995229       1.17103166
H        1.24681330       1.97078064      -0.42663184
H        2.38779646      -0.41816602      -0.27387657
H        0.57135668      -2.29854626       0.22762350
H       -2.03632952       0.09441168       1.91488613
H       -1.92588393       0.20564274      -0.30284537
H       -0.88880470       1.40995771      -1.34813120
H        0.10632324      -1.01280488      -2.00779321
15
Frame=14 idx=008438 GeodesicLength=0.9906122795117949 rxn_smarts="[C:1]1([H:8])([H:9])[C@@:2]2([H:10])[C@@:3]3([H:11])[O:4][C:5]([H:12])([H:13])[C@:6]1([H:14])[C@@:7]23[H:15]>>[C:1]1([H:8])([H:9])[C@:2]2([H:10])[C@@:3]([O+:4]=[C-:5][H:12])([H:11])[C@:7]2([H:15])[C:6]1([H:13])[H:14]"
C        0.72975866       1.18914076       0.12034218
C        1.33966990      -0.18424741      -0.14795544
C        0.36153977      -1.23998827       0.24725848
O       -0.43363194      -0.90446078       1.36584676
C       -1.67157048      -0.49380697       1.06004299
C       -0.59517148       0.72067301      -0.54766627
C        0.14342957      -0.53607330      -1.03801728
H        0.67800961       1.49853295       1.16613215
H        1.24776601       1.96948496      -0.43528190
H        2.38881555      -0.41946103      -0.26937224
H        0.56691104      -2.29936129       0.22888863
H       -2.03919500       0.07958589       1.92541050
H       -1.94411014       0.22220122      -0.32194932
H       -0.88295773       1.40750012      -1.34503663
H        0.11073665      -1.00971985      -2.00864261
15
Frame=15 idx=008438 GeodesicLength=1.0613154316735407 rxn_smarts="[C:1]1([H:8])([H:9])[C@@:2]2([H:10])[C@@:3]3([H:11])[O:4][C:5]([H:12])([H:13])[C@:6]1([H:14])[C@@:7]23[H:15]>>[C:1]1([H:8])([H:9])[C@:2]2([H:10])[C@@:3]([O+:4]=[C-:5][H:12])([H:11])[C@:7]2([H:15])[C:6]1([H:13])[H:14]"
C        0.73152325       1.19103352       0.11708183
C        1.34076920      -0.18324148      -0.14692348
C        0.36278620      -1.23985014       0.24780483
O       -0.43094867      -0.90542602       1.36789271
C       -1.67147731      -0.50082093       1.06645015
C       -0.59872197       0.71777599      -0.54062129
C        0.14565634      -0.53652234      -1.03705372
H        0.68559879       1.50712301       1.16114864
H        1.24851802       1.96812209      -0.44392354
H        2.38979302      -0.42065598      -0.26491428
H        0.56260588      -2.30020386       0.23021262
H       -2.04186451       0.06460342       1.93599651
H       -1.96219325       0.23987870      -0.34196039
H       -0.87707414       1.40490249      -1.34181170
H        0.11502914      -1.00671846      -2.00937887
15
Frame=16 idx=008438 GeodesicLength=1.1320124939638543 rxn_smarts="[C:1]1([H:8])([H:9])[C@@:2]2([H:10])[C@@:3]3([H:11])[O:4][C:5]([H:12])([H:13])[C@:6]1([H:14])[C@@:7]23[H:15]>>[C:1]1([H:8])([H:9])[C@:2]2([H:10])[C@@:3]([O+:4]=[C-:5][H:12])([H:11])[C@:7]2([H:15])[C:6]1([H:13])[H:14]"
C        0.73312364       1.19286408       0.11383963
C        1.34181843      -0.18223209      -0.14587803
C        0.36409578      -1.23979118       0.24842931
O       -0.42812092      -0.90652228       1.37008791
C       -1.67127021      -0.50815582       1.07311722
C       -0.60240153       0.71473985      -0.53346696
C        0.14779900      -0.53706397      -1.03599329
H        0.69308355       1.51571591       1.15608555
H        1.24904463       1.96669132      -0.45254309
H        2.39072181      -0.42174010      -0.26051132
H        0.55845319      -2.30108085       0.23159709
H       -2.04430472       0.04948029       1.94666961
H       -1.98009457       0.25874442      -0.36297741
H       -0.87114005       1.40215929      -1.33845759
H        0.11919197      -1.00380887      -2.00999864
