11
Frame=0 idx=001461 GeodesicLength=0.0 rxn_smarts="[C:1]([C@@:2]1([H:10])[O:3][C@:4]1([C:5]#[N:6])[H:11])([H:7])([H:8])[H:9]>>[C:1]([C@@:2]1([H:10])[O:3][C@:4]1([N+:6]#[C-:5])[H:11])([H:7])([H:8])[H:9]"
C       -1.27098314      -0.52534059       0.22047375
C       -0.28600172       0.59672114       0.29791632
O        0.82315043       0.45275248       1.19030364
C        1.10972169       0.53525392      -0.14917234
C        2.12844088      -0.75840557      -0.64449316
N        1.15493242      -0.90256520      -1.30311117
H       -1.99868474      -0.42701636       1.02756704
H       -1.80269731      -0.48441365      -0.73132529
H       -0.77721798      -1.49055868       0.30041689
H       -0.71248800       1.59826906       0.31515185
H        1.63182748       1.40530342      -0.52372753
11
Frame=1 idx=001461 GeodesicLength=0.035427927929874065 rxn_smarts="[C:1]([C@@:2]1([H:10])[O:3][C@:4]1([C:5]#[N:6])[H:11])([H:7])([H:8])[H:9]>>[C:1]([C@@:2]1([H:10])[O:3][C@:4]1([N+:6]#[C-:5])[H:11])([H:7])([H:8])[H:9]"
C       -1.27066482      -0.52513568       0.22216295
C       -0.28790954       0.59929525       0.29673823
O        0.81920635       0.45981484       1.19137074
C        1.10787436       0.53436516      -0.15039980
C        2.12396273      -0.77887519      -0.63338762
N        1.16773524      -0.89191858      -1.31861174
H       -1.99329459      -0.43238302       1.03440399
H       -1.80924749      -0.48196922      -0.72571139
H       -0.77336379      -1.48930088       0.29461315
H       -0.71561173       1.60034421       0.30997458
H        1.63131328       1.40576312      -0.52115309
11
Frame=2 idx=001461 GeodesicLength=0.07088117415621235 rxn_smarts="[C:1]([C@@:2]1([H:10])[O:3][C@:4]1([C:5]#[N:6])[H:11])([H:7])([H:8])[H:9]>>[C:1]([C@@:2]1([H:10])[O:3][C@:4]1([N+:6]#[C-:5])[H:11])([H:7])([H:8])[H:9]"
C       -1.27035174      -0.52490427       0.22382803
C       -0.28978885       0.60183919       0.29558784
O        0.81535350       0.46679035       1.19234738
C        1.10602616       0.53351230      -0.15169428
C        2.11888376      -0.79945223      -0.62271757
N        1.18128389      -0.88134255      -1.33355949
H       -1.98788696      -0.43767319       1.04112987
H       -1.81573469      -0.47951978      -0.72008726
H       -0.76964530      -1.48800613       0.28882143
H       -0.71871127       1.60236911       0.30497680
H        1.63057150       1.40638721      -0.51863276
11
Frame=3 idx=001461 GeodesicLength=0.10636470137013682 rxn_smarts="[C:1]([C@@:2]1([H:10])[O:3][C@:4]1([C:5]#[N:6])[H:11])([H:7])([H:8])[H:9]>>[C:1]([C@@:2]1([H:10])[O:3][C@:4]1([N+:6]#[C-:5])[H:11])([H:7])([H:8])[H:9]"
C       -1.27005467      -0.52464714       0.22547004
C       -0.29163785       0.60435167       0.29447167
O        0.81160896       0.47365793       1.19323164
C        1.10417786       0.53270272      -0.15306532
C        2.11323324      -0.82010594      -0.61251512
N        1.19558215      -0.87087607      -1.34792826
H       -1.98249007      -0.44287203       1.04773217
H       -1.82215301      -0.47707417      -0.71446947
H       -0.76607756      -1.48668181       0.28306674
H       -0.72178226       1.60434808       0.30018785
H        1.62959321       1.40719676      -0.51618193
11
Frame=4 idx=001461 GeodesicLength=0.14188792963177538 rxn_smarts="[C:1]([C@@:2]1([H:10])[O:3][C@:4]1([C:5]#[N:6])[H:11])([H:7])([H:8])[H:9]>>[C:1]([C@@:2]1([H:10])[O:3][C@:4]1([N+:6]#[C-:5])[H:11])([H:7])([H:8])[H:9]"
C       -1.26979080      -0.52437178       0.22709025
C       -0.29345165       0.60683436       0.29339747
O        0.80799820       0.48040134       1.19403603
C        1.10234053       0.53195335      -0.15451923
C        2.10703774      -0.84079864      -0.60282101
N        1.21062013      -0.86056965      -1.36169344
H       -1.97714261      -0.44797371       1.05420421
H       -1.82850327      -0.47465120      -0.70888792
H       -0.76268493      -1.48534399       0.27737938
H       -0.72481606       1.60628981       0.29563044
H        1.62839272       1.40823011      -0.51381618
11
Frame=5 idx=001461 GeodesicLength=0.17728553425334692 rxn_smarts="[C:1]([C@@:2]1([H:10])[O:3][C@:4]1([C:5]#[N:6])[H:11])([H:7])([H:8])[H:9]>>[C:1]([C@@:2]1([H:10])[O:3][C@:4]1([N+:6]#[C-:5])[H:11])([H:7])([H:8])[H:9]"
C       -1.26951398      -0.52405008       0.22870505
C       -0.29524659       0.60927572       0.29236234
O        0.80446307       0.48702123       1.19471189
C        1.10045563       0.53119492      -0.15606632
C        2.10031457      -0.86161430      -0.59350911
N        1.22640432      -0.85025624      -1.37499073
H       -1.97179867      -0.45291804       1.06053553
H       -1.83471254      -0.47223719      -0.70328929
H       -0.75938681      -1.48394926       0.27176465
H       -0.72783199       1.60817793       0.29129973
H        1.62685298       1.40935532      -0.51152375
11
Frame=6 idx=001461 GeodesicLength=0.21268098063259883 rxn_smarts="[C:1]([C@@:2]1([H:10])[O:3][C@:4]1([C:5]#[N:6])[H:11])([H:7])([H:8])[H:9]>>[C:1]([C@@:2]1([H:10])[O:3][C@:4]1([N+:6]#[C-:5])[H:11])([H:7])([H:8])[H:9]"
C       -1.26927980      -0.52372296       0.23030716
C       -0.29699795       0.61168091       0.29136664
O        0.80108042       0.49350078       1.19531303
C        1.09858835       0.53049328      -0.15770778
C        2.09307344      -0.88248537      -0.58473716
N        1.24289359      -0.84000177      -1.38762015
H       -1.96653386      -0.45776467       1.06672899
H       -1.84084498      -0.46987341      -0.69773377
H       -0.75628125      -1.48255953       0.26625231
H       -0.73079794       1.61003480       0.28717978
H        1.62509998       1.41069793      -0.50934908
11
Frame=7 idx=001461 GeodesicLength=0.24801007867708882 rxn_smarts="[C:1]([C@@:2]1([H:10])[O:3][C@:4]1([C:5]#[N:6])[H:11])([H:7])([H:8])[H:9]>>[C:1]([C@@:2]1([H:10])[O:3][C@:4]1([N+:6]#[C-:5])[H:11])([H:7])([H:8])[H:9]"
C       -1.26907269      -0.52334343       0.23189547
C       -0.29873386       0.61403510       0.29039180
O        0.79776793       0.49982607       1.19576773
C        1.09669470       0.52982549      -0.15946448
C        2.08535412      -0.90332246      -0.57642869
N        1.26021168      -0.82996671      -1.39964450
H       -1.96127235      -0.46250820       1.07284188
H       -1.84693608      -0.46745194      -0.69214020
H       -0.75333876      -1.48109930       0.26074223
H       -0.73374350       1.61179956       0.28331354
H        1.62306881       1.41220580      -0.50727476
11
Frame=8 idx=001461 GeodesicLength=0.2834683207016457 rxn_smarts="[C:1]([C@@:2]1([H:10])[O:3][C@:4]1([C:5]#[N:6])[H:11])([H:7])([H:8])[H:9]>>[C:1]([C@@:2]1([H:10])[O:3][C@:4]1([N+:6]#[C-:5])[H:11])([H:7])([H:8])[H:9]"
C       -1.26893082      -0.52297732       0.23347188
C       -0.30043209       0.61638703       0.28943158
O        0.79463823       0.50604826       1.19617819
C        1.09482217       0.52923361      -0.16131751
C        2.07711483      -0.92429262      -0.56859677
N        1.27832509      -0.82000683      -1.41106851
H       -1.95603487      -0.46721158       1.07889060
H       -1.85309004      -0.46505879      -0.68657281
H       -0.75059148      -1.47971402       0.25527706
H       -0.73665174       1.61361503       0.27961256
H        1.62083073       1.41397722      -0.50530626
11
Frame=9 idx=001461 GeodesicLength=0.31884610984804523 rxn_smarts="[C:1]([C@@:2]1([H:10])[O:3][C@:4]1([C:5]#[N:6])[H:11])([H:7])([H:8])[H:9]>>[C:1]([C@@:2]1([H:10])[O:3][C@:4]1([N+:6]#[C-:5])[H:11])([H:7])([H:8])[H:9]"
C       -1.26880982      -0.52252809       0.23502142
C       -0.30213798       0.61867227       0.28847558
O        0.79152888       0.51209068       1.19638367
C        1.09287116       0.52865008      -0.16333518
C        2.06854336      -0.94515254      -0.56124459
N        1.29731434      -0.81037474      -1.42171787
H       -1.95072090      -0.47183730       1.08490240
H       -1.85925628      -0.46247977      -0.68088901
H       -0.74800733      -1.47821070       0.24967309
H       -0.73956541       1.61531322       0.27620391
H        1.61823998       1.41585689      -0.50347341
11
Frame=10 idx=001461 GeodesicLength=0.35422317924276636 rxn_smarts="[C:1]([C@@:2]1([H:10])[O:3][C@:4]1([C:5]#[N:6])[H:11])([H:7])([H:8])[H:9]>>[C:1]([C@@:2]1([H:10])[O:3][C@:4]1([N+:6]#[C-:5])[H:11])([H:7])([H:8])[H:9]"
C       -1.26871132      -0.52204790       0.23659310
C       -0.30381416       0.62090515       0.28755263
O        0.78851571       0.51798329       1.19649329
C        1.09090984       0.52807938      -0.16545096
C        2.05936971      -0.96612852      -0.55443705
N        1.31714098      -0.80062148      -1.43179216
H       -1.94549367      -0.47629325       1.09079205
H       -1.86528393      -0.45999102      -0.67520851
H       -0.74556652      -1.47666821       0.24424121
H       -0.74245232       1.61693895       0.27297786
H        1.61538568       1.41784361      -0.50176146
11
Frame=11 idx=001461 GeodesicLength=0.3896453503617117 rxn_smarts="[C:1]([C@@:2]1([H:10])[O:3][C@:4]1([C:5]#[N:6])[H:11])([H:7])([H:8])[H:9]>>[C:1]([C@@:2]1([H:10])[O:3][C@:4]1([N+:6]#[C-:5])[H:11])([H:7])([H:8])[H:9]"
C       -1.26868143      -0.52155286       0.23815081
C       -0.30547249       0.62312178       0.28664623
O        0.78565206       0.52373341       1.19650894
C        1.08893359       0.52757577      -0.16770057
C        2.04977425      -0.98713827      -0.54813953
N        1.33782575      -0.79107787      -1.44118954
H       -1.94027745      -0.48069469       1.09663825
H       -1.87138434      -0.45746341      -0.66951985
H       -0.74331871      -1.47515296       0.23880897
H       -0.74532366       1.61857944       0.26998746
H        1.61227243       1.42006966      -0.50019117
11
Frame=12 idx=001461 GeodesicLength=0.4251428939100077 rxn_smarts="[C:1]([C@@:2]1([H:10])[O:3][C@:4]1([C:5]#[N:6])[H:11])([H:7])([H:8])[H:9]>>[C:1]([C@@:2]1([H:10])[O:3][C@:4]1([N+:6]#[C-:5])[H:11])([H:7])([H:8])[H:9]"
C       -1.26870736      -0.52106566       0.23969898
C       -0.30710015       0.62533771       0.28575704
O        0.78295104       0.52936557       1.19646928
C        1.08693768       0.52714611      -0.17007524
C        2.03969503      -1.00823694      -0.54237333
N        1.35934531      -0.78168503      -1.44990268
H       -1.93505558      -0.48504859       1.10244204
H       -1.87754340      -0.45493338      -0.66384589
H       -0.74126555      -1.47371420       0.23339346
H       -0.74815993       1.62028090       0.26719037
H        1.60890293       1.42255352      -0.49875404
11
Frame=13 idx=001461 GeodesicLength=0.46045621345072096 rxn_smarts="[C:1]([C@@:2]1([H:10])[O:3][C@:4]1([C:5]#[N:6])[H:11])([H:7])([H:8])[H:9]>>[C:1]([C@@:2]1([H:10])[O:3][C@:4]1([N+:6]#[C-:5])[H:11])([H:7])([H:8])[H:9]"
C       -1.26877652      -0.52047511       0.24126114
C       -0.30874374       0.62743509       0.28484454
O        0.78023907       0.53478085       1.19613498
C        1.08487332       0.52668905      -0.17264453
C        2.02920925      -1.02920387      -0.53712873
N        1.38190812      -0.77236875      -1.45774524
H       -1.92979687      -0.48931702       1.10822111
H       -1.88372990      -0.45222327      -0.65793296
H       -0.73939406      -1.47206797       0.22786722
H       -0.75100991       1.62173611       0.26463178
H        1.60522124       1.42501489      -0.49750931
11
Frame=14 idx=001461 GeodesicLength=0.4959072659461375 rxn_smarts="[C:1]([C@@:2]1([H:10])[O:3][C@:4]1([C:5]#[N:6])[H:11])([H:7])([H:8])[H:9]>>[C:1]([C@@:2]1([H:10])[O:3][C@:4]1([N+:6]#[C-:5])[H:11])([H:7])([H:8])[H:9]"
C       -1.26893136      -0.51990311       0.24280847
C       -0.31036698       0.62955432       0.28393451
O        0.77771136       0.54009615       1.19576967
C        1.08278813       0.52632481      -0.17536111
C        2.01828011      -1.05027735      -0.53241218
N        1.40539720      -0.76326678      -1.46484909
H       -1.92448462      -0.49360535       1.11403216
H       -1.89010267      -0.44946352      -0.65201621
H       -0.73774376      -1.47054140       0.22226876
H       -0.75383755       1.62330838       0.26225810
H        1.60129014       1.42777386      -0.49643309
11
Frame=15 idx=001461 GeodesicLength=0.5313422901679737 rxn_smarts="[C:1]([C@@:2]1([H:10])[O:3][C@:4]1([C:5]#[N:6])[H:11])([H:7])([H:8])[H:9]>>[C:1]([C@@:2]1([H:10])[O:3][C@:4]1([N+:6]#[C-:5])[H:11])([H:7])([H:8])[H:9]"
C       -1.26913010      -0.51926368       0.24437213
C       -0.31200333       0.63160754       0.28300761
O        0.77522404       0.54524434       1.19520053
C        1.08063320       0.52595881      -0.17825550
C        2.00687175      -1.07136987      -0.52827760
N        1.42995996      -0.75420966      -1.47108573
H       -1.91910141      -0.49783370       1.11984853
H       -1.89654524      -0.44657778      -0.64591510
H       -0.73626349      -1.46891254       0.21657316
H       -0.75668784       1.62477038       0.26006748
H        1.59704246       1.43058616      -0.49553553
11
Frame=16 idx=001461 GeodesicLength=0.566825922021349 rxn_smarts="[C:1]([C@@:2]1([H:10])[O:3][C@:4]1([C:5]#[N:6])[H:11])([H:7])([H:8])[H:9]>>[C:1]([C@@:2]1([H:10])[O:3][C@:4]1([N+:6]#[C-:5])[H:11])([H:7])([H:8])[H:9]"
C       -1.26940885      -0.51860368       0.24593902
C       -0.31363753       0.63363851       0.28206861
O        0.77285973       0.55025482       1.19450024
C        1.07842696       0.52564865      -0.18133573
C        1.99499637      -1.09249714      -0.52473587
N        1.45557971      -0.74530272      -1.47643360
H       -1.91364902      -0.50206834       1.12570172
H       -1.90315116      -0.44359174      -0.63970147
H       -0.73500589      -1.46729556       0.21076910
H       -0.75953103       1.62623535       0.25807028
H        1.59252071       1.43358186      -0.49484231
