10
Frame=0 idx=010288 GeodesicLength=0.0 rxn_smarts="[N:1](=[C:2]=[C:7]([C:6](=[O:5])[H:9])[H:10])[H:8].[N:3]#[N:4]>>[N:1](=[C:2]=[C:7]([N+:4](=[N-:3])[C:6](=[O:5])[H:9])[H:10])[H:8]"
N        2.80733177      -0.16683335       0.13673891
C        1.61883962      -0.36263579       0.06699858
N       -0.28822981       1.75441233       0.12879677
N       -0.58455920       0.58628875       0.12756516
O       -2.80520555       0.42885278       0.88453743
C       -2.02874272       0.20450337       0.02373530
C        0.32240557      -0.55887960       0.12211237
H        3.33628672      -0.09882060      -0.72729212
H       -2.27154161      -0.23908639      -0.95824380
H       -0.10658480      -1.54780150       0.19505141
10
Frame=1 idx=010288 GeodesicLength=0.1396591287734516 rxn_smarts="[N:1](=[C:2]=[C:7]([C:6](=[O:5])[H:9])[H:10])[H:8].[N:3]#[N:4]>>[N:1](=[C:2]=[C:7]([N+:4](=[N-:3])[C:6](=[O:5])[H:9])[H:10])[H:8]"
N        2.80061468      -0.19916528       0.19181070
C        1.60902102      -0.37347626       0.12086403
N       -0.27239324       1.79888177       0.07802881
N       -0.56964984       0.64170668      -0.02544628
O       -2.72595196       0.39352311       0.96945399
C       -2.01635801       0.18143981       0.04901453
C        0.30798932      -0.55443019       0.10108146
H        3.32427713      -0.07740212      -0.66952300
H       -2.33885663      -0.26401307      -0.90927502
H       -0.11869249      -1.54706444       0.09399079
10
Frame=2 idx=010288 GeodesicLength=0.28183256673693635 rxn_smarts="[N:1](=[C:2]=[C:7]([C:6](=[O:5])[H:9])[H:10])[H:8].[N:3]#[N:4]>>[N:1](=[C:2]=[C:7]([N+:4](=[N-:3])[C:6](=[O:5])[H:9])[H:10])[H:8]"
N        2.78323793      -0.22100232       0.24590904
C        1.59076031      -0.38431969       0.16510275
N       -0.25599181       1.83163664       0.01289879
N       -0.56048942       0.68787049      -0.15214006
O       -2.64184137       0.36066237       1.04701196
C       -1.99641489       0.16054949       0.07702825
C        0.28978293      -0.55295852       0.07367817
H        3.31024286      -0.05700152      -0.60629059
H       -2.39396515      -0.27775814      -0.85654072
H       -0.12532140      -1.54767879      -0.00665759
10
Frame=3 idx=010288 GeodesicLength=0.4252068477001171 rxn_smarts="[N:1](=[C:2]=[C:7]([C:6](=[O:5])[H:9])[H:10])[H:8].[N:3]#[N:4]>>[N:1](=[C:2]=[C:7]([N+:4](=[N-:3])[C:6](=[O:5])[H:9])[H:10])[H:8]"
N        2.76032925      -0.23667507       0.29367484
C        1.56828913      -0.39596063       0.20003401
N       -0.23860331       1.85863111      -0.05265986
N       -0.55480965       0.72802076      -0.25468099
O       -2.56031598       0.32769826       1.11206262
C       -1.97276713       0.14106108       0.10241699
C        0.27084329      -0.55496559       0.04589352
H        3.29316369      -0.03623602      -0.54702300
H       -2.43643939      -0.28185483      -0.80788785
H       -0.12968989      -1.54971907      -0.09183027
10
Frame=4 idx=010288 GeodesicLength=0.5693992636418168 rxn_smarts="[N:1](=[C:2]=[C:7]([C:6](=[O:5])[H:9])[H:10])[H:8].[N:3]#[N:4]>>[N:1](=[C:2]=[C:7]([N+:4](=[N-:3])[C:6](=[O:5])[H:9])[H:10])[H:8]"
N        2.73386353      -0.24874664       0.33728587
C        1.54348356      -0.40897288       0.22605176
N       -0.21989968       1.88204694      -0.11614141
N       -0.55163366       0.76465839      -0.34346267
O       -2.47972546       0.29519292       1.16833825
C       -1.94716174       0.12286495       0.12527064
C        0.25179019      -0.55986963       0.01692257
H        3.27496713      -0.01310436      -0.48883992
H       -2.47154834      -0.28035953      -0.76109236
H       -0.13413552      -1.55371016      -0.16433272
10
Frame=5 idx=010288 GeodesicLength=0.7141799268790786 rxn_smarts="[N:1](=[C:2]=[C:7]([C:6](=[O:5])[H:9])[H:10])[H:8].[N:3]#[N:4]>>[N:1](=[C:2]=[C:7]([N+:4](=[N-:3])[C:6](=[O:5])[H:9])[H:10])[H:8]"
N        2.70619319      -0.25855718       0.37537715
C        1.51807059      -0.42210494       0.24651387
N       -0.20020596       1.90353857      -0.17385042
N       -0.54984263       0.79980626      -0.42134595
O       -2.40273653       0.26232626       1.21524460
C       -1.92089993       0.10553625       0.14448863
C        0.23319386      -0.56633941      -0.00969658
H        3.25483036       0.01038597      -0.43543260
H       -2.49984902      -0.27524288      -0.71793153
H       -0.13875393      -1.55934889      -0.22336718
10
Frame=6 idx=010288 GeodesicLength=0.8594777049910268 rxn_smarts="[N:1](=[C:2]=[C:7]([C:6](=[O:5])[H:9])[H:10])[H:8].[N:3]#[N:4]>>[N:1](=[C:2]=[C:7]([N+:4](=[N-:3])[C:6](=[O:5])[H:9])[H:10])[H:8]"
N        2.67754180      -0.26679688       0.40992615
C        1.49242799      -0.43563785       0.26196058
N       -0.17926445       1.92340482      -0.22796539
N       -0.54923188       0.83404551      -0.49201958
O       -2.32787383       0.22951313       1.25563282
C       -1.89435543       0.08890336       0.16129910
C        0.21494654      -0.57432541      -0.03517842
H        3.23355394       0.03522973      -0.38401514
H       -2.52367929      -0.26756325      -0.67629746
H       -0.14406539      -1.56677315      -0.27334264
10
Frame=7 idx=010288 GeodesicLength=1.005029904850908 rxn_smarts="[N:1](=[C:2]=[C:7]([C:6](=[O:5])[H:9])[H:10])[H:8].[N:3]#[N:4]>>[N:1](=[C:2]=[C:7]([N+:4](=[N-:3])[C:6](=[O:5])[H:9])[H:10])[H:8]"
N        2.64904013      -0.27338562       0.44032525
C        1.46728394      -0.44892145       0.27469771
N       -0.15718357       1.94213483      -0.27743716
N       -0.54914163       0.86806653      -0.55611622
O       -2.25693463       0.19637183       1.28932479
C       -1.86813796       0.07249393       0.17542733
C        0.19721451      -0.58327295      -0.05743544
H        3.21064573       0.05983510      -0.33698651
H       -2.54323678      -0.25777193      -0.63730878
H       -0.14954973      -1.57555027      -0.31449097
10
Frame=8 idx=010288 GeodesicLength=1.1509362550210342 rxn_smarts="[N:1](=[C:2]=[C:7]([C:6](=[O:5])[H:9])[H:10])[H:8].[N:3]#[N:4]>>[N:1](=[C:2]=[C:7]([N+:4](=[N-:3])[C:6](=[O:5])[H:9])[H:10])[H:8]"
N        2.62042630      -0.27851316       0.46810690
C        1.44260777      -0.46222188       0.28463502
N       -0.13379550       1.95982538      -0.32405024
N       -0.54969063       0.90216601      -0.61559602
O       -2.18857953       0.16318032       1.31826546
C       -1.84228918       0.05627220       0.18779427
C        0.17985707      -0.59330785      -0.07801443
H        3.18672815       0.08480056      -0.29209351
H       -2.55981341      -0.24640358      -0.59936401
H       -0.15545106      -1.58579800      -0.34968345
10
Frame=9 idx=010288 GeodesicLength=1.2972325208407303 rxn_smarts="[N:1](=[C:2]=[C:7]([C:6](=[O:5])[H:9])[H:10])[H:8].[N:3]#[N:4]>>[N:1](=[C:2]=[C:7]([N+:4](=[N-:3])[C:6](=[O:5])[H:9])[H:10])[H:8]"
N        2.59137327      -0.28228098       0.49426538
C        1.41837339      -0.47574441       0.29156926
N       -0.10896704       1.97650295      -0.36901287
N       -0.55098665       0.93662587      -0.67171622
O       -2.12183951       0.13002741       1.34366569
C       -1.81675116       0.04022107       0.19901642
C        0.16275886      -0.60448006      -0.09790531
H        3.16204651       0.11046985      -0.24777248
H       -2.57402620      -0.23383843      -0.56136816
H       -0.16198147      -1.59750327      -0.38074171
10
Frame=10 idx=010288 GeodesicLength=1.443979175042309 rxn_smarts="[N:1](=[C:2]=[C:7]([C:6](=[O:5])[H:9])[H:10])[H:8].[N:3]#[N:4]>>[N:1](=[C:2]=[C:7]([N+:4](=[N-:3])[C:6](=[O:5])[H:9])[H:10])[H:8]"
N        2.56180808      -0.28424659       0.51935539
C        1.39469042      -0.48940622       0.29586923
N       -0.08271057       1.99222628      -0.41274396
N       -0.55305291       0.97173838      -0.72507415
O       -2.05647845       0.09658952       1.36599495
C       -1.79155045       0.02408991       0.20927527
C        0.14592553      -0.61673614      -0.11723688
H        3.13664978       0.13627161      -0.20398159
H       -2.58625559      -0.21990170      -0.52307944
H       -0.16902583      -1.61062504      -0.40837882
10
Frame=11 idx=010288 GeodesicLength=1.591077284905996 rxn_smarts="[N:1](=[C:2]=[C:7]([C:6](=[O:5])[H:9])[H:10])[H:8].[N:3]#[N:4]>>[N:1](=[C:2]=[C:7]([N+:4](=[N-:3])[C:6](=[O:5])[H:9])[H:10])[H:8]"
N        2.53174503      -0.28438709       0.54352230
C        1.37168418      -0.50308929       0.29787675
N       -0.05501107       2.00706188      -0.45534102
N       -0.55585303       1.00785186      -0.77586261
O       -1.99272989       0.06291737       1.38544618
C       -1.76677598       0.00772705       0.21865237
C        0.12933870      -0.62997919      -0.13579569
H        3.11052970       0.16183870      -0.16098180
H       -2.59649021      -0.20492532      -0.48450727
H       -0.17643743      -1.62501597      -0.43300922
10
Frame=12 idx=010288 GeodesicLength=1.7385697559899989 rxn_smarts="[N:1](=[C:2]=[C:7]([C:6](=[O:5])[H:9])[H:10])[H:8].[N:3]#[N:4]>>[N:1](=[C:2]=[C:7]([N+:4](=[N-:3])[C:6](=[O:5])[H:9])[H:10])[H:8]"
N        2.50113760      -0.28265444       0.56696346
C        1.34943430      -0.51667811       0.29788483
N       -0.02587394       2.02110399      -0.49701746
N       -0.55935554       1.04531502      -0.82430614
O       -1.93070117       0.02883601       1.40227400
C       -1.74248994      -0.00900340       0.22722281
C        0.11298803      -0.64415144      -0.15349187
H        3.08372595       0.18686417      -0.11898021
H       -2.60476963      -0.18900135      -0.44567729
H       -0.18409566      -1.64063045      -0.45487212
10
Frame=13 idx=010288 GeodesicLength=1.8864437867211319 rxn_smarts="[N:1](=[C:2]=[C:7]([C:6](=[O:5])[H:9])[H:10])[H:8].[N:3]#[N:4]>>[N:1](=[C:2]=[C:7]([N+:4](=[N-:3])[C:6](=[O:5])[H:9])[H:10])[H:8]"
N        2.46991103      -0.27926027       0.58979857
C        1.32799807      -0.53014366       0.29597534
N        0.00471086       2.03433609      -0.53811639
N       -0.56355069       1.08441820      -0.87061817
O       -1.87033554      -0.00574720       1.41673344
C       -1.71870807      -0.02619707       0.23508365
C        0.09684415      -0.65926575      -0.17036057
H        3.05623306       0.21148100      -0.07782033
H       -2.61114046      -0.17214471      -0.40648762
H       -0.19196241      -1.65747663      -0.47418790
10
Frame=14 idx=010288 GeodesicLength=2.034609289723659 rxn_smarts="[N:1](=[C:2]=[C:7]([C:6](=[O:5])[H:9])[H:10])[H:8].[N:3]#[N:4]>>[N:1](=[C:2]=[C:7]([N+:4](=[N-:3])[C:6](=[O:5])[H:9])[H:10])[H:8]"
N        2.43815160      -0.27417924       0.61194921
C        1.30745850      -0.54326588       0.29257278
N        0.03669771       2.04683514      -0.57858406
N       -0.56838011       1.12556951      -0.91467675
O       -1.81213881      -0.04083941       1.42889072
C       -1.69558296      -0.04401030       0.24220185
C        0.08091415      -0.67523856      -0.18603706
H        3.02819560       0.23522378      -0.03813523
H       -2.61551292      -0.15462816      -0.36727966
H       -0.19980275      -1.67546689      -0.49090179
10
Frame=15 idx=010288 GeodesicLength=2.182978867690702 rxn_smarts="[N:1](=[C:2]=[C:7]([C:6](=[O:5])[H:9])[H:10])[H:8].[N:3]#[N:4]>>[N:1](=[C:2]=[C:7]([N+:4](=[N-:3])[C:6](=[O:5])[H:9])[H:10])[H:8]"
N        2.40600437      -0.26740444       0.63326980
C        1.28782551      -0.55577810       0.28825622
N        0.07001803       2.05867544      -0.61833184
N       -0.57375317       1.16919791      -0.95632273
O       -1.75666531      -0.07650381       1.43881669
C       -1.67329128      -0.06259845       0.24851377
C        0.06522133      -0.69199774      -0.20014642
H        2.99981775       0.25762953      -0.00069967
H       -2.61783913      -0.13667607      -0.32849908
H       -0.20733809      -1.69454426      -0.50485675
10
Frame=16 idx=010288 GeodesicLength=2.3314561908967746 rxn_smarts="[N:1](=[C:2]=[C:7]([C:6](=[O:5])[H:9])[H:10])[H:8].[N:3]#[N:4]>>[N:1](=[C:2]=[C:7]([N+:4](=[N-:3])[C:6](=[O:5])[H:9])[H:10])[H:8]"
N        2.37355143      -0.25894973       0.65367189
C        1.26904298      -0.56747848       0.28348482
N        0.10458671       2.06984432      -0.65741505
N       -0.57962117       1.21572081      -0.99543999
O       -1.70426043      -0.11281536       1.44663776
C       -1.65196834      -0.08209819       0.25398480
C        0.04978920      -0.70953222      -0.21249675
H        2.97134449       0.27841170       0.03398712
H       -2.61814365      -0.11839246      -0.29045157
H       -0.21432121      -1.71471039      -0.51596302
