8
Frame=0 idx=003184 GeodesicLength=0.0 rxn_smarts="[N:1]([C:2](=[O:3])[C:4]#[C:5][H:8])([H:6])[H:7]>>[N:1]([C:4]([C:2]#[O+:3])=[C-:5][H:8])([H:6])[H:7]"
N       -0.96299785       0.47327765       0.01148534
C       -0.32978248      -0.98841185       0.11452772
O       -0.81458909      -2.04570019       0.24416613
C        0.57215142       0.02938443      -0.03539361
C        1.67371875       0.73781864      -0.17000797
H       -1.29941490       0.93113472       0.84736090
H       -1.39679293       0.77074139      -0.85154709
H        2.55770711       0.09175521      -0.16059143
8
Frame=1 idx=003184 GeodesicLength=0.05021787119696962 rxn_smarts="[N:1]([C:2](=[O:3])[C:4]#[C:5][H:8])([H:6])[H:7]>>[N:1]([C:4]([C:2]#[O+:3])=[C-:5][H:8])([H:6])[H:7]"
N       -0.97828861       0.47911233       0.01253217
C       -0.32346501      -0.98236168       0.12375824
O       -0.78611171      -2.05300743       0.22194026
C        0.56346236       0.03807475      -0.09183091
C        1.68120283       0.72211820      -0.16440340
H       -1.26362303       0.97049499       0.84797467
H       -1.45675138       0.74804684      -0.83577489
H        2.56357456       0.07752200      -0.11419614
8
Frame=2 idx=003184 GeodesicLength=0.10056611541161393 rxn_smarts="[N:1]([C:2](=[O:3])[C:4]#[C:5][H:8])([H:6])[H:7]>>[N:1]([C:4]([C:2]#[O+:3])=[C-:5][H:8])([H:6])[H:7]"
N       -0.99298069       0.48513300       0.01413994
C       -0.31506577      -0.97538091       0.13126341
O       -0.75479360      -2.05825474       0.19930131
C        0.55481655       0.04838657      -0.14071855
C        1.68698722       0.70479262      -0.15804155
H       -1.23107818       1.00939305       0.84396817
H       -1.51351360       0.72524935      -0.81748785
H        2.56562806       0.06068106      -0.07242487
8
Frame=3 idx=003184 GeodesicLength=0.15112185921935806 rxn_smarts="[N:1]([C:2](=[O:3])[C:4]#[C:5][H:8])([H:6])[H:7]>>[N:1]([C:4]([C:2]#[O+:3])=[C-:5][H:8])([H:6])[H:7]"
N       -1.00722816       0.49117123       0.01636026
C       -0.30584184      -0.96821286       0.13728807
O       -0.72240735      -2.06204908       0.17624007
C        0.54685205       0.05972707      -0.17956731
C        1.69167931       0.68649579      -0.15141225
H       -1.20303085       1.04765752       0.83582596
H       -1.56582026       0.70262611      -0.79781192
H        2.56579709       0.04258421      -0.03692288
8
Frame=4 idx=003184 GeodesicLength=0.20175231935372023 rxn_smarts="[N:1]([C:2](=[O:3])[C:4]#[C:5][H:8])([H:6])[H:7]>>[N:1]([C:4]([C:2]#[O+:3])=[C-:5][H:8])([H:6])[H:7]"
N       -1.02116472       0.49711178       0.01916280
C       -0.29647355      -0.96121694       0.14206409
O       -0.68988526      -2.06472606       0.15292430
C        0.53967267       0.07156636      -0.21044172
C        1.69568407       0.66764742      -0.14439109
H       -1.17871315       1.08546859       0.82413480
H       -1.61441534       0.68009323      -0.77684905
H        2.56529529       0.02405562      -0.00660414
8
Frame=5 idx=003184 GeodesicLength=0.2523597050557656 rxn_smarts="[N:1]([C:2](=[O:3])[C:4]#[C:5][H:8])([H:6])[H:7]>>[N:1]([C:4]([C:2]#[O+:3])=[C-:5][H:8])([H:6])[H:7]"
N       -1.03479876       0.50287198       0.02241974
C       -0.28717361      -0.95462617       0.14536907
O       -0.65775646      -2.06648637       0.12978935
C        0.53320777       0.08358804      -0.23594674
C        1.69916818       0.64841436      -0.13758562
H       -1.15689686       1.12263106       0.80947578
H       -1.66029952       0.65788608      -0.75427853
H        2.56454925       0.00572101       0.02075695
8
Frame=6 idx=003184 GeodesicLength=0.30267931318849084 rxn_smarts="[N:1]([C:2](=[O:3])[C:4]#[C:5][H:8])([H:6])[H:7]>>[N:1]([C:4]([C:2]#[O+:3])=[C-:5][H:8])([H:6])[H:7]"
N       -1.04819793       0.50850760       0.02625756
C       -0.27819984      -0.94830543       0.14818290
O       -0.62618401      -2.06730915       0.10630922
C        0.52752813       0.09574310      -0.25618361
C        1.70227821       0.62901438      -0.12947287
H       -1.13812820       1.15954781       0.79170604
H       -1.70327776       0.63546368      -0.73050917
H        2.56418140      -0.01266200       0.04370992
8
Frame=7 idx=003184 GeodesicLength=0.3529594792834342 rxn_smarts="[N:1]([C:2](=[O:3])[C:4]#[C:5][H:8])([H:6])[H:7]>>[N:1]([C:4]([C:2]#[O+:3])=[C-:5][H:8])([H:6])[H:7]"
N       -1.06108570       0.51401907       0.03073534
C       -0.26936589      -0.94258889       0.14944041
O       -0.59548570      -2.06753362       0.08265157
C        0.52239245       0.10753689      -0.27445643
C        1.70505102       0.60921024      -0.12394343
H       -1.12003206       1.19599981       0.77152081
H       -1.74494680       0.61326757      -0.70403392
H        2.56347268      -0.02991107       0.06808566
8
Frame=8 idx=003184 GeodesicLength=0.4030567559364586 rxn_smarts="[N:1]([C:2](=[O:3])[C:4]#[C:5][H:8])([H:6])[H:7]>>[N:1]([C:4]([C:2]#[O+:3])=[C-:5][H:8])([H:6])[H:7]"
N       -1.07376915       0.51939570       0.03565228
C       -0.26083340      -0.93730401       0.15015396
O       -0.56566858      -2.06708835       0.05903961
C        0.51794226       0.11922931      -0.28946036
C        1.70750361       0.58933966      -0.11730745
H       -1.10416847       1.23183324       0.74865927
H       -1.78433706       0.59138206      -0.67626136
H        2.56333079      -0.04678760       0.08952406
8
Frame=9 idx=003184 GeodesicLength=0.4530127389252752 rxn_smarts="[N:1]([C:2](=[O:3])[C:4]#[C:5][H:8])([H:6])[H:7]>>[N:1]([C:4]([C:2]#[O+:3])=[C-:5][H:8])([H:6])[H:7]"
N       -1.08601972       0.52475585       0.04114913
C       -0.25254610      -0.93245700       0.15014981
O       -0.53680271      -2.06600254       0.03491853
C        0.51411363       0.13064649      -0.30239857
C        1.70974440       0.56927820      -0.11104629
H       -1.08965241       1.26738260       0.72299697
H       -1.82225138       0.56937873      -0.64616630
H        2.56341428      -0.06298232       0.11039672
8
Frame=10 idx=003184 GeodesicLength=0.5028006301693083 rxn_smarts="[N:1]([C:2](=[O:3])[C:4]#[C:5][H:8])([H:6])[H:7]>>[N:1]([C:4]([C:2]#[O+:3])=[C-:5][H:8])([H:6])[H:7]"
N       -1.09782868       0.53002319       0.04727068
C       -0.24445619      -0.92813524       0.14927389
O       -0.50904057      -2.06440133       0.01043277
C        0.51082597       0.14168101      -0.31397469
C        1.71174248       0.54901311      -0.10563514
H       -1.07611599       1.30232369       0.69464215
H       -1.85870386       0.54764575      -0.61358433
H        2.56357684      -0.07815018       0.13157467
8
Frame=11 idx=003184 GeodesicLength=0.5525540843147133 rxn_smarts="[N:1]([C:2](=[O:3])[C:4]#[C:5][H:8])([H:6])[H:7]>>[N:1]([C:4]([C:2]#[O+:3])=[C-:5][H:8])([H:6])[H:7]"
N       -1.10900604       0.53530033       0.05411439
C       -0.23649680      -0.92437780       0.14735715
O       -0.48247064      -2.06234869      -0.01490237
C        0.50806404       0.15219461      -0.32490479
C        1.71361768       0.52840747      -0.10181506
H       -1.06306009       1.33690612       0.66319477
H       -1.89416619       0.52590568      -0.57754304
H        2.56351804      -0.09198771       0.15449894
8
Frame=12 idx=003184 GeodesicLength=0.6021144570179585 rxn_smarts="[N:1]([C:2](=[O:3])[C:4]#[C:5][H:8])([H:6])[H:7]>>[N:1]([C:4]([C:2]#[O+:3])=[C-:5][H:8])([H:6])[H:7]"
N       -1.11970867       0.54058722       0.06176859
C       -0.22875177      -0.92109330       0.14494724
O       -0.45709116      -2.05974937      -0.04103779
C        0.50587623       0.16237555      -0.33435863
C        1.71533755       0.50762401      -0.09790810
H       -1.05150732       1.37100391       0.62841035
H       -1.92788039       0.50425931      -0.53881872
H        2.56372554      -0.10500732       0.17699706
8
Frame=13 idx=003184 GeodesicLength=0.6515362037812751 rxn_smarts="[N:1]([C:2](=[O:3])[C:4]#[C:5][H:8])([H:6])[H:7]>>[N:1]([C:4]([C:2]#[O+:3])=[C-:5][H:8])([H:6])[H:7]"
N       -1.12964681       0.54591151       0.07010412
C       -0.22113798      -0.91841201       0.14135660
O       -0.43319814      -2.05677813      -0.06809864
C        0.50421564       0.17191689      -0.34371413
C        1.71694164       0.48645410      -0.09547658
H       -1.04029115       1.40416009       0.59015358
H       -1.96047609       0.48299373      -0.49605667
H        2.56359288      -0.11624618       0.20173172
8
Frame=14 idx=003184 GeodesicLength=0.7008081792775221 rxn_smarts="[N:1]([C:2](=[O:3])[C:4]#[C:5][H:8])([H:6])[H:7]>>[N:1]([C:4]([C:2]#[O+:3])=[C-:5][H:8])([H:6])[H:7]"
N       -1.13893643       0.55135724       0.07953040
C       -0.21371661      -0.91621668       0.13711074
O       -0.41065970      -2.05324640      -0.09646176
C        0.50314030       0.18109930      -0.35200517
C        1.71849903       0.46493966      -0.09307255
H       -1.03064320       1.43670767       0.54768814
H       -1.99121995       0.46181018      -0.44962260
H        2.56353657      -0.12645097       0.22683280
8
Frame=15 idx=003184 GeodesicLength=0.7500461296427313 rxn_smarts="[N:1]([C:2](=[O:3])[C:4]#[C:5][H:8])([H:6])[H:7]>>[N:1]([C:4]([C:2]#[O+:3])=[C-:5][H:8])([H:6])[H:7]"
N       -1.14712479       0.55699938       0.08983693
C       -0.20640113      -0.91471295       0.13132324
O       -0.38996109      -2.04938171      -0.12655296
C        0.50268101       0.18949351      -0.36076843
C        1.72010057       0.44274413      -0.09233843
H       -1.02130563       1.46810083       0.50044309
H       -2.02077054       0.44100965      -0.39735719
H        2.56278160      -0.13425284       0.25541374
8
Frame=16 idx=003184 GeodesicLength=0.7989637595490415 rxn_smarts="[N:1]([C:2](=[O:3])[C:4]#[C:5][H:8])([H:6])[H:7]>>[N:1]([C:4]([C:2]#[O+:3])=[C-:5][H:8])([H:6])[H:7]"
N       -1.15438728       0.56297301       0.10123876
C       -0.19934596      -0.91366542       0.12469554
O       -0.37095548      -2.04488790      -0.15813349
C        0.50288173       0.19746639      -0.36875476
C        1.72168426       0.42003808      -0.09144817
H       -1.01397430       1.49789528       0.44838202
H       -2.04780670       0.42079455      -0.34068526
H        2.56190373      -0.14061400       0.28470536
