17
Frame=0 idx=011642 GeodesicLength=0.0 rxn_smarts="[O:1]([C:2]([C@@:3]1([H:11])[C:4]([H:12])([H:13])[C:5]([H:14])([H:15])[O:6][C:7]1([H:16])[H:17])([H:9])[H:10])[H:8]>>[H:16][H:17].[O:1]([C:2]([C@@:3]1([H:11])[C:4]([H:12])([H:13])[C:5]([H:14])([H:15])[O+:6]=[C-:7]1)([H:9])[H:10])[H:8]"
O        2.37863884       0.07443690       0.99374791
C        1.54292588      -0.63689767       0.09697254
C        0.11082317      -0.32140053       0.45520256
C       -0.34992900       1.10989829       0.16447906
C       -1.85585011       0.93968273       0.02879462
O       -2.06035378      -0.46649673      -0.27752295
C       -0.94758940      -1.17833401      -0.19980587
H        3.29259738      -0.07655820       0.75052968
H        1.73597317      -0.33647064      -0.94081171
H        1.70978556      -1.71808136       0.17659172
H       -0.00739237      -0.52952235       1.52705550
H       -0.08015541       1.81996235       0.94403438
H        0.09321689       1.44626007      -0.77623108
H       -2.30205818       1.51821908      -0.78028250
H       -2.39464380       1.14748351       0.95514901
H       -0.25861034      -1.05881659      -1.82872169
H       -0.60737846      -1.73336492      -1.28918111
17
Frame=1 idx=011642 GeodesicLength=0.0573136724942316 rxn_smarts="[O:1]([C:2]([C@@:3]1([H:11])[C:4]([H:12])([H:13])[C:5]([H:14])([H:15])[O:6][C:7]1([H:16])[H:17])([H:9])[H:10])[H:8]>>[H:16][H:17].[O:1]([C:2]([C@@:3]1([H:11])[C:4]([H:12])([H:13])[C:5]([H:14])([H:15])[O+:6]=[C-:7]1)([H:9])[H:10])[H:8]"
O        2.37747413       0.08072891       0.99382188
C        1.54311687      -0.63279518       0.09765357
C        0.11003702      -0.31893264       0.45364597
C       -0.34882797       1.11409075       0.16870522
C       -1.85453037       0.94579517       0.03210017
O       -2.05938203      -0.45651826      -0.28945092
C       -0.94578239      -1.17023884      -0.21290918
H        3.29183885      -0.07097514       0.75256505
H        1.73681019      -0.33386885      -0.94051920
H        1.71158713      -1.71357555       0.17938353
H       -0.01130282      -0.53287881       1.52403074
H       -0.07851846       1.82052092       0.95138029
H        0.09467267       1.45452129      -0.77039662
H       -2.30178919       1.53372917      -0.76953626
H       -2.39171593       1.14372715       0.96177127
H       -0.26437345      -1.09150451      -1.83844226
H       -0.60931427      -1.77182559      -1.29380327
17
Frame=2 idx=011642 GeodesicLength=0.11465795322363419 rxn_smarts="[O:1]([C:2]([C@@:3]1([H:11])[C:4]([H:12])([H:13])[C:5]([H:14])([H:15])[O:6][C:7]1([H:16])[H:17])([H:9])[H:10])[H:8]>>[H:16][H:17].[O:1]([C:2]([C@@:3]1([H:11])[C:4]([H:12])([H:13])[C:5]([H:14])([H:15])[O+:6]=[C-:7]1)([H:9])[H:10])[H:8]"
O        2.37629101       0.08701054       0.99386268
C        1.54331823      -0.62850928       0.09812762
C        0.10925279      -0.31635103       0.45191421
C       -0.34770270       1.11846630       0.17321852
C       -1.85314897       0.95207144       0.03532801
O       -2.05816098      -0.44608862      -0.30203687
C       -0.94374286      -1.16175181      -0.22673917
H        3.29106382      -0.06526781       0.75450241
H        1.73763669      -0.33090697      -0.94038968
H        1.71340125      -1.70889724       0.18177121
H       -0.01535367      -0.53655256       1.52068200
H       -0.07703687       1.82094473       0.95933064
H        0.09632425       1.46331692      -0.76404583
H       -2.30131711       1.54960176      -0.75861605
H       -2.38894664       1.13966751       0.96816471
H       -0.27016267      -1.12576090      -1.84788540
H       -0.61171557      -1.81099296      -1.29718902
17
Frame=3 idx=011642 GeodesicLength=0.17202948550577424 rxn_smarts="[O:1]([C:2]([C@@:3]1([H:11])[C:4]([H:12])([H:13])[C:5]([H:14])([H:15])[O:6][C:7]1([H:16])[H:17])([H:9])[H:10])[H:8]>>[H:16][H:17].[O:1]([C:2]([C@@:3]1([H:11])[C:4]([H:12])([H:13])[C:5]([H:14])([H:15])[O+:6]=[C-:7]1)([H:9])[H:10])[H:8]"
O        2.37508899       0.09327918       0.99387127
C        1.54353715      -0.62402810       0.09837535
C        0.10847332      -0.31365646       0.44998316
C       -0.34655328       1.12302538       0.17803581
C       -1.85170272       0.95851105       0.03846622
O       -2.05666230      -0.43517559      -0.31534343
C       -0.94144568      -1.15284301      -0.24134507
H        3.29027362      -0.05943425       0.75634423
H        1.73846470      -0.32755418      -0.94043561
H        1.71523728      -1.70403672       0.18371760
H       -0.01954595      -0.54056395       1.51697056
H       -0.07572686       1.82120672       0.96792426
H        0.09818580       1.47267794      -0.75713723
H       -2.30063289       1.56585125      -0.74751215
H       -2.38635085       1.13526659       0.97430220
H       -0.27599015      -1.16166201      -1.85699468
H       -0.61465018      -1.85086383      -1.29922249
17
Frame=4 idx=011642 GeodesicLength=0.22942902713412994 rxn_smarts="[O:1]([C:2]([C@@:3]1([H:11])[C:4]([H:12])([H:13])[C:5]([H:14])([H:15])[O:6][C:7]1([H:16])[H:17])([H:9])[H:10])[H:8]>>[H:16][H:17].[O:1]([C:2]([C@@:3]1([H:11])[C:4]([H:12])([H:13])[C:5]([H:14])([H:15])[O+:6]=[C-:7]1)([H:9])[H:10])[H:8]"
O        2.37386752       0.09953160       0.99384906
C        1.54378274      -0.61933740       0.09837441
C        0.10770289      -0.31084963       0.44782371
C       -0.34537973       1.12776805       0.18317684
C       -1.85018673       0.96511348       0.04150006
O       -2.05485164      -0.42374201      -0.32944492
C       -0.93886086      -1.14347628      -0.25678863
H        3.28946937      -0.05347117       0.75809522
H        1.73931008      -0.32377256      -0.94067160
H        1.71710767      -1.69898216       0.18517764
H       -0.02388006      -0.54493777       1.51284983
H       -0.07460892       1.82127355       0.97720695
H        0.10027412       1.48264069      -0.74962207
H       -2.29972490       1.58249460      -0.73621279
H       -2.38394568       1.13047998       0.98014989
H       -0.28187938      -1.19929367      -1.86569485
H       -0.61819649      -1.89143930      -1.29976877
17
Frame=5 idx=011642 GeodesicLength=0.2868597331032438 rxn_smarts="[O:1]([C:2]([C@@:3]1([H:11])[C:4]([H:12])([H:13])[C:5]([H:14])([H:15])[O:6][C:7]1([H:16])[H:17])([H:9])[H:10])[H:8]>>[H:16][H:17].[O:1]([C:2]([C@@:3]1([H:11])[C:4]([H:12])([H:13])[C:5]([H:14])([H:15])[O+:6]=[C-:7]1)([H:9])[H:10])[H:8]"
O        2.37262630       0.10576426       0.99380154
C        1.54406704      -0.61442187       0.09810257
C        0.10694759      -0.30793226       0.44540488
C       -0.34418144       1.13269318       0.18865981
C       -1.84859631       0.97187511       0.04441449
O       -2.05269295      -0.41175129      -0.34441010
C       -0.93595257      -1.13361551      -0.27314048
H        3.28865356      -0.04737421       0.75976504
H        1.74019343      -0.31952143      -0.94111075
H        1.71902777      -1.69372064       0.18610408
H       -0.02835914      -0.54970556       1.50826841
H       -0.07370266       1.82111090       0.98722318
H        0.10260554       1.49323932      -0.74145403
H       -2.29858335       1.59954163      -0.72470940
H       -2.38174657       1.12526053       0.98567373
H       -0.28785567      -1.23873785      -1.87391219
H       -0.62245057      -1.93270430      -1.29868079
17
Frame=6 idx=011642 GeodesicLength=0.34430034955560995 rxn_smarts="[O:1]([C:2]([C@@:3]1([H:11])[C:4]([H:12])([H:13])[C:5]([H:14])([H:15])[O:6][C:7]1([H:16])[H:17])([H:9])[H:10])[H:8]>>[H:16][H:17].[O:1]([C:2]([C@@:3]1([H:11])[C:4]([H:12])([H:13])[C:5]([H:14])([H:15])[O+:6]=[C-:7]1)([H:9])[H:10])[H:8]"
O        2.37136302       0.11197143       0.99373824
C        1.54440613      -0.60926281       0.09753170
C        0.10621638      -0.30490546       0.44268315
C       -0.34295745       1.13779760       0.19450371
C       -1.84692418       0.97879212       0.04718964
O       -2.05014251      -0.39916212      -0.36032168
C       -0.93267557      -1.12321710      -0.29049791
H        3.28782830      -0.04113703       0.76137065
H        1.74114432      -0.31474805      -0.94176987
H        1.72101863      -1.68823576       0.18643835
H       -0.03298697      -0.55490569       1.50315738
H       -0.07303203       1.82067202       0.99802194
H        0.10519929       1.50451458      -0.73257503
H       -2.29719692       1.61700674      -0.71298554
H       -2.37977102       1.11955101       0.99082859
H       -0.29396867      -1.28009126      -1.88153272
H       -0.62752075      -1.97464022      -1.29578060
17
Frame=7 idx=011642 GeodesicLength=0.40174446561691746 rxn_smarts="[O:1]([C:2]([C@@:3]1([H:11])[C:4]([H:12])([H:13])[C:5]([H:14])([H:15])[O:6][C:7]1([H:16])[H:17])([H:9])[H:10])[H:8]>>[H:16][H:17].[O:1]([C:2]([C@@:3]1([H:11])[C:4]([H:12])([H:13])[C:5]([H:14])([H:15])[O+:6]=[C-:7]1)([H:9])[H:10])[H:8]"
O        2.37007626       0.11814433       0.99367244
C        1.54482012      -0.60383699       0.09663014
C        0.10552037      -0.30176953       0.43961049
C       -0.34170678       1.14307639       0.20072873
C       -1.84516331       0.98585749       0.04980559
O       -2.04715313      -0.38593224      -0.37726205
C       -0.92897561      -1.11223365      -0.30897281
H        3.28699657      -0.03475624       0.76293727
H        1.74219914      -0.30938943      -0.94266236
H        1.72310502      -1.68250650       0.18610964
H       -0.03777011      -0.56058512       1.49743713
H       -0.07262180       1.81990488       1.00965492
H        0.10807404       1.51650846      -0.72292540
H       -2.29555654       1.63489785      -0.70102857
H       -2.37803506       1.11329220       0.99556411
H       -0.30028119      -1.32345761      -1.88842548
H       -0.63352800      -2.01721430      -1.29087377
17
Frame=8 idx=011642 GeodesicLength=0.4592081333591944 rxn_smarts="[O:1]([C:2]([C@@:3]1([H:11])[C:4]([H:12])([H:13])[C:5]([H:14])([H:15])[O:6][C:7]1([H:16])[H:17])([H:9])[H:10])[H:8]>>[H:16][H:17].[O:1]([C:2]([C@@:3]1([H:11])[C:4]([H:12])([H:13])[C:5]([H:14])([H:15])[O+:6]=[C-:7]1)([H:9])[H:10])[H:8]"
O        2.36876396       0.12427232       0.99361907
C        1.54533259      -0.59811795       0.09536251
C        0.10487468      -0.29852605       0.43612867
C       -0.34042802       1.14852102       0.20735629
C       -1.84330401       0.99306245       0.05223433
O       -2.04366688      -0.37201154      -0.39533091
C       -0.92478909      -1.10060842      -0.32870238
H        3.28616083      -0.02822453       0.76449540
H        1.74339885      -0.30337076      -0.94380624
H        1.72531762      -1.67650739       0.18503853
H       -0.04270826      -0.56679825       1.49100651
H       -0.07250270       1.81873848       1.02217957
H        0.11124988       1.52926741      -0.71243243
H       -2.29365099       1.65322526      -0.68882054
H       -2.37655682       1.10640536       0.99981536
H       -0.30686135      -1.36893384      -1.89442368
H       -0.64063029      -2.06039359      -1.28372004
17
Frame=9 idx=011642 GeodesicLength=0.5164117777249642 rxn_smarts="[O:1]([C:2]([C@@:3]1([H:11])[C:4]([H:12])([H:13])[C:5]([H:14])([H:15])[O:6][C:7]1([H:16])[H:17])([H:9])[H:10])[H:8]>>[H:16][H:17].[O:1]([C:2]([C@@:3]1([H:11])[C:4]([H:12])([H:13])[C:5]([H:14])([H:15])[O+:6]=[C-:7]1)([H:9])[H:10])[H:8]"
O        2.36742785       0.13032486       0.99355265
C        1.54596514      -0.59208908       0.09366927
C        0.10430065      -0.29516362       0.43218895
C       -0.33913969       1.15409918       0.21442186
C       -1.84133495       1.00039433       0.05442447
O       -2.03959425      -0.35730766      -0.41473728
C       -0.92004281      -1.08828781      -0.34980711
H        3.28533026      -0.02155263       0.76601167
H        1.74476987      -0.29662628      -0.94523800
H        1.72768686      -1.67021962       0.18310526
H       -0.04783553      -0.57360731       1.48376250
H       -0.07275097       1.81705446       1.03565183
H        0.11473726       1.54281386      -0.70095949
H       -2.29146629       1.67202704      -0.67632557
H       -2.37536610       1.09878940       1.00344998
H       -0.31385385      -1.41665860      -1.89907907
H       -0.64883346      -2.10399053      -1.27409190
17
Frame=10 idx=011642 GeodesicLength=0.5734793288924963 rxn_smarts="[O:1]([C:2]([C@@:3]1([H:11])[C:4]([H:12])([H:13])[C:5]([H:14])([H:15])[O:6][C:7]1([H:16])[H:17])([H:9])[H:10])[H:8]>>[H:16][H:17].[O:1]([C:2]([C@@:3]1([H:11])[C:4]([H:12])([H:13])[C:5]([H:14])([H:15])[O+:6]=[C-:7]1)([H:9])[H:10])[H:8]"
O        2.36606232       0.13630030       0.99354208
C        1.54676499      -0.58570529       0.09152146
C        0.10381955      -0.29170493       0.42769813
C       -0.33782745       1.15980056       0.22193040
C       -1.83924543       1.00781846       0.05635306
O       -2.03487463      -0.34180668      -0.43548919
C       -0.91463039      -1.07519371      -0.37248428
H        3.28450841      -0.01472178       0.76760473
H        1.74640825      -0.28903601      -0.94696086
H        1.73026862      -1.66360816       0.18021889
H       -0.05312992      -0.58109118       1.47557317
H       -0.07337702       1.81479035       1.05013059
H        0.11856357       1.55720405      -0.68847685
H       -2.28899861       1.69124601      -0.66355316
H       -2.37447171       1.09035705       1.00642490
H       -0.32133304      -1.46672788      -1.90237973
H       -0.65850751      -2.14792116      -1.26165333
17
Frame=11 idx=011642 GeodesicLength=0.6304360784588667 rxn_smarts="[O:1]([C:2]([C@@:3]1([H:11])[C:4]([H:12])([H:13])[C:5]([H:14])([H:15])[O:6][C:7]1([H:16])[H:17])([H:9])[H:10])[H:8]>>[H:16][H:17].[O:1]([C:2]([C@@:3]1([H:11])[C:4]([H:12])([H:13])[C:5]([H:14])([H:15])[O+:6]=[C-:7]1)([H:9])[H:10])[H:8]"
O        2.36466576       0.14218119       0.99361940
C        1.54777749      -0.57893432       0.08887392
C        0.10346015      -0.28816289       0.42257595
C       -0.33649437       1.16559290       0.22989707
C       -1.83702365       1.01529605       0.05797601
O       -2.02942458      -0.32546694      -0.45768252
C       -0.90844444      -1.06125859      -0.39689033
H        3.28370346      -0.00772755       0.76933596
H        1.74839340      -0.28049640      -0.94899011
H        1.73312222      -1.65664135       0.17626543
H       -0.05858839      -0.58932707       1.46629942
H       -0.07443022       1.81184312       1.06566424
H        0.12274383       1.57246444      -0.67489956
H       -2.28623789       1.71084585      -0.65050639
H       -2.37389139       1.08099691       1.00864086
H       -0.32943289      -1.51921215      -1.90407977
H       -0.66989848      -2.19199321      -1.24609959
17
Frame=12 idx=011642 GeodesicLength=0.687289163040081 rxn_smarts="[O:1]([C:2]([C@@:3]1([H:11])[C:4]([H:12])([H:13])[C:5]([H:14])([H:15])[O:6][C:7]1([H:16])[H:17])([H:9])[H:10])[H:8]>>[H:16][H:17].[O:1]([C:2]([C@@:3]1([H:11])[C:4]([H:12])([H:13])[C:5]([H:14])([H:15])[O+:6]=[C-:7]1)([H:9])[H:10])[H:8]"
O        2.36323791       0.14794126       0.99382381
C        1.54905685      -0.57173659       0.08567595
C        0.10325810      -0.28455327       0.41672671
C       -0.33514507       1.17142944       0.23833509
C       -1.83465506       1.02277501       0.05923455
O       -2.02314297      -0.30824892      -0.48142886
C       -0.90135508      -1.04641200      -0.42321145
H        3.28292748      -0.00057202       0.77128041
H        1.75082102      -0.27087953      -0.95133889
H        1.73631691      -1.64928005       0.17110542
H       -0.06419908      -0.59839728       1.45578106
H       -0.07596933       1.80807963       1.08230225
H        0.12729152       1.58861774      -0.66013199
H       -2.28318011       1.73077217      -0.63718879
H       -2.37364228       1.07057360       1.00996954
H       -0.33832738      -1.57415778      -1.90387044
H       -0.68329342      -2.23595142      -1.22706437
17
Frame=13 idx=011642 GeodesicLength=0.743961564625624 rxn_smarts="[O:1]([C:2]([C@@:3]1([H:11])[C:4]([H:12])([H:13])[C:5]([H:14])([H:15])[O:6][C:7]1([H:16])[H:17])([H:9])[H:10])[H:8]>>[H:16][H:17].[O:1]([C:2]([C@@:3]1([H:11])[C:4]([H:12])([H:13])[C:5]([H:14])([H:15])[O+:6]=[C-:7]1)([H:9])[H:10])[H:8]"
O        2.36177218       0.15354748       0.99420970
C        1.55068102      -0.56406227       0.08185893
C        0.10326455      -0.28089866       0.41001513
C       -0.33378574       1.17725526       0.24725943
C       -1.83212072       1.03018883       0.06006057
O       -2.01590389      -0.29010420      -0.50688102
C       -0.89318568      -1.03055321      -0.45172066
H        3.28219084       0.00675995       0.77353940
H        1.75382496      -0.26002085      -0.95402860
H        1.73995690      -1.64147981       0.16456125
H       -0.06996513      -0.60844243       1.44378663
H       -0.07807255       1.80333289       1.10011025
H        0.13222047       1.60570438      -0.64405652
H       -2.27982214       1.75096941      -0.62359656
H       -2.37374047       1.05890968       1.01026080
H       -0.34825067      -1.63166207      -1.90130696
H       -0.69906393      -2.27944437      -1.20407176
17
Frame=14 idx=011642 GeodesicLength=0.8005618548481572 rxn_smarts="[O:1]([C:2]([C@@:3]1([H:11])[C:4]([H:12])([H:13])[C:5]([H:14])([H:15])[O:6][C:7]1([H:16])[H:17])([H:9])[H:10])[H:8]>>[H:16][H:17].[O:1]([C:2]([C@@:3]1([H:11])[C:4]([H:12])([H:13])[C:5]([H:14])([H:15])[O+:6]=[C-:7]1)([H:9])[H:10])[H:8]"
O        2.36027325       0.15896009       0.99484049
C        1.55272459      -0.55587478       0.07738402
C        0.10353112      -0.27723161       0.40233671
C       -0.33242365       1.18297972       0.25664320
C       -1.82940714       1.03742846       0.06038138
O       -2.00760172      -0.27105631      -0.53407992
C       -0.88377222      -1.01364131      -0.48257969
H        3.28151257       0.01424206       0.77624302
H        1.75753649      -0.24778276      -0.95704286
H        1.74413384      -1.63319467       0.15649147
H       -0.07583923      -0.61952419       1.43015009
H       -0.08079405       1.79743780       1.11905973
H        0.13751556       1.62367508      -0.62661876
H       -2.27618673       1.77128076      -0.60976752
H       -2.37417977       1.04585491       1.00935727
H       -0.35948311      -1.69155261      -1.89601931
H       -0.71753979      -2.32200062      -1.17677932
17
Frame=15 idx=011642 GeodesicLength=0.8570983223988339 rxn_smarts="[O:1]([C:2]([C@@:3]1([H:11])[C:4]([H:12])([H:13])[C:5]([H:14])([H:15])[O:6][C:7]1([H:16])[H:17])([H:9])[H:10])[H:8]>>[H:16][H:17].[O:1]([C:2]([C@@:3]1([H:11])[C:4]([H:12])([H:13])[C:5]([H:14])([H:15])[O+:6]=[C-:7]1)([H:9])[H:10])[H:8]"
O        2.35874151       0.16413540       0.99579607
C        1.55528810      -0.54713438       0.07220065
C        0.10412841      -0.27359958       0.39355319
C       -0.33106914       1.18849283       0.26645079
C       -1.82649519       1.04435639       0.06010404
O       -1.99810026      -0.25114660      -0.56310431
C       -0.87290233      -0.99563312      -0.51601537
H        3.28091225       0.02186448       0.77954422
H        1.76212608      -0.23400138      -0.96037476
H        1.74897845      -1.62438198       0.14672547
H       -0.08178028      -0.63175779       1.41465452
H       -0.08420951       1.79019801       1.13912718
H        0.14315647       1.64247957      -0.60775898
H       -2.27230016       1.79152763      -0.59574852
H       -2.37494997       1.03120505       1.00707931
H       -0.37238663      -1.75360460      -1.88749443
H       -0.73913780      -2.36299995      -1.14473906
17
Frame=16 idx=011642 GeodesicLength=0.9135789215892132 rxn_smarts="[O:1]([C:2]([C@@:3]1([H:11])[C:4]([H:12])([H:13])[C:5]([H:14])([H:15])[O:6][C:7]1([H:16])[H:17])([H:9])[H:10])[H:8]>>[H:16][H:17].[O:1]([C:2]([C@@:3]1([H:11])[C:4]([H:12])([H:13])[C:5]([H:14])([H:15])[O+:6]=[C-:7]1)([H:9])[H:10])[H:8]"
O        2.35718350       0.16902579       0.99716439
C        1.55848372      -0.53781776       0.06627678
C        0.10513632      -0.27007163       0.38354301
C       -0.32973676       1.19365171       0.27661231
C       -1.82336811       1.05078811       0.05912629
O       -1.98725837      -0.23047845      -0.59398787
C       -0.86035327      -0.97654424      -0.55218775
H        3.28041793       0.02960641       0.78361070
H        1.76777967      -0.21853531      -0.96399679
H        1.75463780      -1.61501305       0.13511216
H       -0.08771976      -0.64523172       1.39712309
H       -0.08839174       1.78142142       1.16021957
H        0.14909931       1.66200172      -0.58746837
H       -2.26821053       1.81145064      -0.58162042
H       -2.37603103       1.01474418       1.00323957
H       -0.38740432      -1.81736820      -1.87517172
H       -0.76426436      -2.40162960      -1.10759495
