12
Frame=0 idx=008979 GeodesicLength=0.0 rxn_smarts="[N:1]([c:2]1[c:3]([H:10])[n:4][c:5]([H:11])[n:6][c:7]1[H:12])([H:8])[H:9]>>[N:1]([N:4]1[C:3]([H:10])=[C:2]=[C:7]([H:12])[N:6]=[C:5]1[H:11])([H:8])[H:9]"
N       -1.56716280       0.26861809       0.87140344
C       -0.26976252      -0.05145540      -0.98556331
C        0.04878341       1.22102873      -1.24791126
N        0.40914515       0.75539186       0.04238277
C        1.31571328      -0.11041922       0.55849627
N        1.15665028      -1.34984312       0.13699650
C        0.18698421      -1.34697949      -0.79932704
H       -1.36274389       1.03797532       1.50763121
H       -1.50119923      -0.56607084       1.45736117
H       -0.31817264       2.18937751      -1.53616381
H        1.98934044       0.18154990       1.34818334
H       -0.08757574      -2.22917336      -1.35348931
12
Frame=1 idx=008979 GeodesicLength=0.11603957839386202 rxn_smarts="[N:1]([c:2]1[c:3]([H:10])[n:4][c:5]([H:11])[n:6][c:7]1[H:12])([H:8])[H:9]>>[N:1]([N:4]1[C:3]([H:10])=[C:2]=[C:7]([H:12])[N:6]=[C:5]1[H:11])([H:8])[H:9]"
N       -1.56509799       0.28794211       0.86077682
C       -0.29117098      -0.06543055      -0.98587775
C        0.05128539       1.20742166      -1.22886902
N        0.41840368       0.75750396       0.05901575
C        1.32576629      -0.11516650       0.55770292
N        1.19606399      -1.34427627       0.09785231
C        0.19373520      -1.35169005      -0.80318639
H       -1.38891186       1.06655056       1.49296087
H       -1.52531555      -0.54385626       1.45160707
H       -0.33775044       2.17291708      -1.50039281
H        2.00394371       0.16794146       1.34704281
H       -0.08095142      -2.23985720      -1.34863256
12
Frame=2 idx=008979 GeodesicLength=0.23071002918548886 rxn_smarts="[N:1]([c:2]1[c:3]([H:10])[n:4][c:5]([H:11])[n:6][c:7]1[H:12])([H:8])[H:9]>>[N:1]([N:4]1[C:3]([H:10])=[C:2]=[C:7]([H:12])[N:6]=[C:5]1[H:11])([H:8])[H:9]"
N       -1.56207549       0.30607601       0.85092449
C       -0.31284997      -0.07930741      -0.98665586
C        0.05277411       1.19368672      -1.20927661
N        0.42790427       0.76044916       0.07610803
C        1.33606624      -0.11951536       0.55618988
N        1.23051364      -1.33741627       0.06156505
C        0.20089155      -1.35548438      -0.80785318
H       -1.41473969       1.09390437       1.47781859
H       -1.54856476      -0.52276569       1.44550715
H       -0.35550132       2.15629164      -1.46567874
H        2.01925261       0.15432761       1.34480655
H       -0.07367119      -2.25024639      -1.34345535
12
Frame=3 idx=008979 GeodesicLength=0.3443659322909654 rxn_smarts="[N:1]([c:2]1[c:3]([H:10])[n:4][c:5]([H:11])[n:6][c:7]1[H:12])([H:8])[H:9]>>[N:1]([N:4]1[C:3]([H:10])=[C:2]=[C:7]([H:12])[N:6]=[C:5]1[H:11])([H:8])[H:9]"
N       -1.55799734       0.32302970       0.84185122
C       -0.33477693      -0.09306545      -0.98800414
C        0.05339696       1.17982191      -1.18921730
N        0.43776443       0.76429264       0.09356651
C        1.34673719      -0.12327834       0.55388520
N        1.26039845      -1.32973640       0.02825026
C        0.20834709      -1.35833451      -0.81347270
H       -1.44015633       1.12000594       1.46216944
H       -1.57082712      -0.50281720       1.43905715
H       -0.37170083       2.13959476      -1.43201021
H        2.03490130       0.14080185       1.34185379
H       -0.06608688      -2.26031490      -1.33792920
12
Frame=4 idx=008979 GeodesicLength=0.457215835595444 rxn_smarts="[N:1]([c:2]1[c:3]([H:10])[n:4][c:5]([H:11])[n:6][c:7]1[H:12])([H:8])[H:9]>>[N:1]([N:4]1[C:3]([H:10])=[C:2]=[C:7]([H:12])[N:6]=[C:5]1[H:11])([H:8])[H:9]"
N       -1.55277711       0.33877687       0.83349681
C       -0.35687845      -0.10664010      -0.99004360
C        0.05329785       1.16585263      -1.16874091
N        0.44810988       0.76911516       0.11128022
C        1.35784555      -0.12627189       0.55073124
N        1.28643299      -1.32142945      -0.00246143
C        0.21608131      -1.36012283      -0.82019413
H       -1.46508723       1.14468268       1.44600136
H       -1.59207062      -0.48411276       1.43207496
H       -0.38651266       2.12290799      -1.39933872
H        2.05043181       0.12734528       1.33862044
H       -0.05887331      -2.27010358      -1.33142623
12
Frame=5 idx=008979 GeodesicLength=0.5695145349958863 rxn_smarts="[N:1]([c:2]1[c:3]([H:10])[n:4][c:5]([H:11])[n:6][c:7]1[H:12])([H:8])[H:9]>>[N:1]([N:4]1[C:3]([H:10])=[C:2]=[C:7]([H:12])[N:6]=[C:5]1[H:11])([H:8])[H:9]"
N       -1.54643876       0.35341159       0.82589381
C       -0.37920769      -0.12006625      -0.99279144
C        0.05255278       1.15170512      -1.14784694
N        0.45901602       0.77494070       0.12922498
C        1.36933419      -0.12847608       0.54683892
N        1.30926539      -1.31266068      -0.03097238
C        0.22388741      -1.36092198      -0.82791507
H       -1.48955984       1.16802815       1.42923940
H       -1.61237413      -0.46653391       1.42463641
H       -0.40010137       2.10621947      -1.36764528
H        2.06569486       0.11389414       1.33532520
H       -0.05206886      -2.27954026      -1.32398761
12
Frame=6 idx=008979 GeodesicLength=0.681350501316821 rxn_smarts="[N:1]([c:2]1[c:3]([H:10])[n:4][c:5]([H:11])[n:6][c:7]1[H:12])([H:8])[H:9]>>[N:1]([N:4]1[C:3]([H:10])=[C:2]=[C:7]([H:12])[N:6]=[C:5]1[H:11])([H:8])[H:9]"
N       -1.53890958       0.36690712       0.81896372
C       -0.40170342      -0.13324837      -0.99636929
C        0.05125882       1.13742882      -1.12653188
N        0.47058864       0.78185052       0.14732399
C        1.38117616      -0.12979067       0.54223011
N        1.32943784      -1.30341646      -0.05768972
C        0.23174017      -1.36060124      -0.83671588
H       -1.51350332       1.18983221       1.41187480
H       -1.63178517      -0.45019183       1.41649277
H       -0.41256689       2.08960604      -1.33686078
H        2.08044649       0.10034868       1.33218371
H       -0.04617975      -2.28872483      -1.31490154
12
Frame=7 idx=008979 GeodesicLength=0.7928591307731417 rxn_smarts="[N:1]([c:2]1[c:3]([H:10])[n:4][c:5]([H:11])[n:6][c:7]1[H:12])([H:8])[H:9]>>[N:1]([N:4]1[C:3]([H:10])=[C:2]=[C:7]([H:12])[N:6]=[C:5]1[H:11])([H:8])[H:9]"
N       -1.53025925       0.37924918       0.81273178
C       -0.42439034      -0.14621589      -1.00077595
C        0.04951631       1.12293256      -1.10470999
N        0.48288715       0.78984134       0.16561151
C        1.39328113      -0.13027933       0.53705990
N        1.34707411      -1.29388253      -0.08259222
C        0.23947151      -1.35926175      -0.84648409
H       -1.53713995       1.21014530       1.39371264
H       -1.65041230      -0.43503303       1.40771594
H       -0.42392455       2.07303341      -1.30688167
H        2.09502136       0.08683053       1.32892036
H       -0.04112516      -2.29735979      -1.30430821
12
Frame=8 idx=008979 GeodesicLength=0.9040761161668596 rxn_smarts="[N:1]([c:2]1[c:3]([H:10])[n:4][c:5]([H:11])[n:6][c:7]1[H:12])([H:8])[H:9]>>[N:1]([N:4]1[C:3]([H:10])=[C:2]=[C:7]([H:12])[N:6]=[C:5]1[H:11])([H:8])[H:9]"
N       -1.52035398       0.39052411       0.80736752
C       -0.44735102      -0.15899507      -1.00602966
C        0.04729934       1.10814109      -1.08249053
N        0.49601941       0.79902602       0.18389866
C        1.40562957      -0.12985639       0.53128892
N        1.36240055      -1.28416195      -0.10583355
C        0.24688163      -1.35698660      -0.85706195
H       -1.56024652       1.22898293       1.37485001
H       -1.66817451      -0.42097803       1.39844166
H       -0.43431433       2.05646228      -1.27787172
H        2.10889684       0.07318793       1.32594281
H       -0.03668697      -2.30534633      -1.29250216
12
Frame=9 idx=008979 GeodesicLength=1.0150493966981615 rxn_smarts="[N:1]([c:2]1[c:3]([H:10])[n:4][c:5]([H:11])[n:6][c:7]1[H:12])([H:8])[H:9]>>[N:1]([N:4]1[C:3]([H:10])=[C:2]=[C:7]([H:12])[N:6]=[C:5]1[H:11])([H:8])[H:9]"
N       -1.50903807       0.40065361       0.80272049
C       -0.47052929      -0.17139202      -1.01224860
C        0.04465949       1.09310379      -1.05982023
N        0.51012173       0.80951039       0.20202885
C        1.41823593      -0.12837004       0.52488725
N        1.37553865      -1.27413962      -0.12745976
C        0.25394098      -1.35349580      -0.86853308
H       -1.58253936       1.24587178       1.35540170
H       -1.68513331      -0.40824276       1.38804057
H       -0.44380631       2.03989258      -1.24972208
H        2.12195852       0.05937352       1.32330212
H       -0.03340896      -2.31276545      -1.27859722
12
Frame=10 idx=008979 GeodesicLength=1.1258164400077344 rxn_smarts="[N:1]([c:2]1[c:3]([H:10])[n:4][c:5]([H:11])[n:6][c:7]1[H:12])([H:8])[H:9]>>[N:1]([N:4]1[C:3]([H:10])=[C:2]=[C:7]([H:12])[N:6]=[C:5]1[H:11])([H:8])[H:9]"
N       -1.49635983       0.40986174       0.79929406
C       -0.49421778      -0.18377464      -1.01913444
C        0.04150958       1.07741507      -1.03680304
N        0.52521092       0.82129557       0.21988731
C        1.43095460      -0.12597278       0.51802684
N        1.38619125      -1.26435315      -0.14694105
C        0.26013977      -1.34944952      -0.88018238
H       -1.60414770       1.26147598       1.33515360
H       -1.70110025      -0.39625305       1.37763236
H       -0.45249464       2.02301226      -1.22276539
H        2.13412640       0.04555029       1.32101779
H       -0.02981232      -2.31880778      -1.26518566
12
Frame=11 idx=008979 GeodesicLength=1.2364556007589862 rxn_smarts="[N:1]([c:2]1[c:3]([H:10])[n:4][c:5]([H:11])[n:6][c:7]1[H:12])([H:8])[H:9]>>[N:1]([N:4]1[C:3]([H:10])=[C:2]=[C:7]([H:12])[N:6]=[C:5]1[H:11])([H:8])[H:9]"
N       -1.48211763       0.41810643       0.79694024
C       -0.51834167      -0.19590954      -1.02677546
C        0.03790771       1.06117637      -1.01339481
N        0.54144761       0.83456056       0.23722903
C        1.44381303      -0.12241166       0.51067298
N        1.39435124      -1.25473364      -0.16413630
C        0.26545609      -1.34450672      -0.89204796
H       -1.62459879       1.27519930       1.31448886
H       -1.71627102      -0.38528119       1.36633067
H       -0.46042943       2.00584637      -1.19690753
H        2.14528984       0.03182552       1.31910612
H       -0.02650698      -2.32387180      -1.25150585
12
Frame=12 idx=008979 GeodesicLength=1.3469990133242624 rxn_smarts="[N:1]([c:2]1[c:3]([H:10])[n:4][c:5]([H:11])[n:6][c:7]1[H:12])([H:8])[H:9]>>[N:1]([N:4]1[C:3]([H:10])=[C:2]=[C:7]([H:12])[N:6]=[C:5]1[H:11])([H:8])[H:9]"
N       -1.46631287       0.42547294       0.79594561
C       -0.54309203      -0.20801374      -1.03493369
C        0.03379503       1.04409603      -0.98963732
N        0.55886726       0.84933725       0.25384569
C        1.45674764      -0.11774425       0.50293182
N        1.39970790      -1.24566064      -0.17843381
C        0.26959712      -1.33908616      -0.90360791
H       -1.64387040       1.28736865       1.29313792
H       -1.73022694      -0.37491476       1.35494956
H       -0.46770889       1.98811467      -1.17235181
H        2.15520926       0.01841206       1.31769553
H       -0.02271308      -2.32738206      -1.23954160
12
Frame=13 idx=008979 GeodesicLength=1.4574887430272203 rxn_smarts="[N:1]([c:2]1[c:3]([H:10])[n:4][c:5]([H:11])[n:6][c:7]1[H:12])([H:8])[H:9]>>[N:1]([N:4]1[C:3]([H:10])=[C:2]=[C:7]([H:12])[N:6]=[C:5]1[H:11])([H:8])[H:9]"
N       -1.44899490       0.43177923       0.79614795
C       -0.56823137      -0.21979550      -1.04379152
C        0.02940464       1.02642775      -0.96537194
N        0.57752542       0.86571397       0.26969286
C        1.46967811      -0.11197854       0.49498012
N        1.40219120      -1.23731015      -0.18957244
C        0.27269248      -1.33301160      -0.91506219
H       -1.66204456       1.29748018       1.27124974
H       -1.74337744      -0.36554687       1.34273347
H       -0.47417204       1.97010341      -1.14883762
H        2.16458748       0.00581016       1.31615780
H       -0.01925902      -2.32967204      -1.22832622
12
Frame=14 idx=008979 GeodesicLength=1.5680028603646239 rxn_smarts="[N:1]([c:2]1[c:3]([H:10])[n:4][c:5]([H:11])[n:6][c:7]1[H:12])([H:8])[H:9]>>[N:1]([N:4]1[C:3]([H:10])=[C:2]=[C:7]([H:12])[N:6]=[C:5]1[H:11])([H:8])[H:9]"
N       -1.43010248       0.43703309       0.79767209
C       -0.59382405      -0.23125654      -1.05326342
C        0.02470985       1.00807014      -0.94064070
N        0.59748444       0.88374185       0.28445364
C        1.48268907      -0.10506306       0.48675727
N        1.40148715      -1.22990597      -0.19698181
C        0.27467082      -1.32639768      -0.92623444
H       -1.67892531       1.30550019       1.24877745
H       -1.75534407      -0.35700857       1.32996832
H       -0.47995061       1.95166310      -1.12645148
H        2.17307920      -0.00581478       1.31475989
H       -0.01597401      -2.33056178      -1.21881681
12
Frame=15 idx=008979 GeodesicLength=1.6787404743612522 rxn_smarts="[N:1]([c:2]1[c:3]([H:10])[n:4][c:5]([H:11])[n:6][c:7]1[H:12])([H:8])[H:9]>>[N:1]([N:4]1[C:3]([H:10])=[C:2]=[C:7]([H:12])[N:6]=[C:5]1[H:11])([H:8])[H:9]"
N       -1.40980364       0.44100743       0.80017911
C       -0.61962906      -0.24214674      -1.06344326
C        0.01998109       0.98913483      -0.91516662
N        0.61867773       0.90333838       0.29813449
C        1.49551598      -0.09707771       0.47855284
N        1.39698868      -1.22373442      -0.19979769
C        0.27551865      -1.31910140      -0.93716587
H       -1.69433910       1.31084991       1.22585376
H       -1.76642109      -0.34962835       1.31578742
H       -0.48473762       1.93285478      -1.10481754
H        2.18177911      -0.01547513       1.31248191
H       -0.01353072      -2.33002157      -1.21059855
12
Frame=16 idx=008979 GeodesicLength=1.7896965028628042 rxn_smarts="[N:1]([c:2]1[c:3]([H:10])[n:4][c:5]([H:11])[n:6][c:7]1[H:12])([H:8])[H:9]>>[N:1]([N:4]1[C:3]([H:10])=[C:2]=[C:7]([H:12])[N:6]=[C:5]1[H:11])([H:8])[H:9]"
N       -1.38831953       0.44374338       0.80365372
C       -0.64561343      -0.25239570      -1.07441659
C        0.01521098       0.96963634      -0.88911115
N        0.64101403       0.92449678       0.31040866
C        1.50819019      -0.08808735       0.47036188
N        1.38796087      -1.21928426      -0.19685257
C        0.27532709      -1.31127213      -0.94782761
H       -1.70800863       1.31356107       1.20281923
H       -1.77620237      -0.34328589       1.30055957
H       -0.48869098       1.91369955      -1.08412778
H        2.19073614      -0.02278385       1.30941058
H       -0.01160437      -2.32802796      -1.20487794
