13
Frame=0 idx=000288 GeodesicLength=0.0 rxn_smarts="[C:1]([C:2]1([C:3]([H:9])([H:10])[H:11])[C:4]([H:12])([H:13])[O:5]1)([H:6])([H:7])[H:8]>>[C:1]([C:2][C:4]([O:5][C:3]([H:9])([H:10])[H:11])([H:12])[H:13])([H:6])([H:7])[H:8]"
C       -1.45622915      -0.70361487       0.22300981
C       -0.20371670       0.02366549       0.57036805
C        1.58030004      -0.52329984      -0.22894514
C       -0.12266512       1.40547437       0.11811388
O        0.46174066       0.63307464      -0.91480188
H       -2.09397572      -0.65836965       1.11291054
H       -2.00732918      -0.27025341      -0.62087678
H       -1.27004387      -1.76046843       0.02002252
H        1.33038440      -1.53952926       0.06295216
H        2.19416115      -0.03940630       0.52018193
H        2.07257303      -0.54016211      -1.20426241
H       -1.03300417       1.86185327      -0.26786273
H        0.54780461       2.11103610       0.60919007
13
Frame=1 idx=000288 GeodesicLength=0.04056814307473335 rxn_smarts="[C:1]([C:2]1([C:3]([H:9])([H:10])[H:11])[C:4]([H:12])([H:13])[O:5]1)([H:6])([H:7])[H:8]>>[C:1]([C:2][C:4]([O:5][C:3]([H:9])([H:10])[H:11])([H:12])[H:13])([H:6])([H:7])[H:8]"
C       -1.46384664      -0.70523276       0.21069356
C       -0.20809216       0.01567257       0.55769882
C        1.58108710      -0.51720683      -0.22379930
C       -0.12215173       1.40318348       0.12347494
O        0.45544419       0.63368034      -0.91639483
H       -2.09047355      -0.67400526       1.10918598
H       -2.02281066      -0.25495767      -0.61881137
H       -1.28257306      -1.75875973      -0.01255891
H        1.36153949      -1.52229760       0.12666115
H        2.21759754      -0.00128389       0.48482698
H        2.04896964      -0.58494257      -1.20877213
H       -1.03103989       1.87009971      -0.25352701
H        0.55634972       2.09605023       0.62132210
13
Frame=2 idx=000288 GeodesicLength=0.08095486803025968 rxn_smarts="[C:1]([C:2]1([C:3]([H:9])([H:10])[H:11])[C:4]([H:12])([H:13])[O:5]1)([H:6])([H:7])[H:8]>>[C:1]([C:2][C:4]([O:5][C:3]([H:9])([H:10])[H:11])([H:12])[H:13])([H:6])([H:7])[H:8]"
C       -1.47121620      -0.70695309       0.19813400
C       -0.21238283       0.00776490       0.54502672
C        1.58172315      -0.51129873      -0.21853022
C       -0.12147837       1.40082127       0.12911708
O        0.44940872       0.63459341      -0.91787298
H       -2.08682298      -0.69019078       1.10474831
H       -2.03773623      -0.23998866      -0.61666734
H       -1.29468705      -1.75671815      -0.04536217
H        1.39282161      -1.50089943       0.19028152
H        2.24041377       0.03535864       0.44638416
H        2.02394051      -0.63145424      -1.21024175
H       -1.02886403       1.87811921      -0.23872400
H        0.56487992       2.08084564       0.63370665
13
Frame=3 idx=000288 GeodesicLength=0.12111695702027842 rxn_smarts="[C:1]([C:2]1([C:3]([H:9])([H:10])[H:11])[C:4]([H:12])([H:13])[O:5]1)([H:6])([H:7])[H:8]>>[C:1]([C:2][C:4]([O:5][C:3]([H:9])([H:10])[H:11])([H:12])[H:13])([H:6])([H:7])[H:8]"
C       -1.47831607      -0.70873101       0.18540368
C       -0.21656690      -0.00009748       0.53230845
C        1.58227307      -0.50554527      -0.21313541
C       -0.12067997       1.39832243       0.13498090
O        0.44357245       0.63570909      -0.91926755
H       -2.08295014      -0.70678255       1.09966600
H       -2.05211440      -0.22531501      -0.61433695
H       -1.30644089      -1.75432213      -0.07825943
H        1.42407671      -1.47537963       0.25315902
H        2.26239649       0.07013317       0.40508808
H        1.99791016      -0.67920753      -1.20831873
H       -1.02651068       1.88586442      -0.22348577
H        0.57335017       2.06535149       0.64619771
13
Frame=4 idx=000288 GeodesicLength=0.160993003870344 rxn_smarts="[C:1]([C:2]1([C:3]([H:9])([H:10])[H:11])[C:4]([H:12])([H:13])[O:5]1)([H:6])([H:7])[H:8]>>[C:1]([C:2][C:4]([O:5][C:3]([H:9])([H:10])[H:11])([H:12])[H:13])([H:6])([H:7])[H:8]"
C       -1.48524194      -0.71057264       0.17258225
C       -0.22060934      -0.00796335       0.51952883
C        1.58284190      -0.49982605      -0.20766138
C       -0.11970140       1.39559861       0.14103718
O        0.43792242       0.63696535      -0.92062788
H       -2.07900886      -0.72355493       1.09399914
H       -2.06600000      -0.21109048      -0.61187161
H       -1.31807296      -1.75162168      -0.11096032
H        1.45520851      -1.44580429       0.31462402
H        2.28339001       0.10276548       0.36127048
H        1.97131736      -0.72758493      -1.20280321
H       -1.02395447       1.89319846      -0.20781972
H        0.58190877       2.04949047       0.65870223
13
Frame=5 idx=000288 GeodesicLength=0.2005670426406419 rxn_smarts="[C:1]([C:2]1([C:3]([H:9])([H:10])[H:11])[C:4]([H:12])([H:13])[O:5]1)([H:6])([H:7])[H:8]>>[C:1]([C:2][C:4]([O:5][C:3]([H:9])([H:10])[H:11])([H:12])[H:13])([H:6])([H:7])[H:8]"
C       -1.49204028      -0.71238076       0.15975539
C       -0.22448088      -0.01586693       0.50666720
C        1.58358444      -0.49411427      -0.20216558
C       -0.11862328       1.39255041       0.14723801
O        0.43239144       0.63828378      -0.92200341
H       -2.07504980      -0.74025991       1.08785402
H       -2.07950195      -0.19725633      -0.60924354
H       -1.32966702      -1.74853021      -0.14328085
H        1.48620930      -1.41243699       0.37410410
H        2.30326278       0.13294087       0.31537760
H        1.94476902      -0.77607861      -1.19364672
H       -1.02135745       1.90002436      -0.19175673
H        0.59050367       2.03312460       0.67110051
13
Frame=6 idx=000288 GeodesicLength=0.23980801614969816 rxn_smarts="[C:1]([C:2]1([C:3]([H:9])([H:10])[H:11])[C:4]([H:12])([H:13])[O:5]1)([H:6])([H:7])[H:8]>>[C:1]([C:2][C:4]([O:5][C:3]([H:9])([H:10])[H:11])([H:12])[H:13])([H:6])([H:7])[H:8]"
C       -1.49838207      -0.71422668       0.14698956
C       -0.22815341      -0.02379769       0.49359803
C        1.58411834      -0.48850550      -0.19661654
C       -0.11743176       1.38937462       0.15339158
O        0.42685749       0.63956849      -0.92342502
H       -2.07025688      -0.75729526       1.08138318
H       -2.09238983      -0.18359525      -0.60591625
H       -1.34105412      -1.74519692      -0.17552197
H        1.51615290      -1.37572073       0.43109472
H        2.32141206       0.16033560       0.26796617
H        1.91865038      -0.82423005      -1.18056000
H       -1.01845003       1.90664646      -0.17546776
H        0.59892693       2.01664290       0.68308431
13
Frame=7 idx=000288 GeodesicLength=0.27855275339740987 rxn_smarts="[C:1]([C:2]1([C:3]([H:9])([H:10])[H:11])[C:4]([H:12])([H:13])[O:5]1)([H:6])([H:7])[H:8]>>[C:1]([C:2][C:4]([O:5][C:3]([H:9])([H:10])[H:11])([H:12])[H:13])([H:6])([H:7])[H:8]"
C       -1.50480242      -0.71608338       0.13437795
C       -0.23165732      -0.03181258       0.48049526
C        1.58494784      -0.48283002      -0.19118809
C       -0.11607886       1.38585517       0.15965545
O        0.42151656       0.64089958      -0.92498261
H       -2.06583500      -0.77401208       1.07466194
H       -2.10497645      -0.17053561      -0.60254095
H       -1.35279617      -1.74164975      -0.20700707
H        1.54575720      -1.33582183       0.48532214
H        2.33830482       0.18495835       0.21923892
H        1.89352606      -0.87140615      -1.16403174
H       -1.01545772       1.91269188      -0.15884550
H        0.60755147       1.99974641       0.69484429
13
Frame=8 idx=000288 GeodesicLength=0.3171192073434311 rxn_smarts="[C:1]([C:2]1([C:3]([H:9])([H:10])[H:11])[C:4]([H:12])([H:13])[O:5]1)([H:6])([H:7])[H:8]>>[C:1]([C:2][C:4]([O:5][C:3]([H:9])([H:10])[H:11])([H:12])[H:13])([H:6])([H:7])[H:8]"
C       -1.51103051      -0.71796079       0.12184224
C       -0.23490374      -0.03987445       0.46725797
C        1.58576050      -0.47705616      -0.18583721
C       -0.11448494       1.38203308       0.16596858
O        0.41619355       0.64220819      -0.92657184
H       -2.06111487      -0.79072784       1.06760411
H       -2.11715349      -0.15790821      -0.59880360
H       -1.36472493      -1.73782724      -0.23817698
H        1.57465161      -1.29279118       0.53671626
H        2.35343926       0.20694299       0.16948541
H        1.86911343      -0.91779641      -1.14385420
H       -1.01215080       1.91819544      -0.14187354
H        0.61640494       1.98256258       0.70624279
13
Frame=9 idx=000288 GeodesicLength=0.3552740739267025 rxn_smarts="[C:1]([C:2]1([C:3]([H:9])([H:10])[H:11])[C:4]([H:12])([H:13])[O:5]1)([H:6])([H:7])[H:8]>>[C:1]([C:2][C:4]([O:5][C:3]([H:9])([H:10])[H:11])([H:12])[H:13])([H:6])([H:7])[H:8]"
C       -1.51717872      -0.71980366       0.10952838
C       -0.23794404      -0.04798778       0.45393287
C        1.58673975      -0.47134603      -0.18065993
C       -0.11281969       1.37799223       0.17225012
O        0.41093472       0.64351254      -0.92836503
H       -2.05626522      -0.80732346       1.06050137
H       -2.12908094      -0.14560081      -0.59466217
H       -1.37689923      -1.73376303      -0.26883370
H        1.60274268      -1.24733560       0.58492655
H        2.36695653       0.22593393       0.11932908
H        1.84634338      -0.96281776      -1.12043727
H       -1.00879769       1.92332897      -0.12470900
H        0.62526848       1.96521046       0.71719872
13
Frame=10 idx=000288 GeodesicLength=0.39305040899680455 rxn_smarts="[C:1]([C:2]1([C:3]([H:9])([H:10])[H:11])[C:4]([H:12])([H:13])[O:5]1)([H:6])([H:7])[H:8]>>[C:1]([C:2][C:4]([O:5][C:3]([H:9])([H:10])[H:11])([H:12])[H:13])([H:6])([H:7])[H:8]"
C       -1.52318586      -0.72160018       0.09749486
C       -0.24074955      -0.05611931       0.44046103
C        1.58771254      -0.46567817      -0.17566474
C       -0.11103194       1.37369864       0.17839970
O        0.40570537       0.64474087      -0.93030777
H       -2.05105642      -0.82384540       1.05336223
H       -2.14070643      -0.13361861      -0.58989894
H       -1.38937308      -1.72939240      -0.29895138
H        1.62956316      -1.19986639       0.62967639
H        2.37871372       0.24199592       0.06936028
H        1.82551200      -1.00604520      -1.09400374
H       -1.00526503       1.92799332      -0.10745779
H        0.63416150       1.94773692       0.72752988
13
Frame=11 idx=000288 GeodesicLength=0.4304570647488062 rxn_smarts="[C:1]([C:2]1([C:3]([H:9])([H:10])[H:11])[C:4]([H:12])([H:13])[O:5]1)([H:6])([H:7])[H:8]>>[C:1]([C:2][C:4]([O:5][C:3]([H:9])([H:10])[H:11])([H:12])[H:13])([H:6])([H:7])[H:8]"
C       -1.52908278      -0.72334185       0.08573146
C       -0.24331514      -0.06425016       0.42690277
C        1.58872974      -0.46008953      -0.17093234
C       -0.10915083       1.36918761       0.18450345
O        0.40052123       0.64600065      -0.93237995
H       -2.04574758      -0.84002282       1.04617413
H       -2.15195909      -0.12208235      -0.58485715
H       -1.40209304      -1.72482483      -0.32830569
H        1.65538287      -1.15076311       0.67099250
H        2.38875489       0.25526946       0.01982230
H        1.80650314      -1.04745797      -1.06494775
H       -1.00163919       1.93219957      -0.09004891
H        0.64309578       1.93017533       0.73734519
13
Frame=12 idx=000288 GeodesicLength=0.467580083011177 rxn_smarts="[C:1]([C:2]1([C:3]([H:9])([H:10])[H:11])[C:4]([H:12])([H:13])[O:5]1)([H:6])([H:7])[H:8]>>[C:1]([C:2][C:4]([O:5][C:3]([H:9])([H:10])[H:11])([H:12])[H:13])([H:6])([H:7])[H:8]"
C       -1.53492700      -0.72500058       0.07423762
C       -0.24568221      -0.07234563       0.41325036
C        1.58979547      -0.45460621      -0.16640044
C       -0.10718395       1.36445514       0.19047523
O        0.39541451       0.64721519      -0.93463175
H       -2.04016805      -0.85625898       1.03902252
H       -2.16309922      -0.11077004      -0.57915209
H       -1.41515307      -1.71983708      -0.35732022
H        1.68003830      -1.10010239       0.70903768
H        2.39726542       0.26583713      -0.02916815
H        1.78956703      -1.08710654      -1.03333252
H       -0.99792289       1.93595265      -0.07259082
H        0.65205566       1.91256733       0.74657256
13
Frame=13 idx=000288 GeodesicLength=0.504533347697774 rxn_smarts="[C:1]([C:2]1([C:3]([H:9])([H:10])[H:11])[C:4]([H:12])([H:13])[O:5]1)([H:6])([H:7])[H:8]>>[C:1]([C:2][C:4]([O:5][C:3]([H:9])([H:10])[H:11])([H:12])[H:13])([H:6])([H:7])[H:8]"
C       -1.54049346      -0.72655866       0.06296832
C       -0.24780356      -0.08037435       0.39949797
C        1.59072268      -0.44929765      -0.16211546
C       -0.10517346       1.35956994       0.19638653
O        0.39030723       0.64848312      -0.93689955
H       -2.03419776      -0.87229755       1.03171556
H       -2.17375557      -0.09976533      -0.57301404
H       -1.42824236      -1.71452957      -0.38578972
H        1.70360346      -1.04822927       0.74369225
H        2.40394382       0.27376930      -0.07743238
H        1.77427097      -1.12507938      -0.99927219
H       -0.99409825       1.93932383      -0.05497572
H        0.66091625       1.89498558       0.75523844
13
Frame=14 idx=000288 GeodesicLength=0.5412271620278725 rxn_smarts="[C:1]([C:2]1([C:3]([H:9])([H:10])[H:11])[C:4]([H:12])([H:13])[O:5]1)([H:6])([H:7])[H:8]>>[C:1]([C:2][C:4]([O:5][C:3]([H:9])([H:10])[H:11])([H:12])[H:13])([H:6])([H:7])[H:8]"
C       -1.54602138      -0.72804357       0.05199118
C       -0.24974116      -0.08831040       0.38566922
C        1.59162791      -0.44416324      -0.15802734
C       -0.10307979       1.35453133       0.20213515
O        0.38529658       0.64974780      -0.93932426
H       -2.02797064      -0.88838287       1.02445241
H       -2.18429060      -0.08902848      -0.56623686
H       -1.44168432      -1.70883928      -0.41383874
H        1.72588790      -0.99550030       0.77512404
H        2.40928522       0.27925790      -0.12461927
H        1.76107422      -1.16105626      -0.96321943
H       -0.99018043       1.94227709      -0.03739805
H        0.66979649       1.87751029       0.76329195
13
Frame=15 idx=000288 GeodesicLength=0.5776968475970975 rxn_smarts="[C:1]([C:2]1([C:3]([H:9])([H:10])[H:11])[C:4]([H:12])([H:13])[O:5]1)([H:6])([H:7])[H:8]>>[C:1]([C:2][C:4]([O:5][C:3]([H:9])([H:10])[H:11])([H:12])[H:13])([H:6])([H:7])[H:8]"
C       -1.55136634      -0.72943544       0.04127263
C       -0.25147147      -0.09612862       0.37178894
C        1.59242263      -0.43924602      -0.15417692
C       -0.10095890       1.34938602       0.20780138
O        0.38034025       0.65112174      -0.94180306
H       -2.02151460      -0.90424629       1.01711413
H       -2.19442570      -0.07864929      -0.55912276
H       -1.45521702      -1.70286211      -0.44122817
H        1.74703798      -0.94224391       0.80327029
H        2.41316663       0.28239556      -0.17063240
H        1.74961121      -1.19511963      -0.92532713
H       -0.98621432       1.94485933      -0.01976579
H        0.67858965       1.86016867       0.77080887
13
Frame=16 idx=000288 GeodesicLength=0.6140350570346355 rxn_smarts="[C:1]([C:2]1([C:3]([H:9])([H:10])[H:11])[C:4]([H:12])([H:13])[O:5]1)([H:6])([H:7])[H:8]>>[C:1]([C:2][C:4]([O:5][C:3]([H:9])([H:10])[H:11])([H:12])[H:13])([H:6])([H:7])[H:8]"
C       -1.55657049      -0.73072656       0.03078488
C       -0.25302767      -0.10379781       0.35785585
C        1.59311731      -0.43456795      -0.15050080
C       -0.09881485       1.34415066       0.21335424
O        0.37546335       0.65256057      -0.94434585
H       -2.01474441      -0.92013978       1.00969564
H       -2.20431983      -0.06851494      -0.55145565
H       -1.46889632      -1.69646882      -0.46825320
H        1.76708269      -0.88851940       0.82833858
H        2.41576220       0.28330728      -0.21550782
H        1.73985770      -1.22738739      -0.88562139
H       -0.98220520       1.94709152      -0.00212578
H        0.68729551       1.84301261       0.77778132
