15
Frame=0 idx=005823 GeodesicLength=0.0 rxn_smarts="[C:1]([C:2]([N:3]([C:4]([H:12])([H:13])[H:14])[C:5](=[O:6])[H:15])([H:10])[H:11])([H:7])([H:8])[H:9]>>[C:1]([C:2](/[N:3]=[C:5](/[O:6][C:4]([H:12])([H:13])[H:14])[H:15])([H:10])[H:11])([H:7])([H:8])[H:9]"
C        2.02685631       0.11201530      -0.30509536
C        0.72766027       0.56044776      -0.95985342
N       -0.42479644       0.20333035      -0.16647762
C       -1.54576846      -1.36571474       0.72142220
C       -1.22762213       1.01809361       0.41051276
O       -2.16693174       0.52603625       1.08803133
H        2.88516153       0.36039729      -0.93250135
H        2.02305509      -0.96792311      -0.14503915
H        2.15518946       0.59506892       0.66523619
H        0.63570304       0.09197022      -1.94513447
H        0.74865423       1.64370406      -1.13070049
H       -0.95920025      -1.45472701       1.62361764
H       -1.14788673      -1.91092698      -0.12129599
H       -2.60709979      -1.51701186       0.85984664
H       -1.12297443       2.10523995       0.33743113
15
Frame=1 idx=005823 GeodesicLength=0.05495872861296038 rxn_smarts="[C:1]([C:2]([N:3]([C:4]([H:12])([H:13])[H:14])[C:5](=[O:6])[H:15])([H:10])[H:11])([H:7])([H:8])[H:9]>>[C:1]([C:2](/[N:3]=[C:5](/[O:6][C:4]([H:12])([H:13])[H:14])[H:15])([H:10])[H:11])([H:7])([H:8])[H:9]"
C        2.01763979       0.10597352      -0.29539490
C        0.72531526       0.55983006      -0.95985107
N       -0.43920427       0.20456364      -0.18402552
C       -1.53086183      -1.35400172       0.71269254
C       -1.22072367       1.02484593       0.41544940
O       -2.09317830       0.54239630       1.18399386
H        2.88180347       0.35338875      -0.91500027
H        2.00839881      -0.97419253      -0.13711027
H        2.13798802       0.58655643       0.67716638
H        0.63996710       0.09383716      -1.94685273
H        0.75117236       1.64389570      -1.12430636
H       -0.94413237      -1.49541502       1.60882385
H       -1.14602262      -1.90855350      -0.13134913
H       -2.59618791      -1.49074257       0.83826507
H       -1.19197384       2.10761785       0.25749915
15
Frame=2 idx=005823 GeodesicLength=0.10994675495097439 rxn_smarts="[C:1]([C:2]([N:3]([C:4]([H:12])([H:13])[H:14])[C:5](=[O:6])[H:15])([H:10])[H:11])([H:7])([H:8])[H:9]>>[C:1]([C:2](/[N:3]=[C:5](/[O:6][C:4]([H:12])([H:13])[H:14])[H:15])([H:10])[H:11])([H:7])([H:8])[H:9]"
C        2.01000656       0.10054862      -0.28741513
C        0.72369851       0.55991856      -0.95963273
N       -0.45156412       0.20455534      -0.20045571
C       -1.51736323      -1.34151794       0.70620835
C       -1.21299430       1.03040551       0.41894854
O       -2.01563833       0.55850117       1.26690308
H        2.87920682       0.34837601      -0.89965568
H        1.99617282      -0.98004525      -0.13246390
H        2.12303230       0.57735576       0.68785671
H        0.64440144       0.09768992      -1.94884942
H        0.75326737       1.64503505      -1.11586602
H       -0.93658154      -1.53250379       1.59778242
H       -1.14373600      -1.90745235      -0.13668036
H       -2.58704328      -1.45971933       0.81646065
H       -1.26486505       2.09885274       0.18685920
15
Frame=3 idx=005823 GeodesicLength=0.1649116881580544 rxn_smarts="[C:1]([C:2]([N:3]([C:4]([H:12])([H:13])[H:14])[C:5](=[O:6])[H:15])([H:10])[H:11])([H:7])([H:8])[H:9]>>[C:1]([C:2](/[N:3]=[C:5](/[O:6][C:4]([H:12])([H:13])[H:14])[H:15])([H:10])[H:11])([H:7])([H:8])[H:9]"
C        2.00458050       0.09692627      -0.28149514
C        0.72247194       0.55960452      -0.95939689
N       -0.46133718       0.20314776      -0.21408374
C       -1.50618493      -1.32877275       0.70105636
C       -1.20383215       1.03493943       0.42259606
O       -1.93864009       0.57431009       1.33660653
H        2.87732725       0.34590135      -0.88809682
H        1.98786258      -0.98399974      -0.12915284
H        2.11145637       0.57074273       0.69590634
H        0.64803301       0.10024145      -1.95026475
H        0.75380186       1.64567586      -1.10808074
H       -0.93952901      -1.56687748       1.59119287
H       -1.14005292      -1.90770797      -0.13767323
H       -2.58038156      -1.42553559       0.79110875
H       -1.33557565       2.08140405       0.12977724
15
Frame=4 idx=005823 GeodesicLength=0.22041231102641767 rxn_smarts="[C:1]([C:2]([N:3]([C:4]([H:12])([H:13])[H:14])[C:5](=[O:6])[H:15])([H:10])[H:11])([H:7])([H:8])[H:9]>>[C:1]([C:2](/[N:3]=[C:5](/[O:6][C:4]([H:12])([H:13])[H:14])[H:15])([H:10])[H:11])([H:7])([H:8])[H:9]"
C        1.99999320       0.09438660      -0.27680539
C        0.72126229       0.55900316      -0.95970541
N       -0.47005782       0.20107409      -0.22695851
C       -1.49583749      -1.31593533       0.69692936
C       -1.19438323       1.03885607       0.42527619
O       -1.86311430       0.58968212       1.39496601
H        2.87563248       0.34476323      -0.87852464
H        1.98131189      -0.98678269      -0.12641866
H        2.10111453       0.56584071       0.70232651
H        0.65127671       0.10177109      -1.95181586
H        0.75325443       1.64593626      -1.10140265
H       -0.94968268      -1.59790341       1.58787975
H       -1.13457388      -1.90905994      -0.13535674
H       -2.57402382      -1.39024130       0.76361253
H       -1.40217230       2.05860935       0.08599750
15
Frame=5 idx=005823 GeodesicLength=0.2766168417169244 rxn_smarts="[C:1]([C:2]([N:3]([C:4]([H:12])([H:13])[H:14])[C:5](=[O:6])[H:15])([H:10])[H:11])([H:7])([H:8])[H:9]>>[C:1]([C:2](/[N:3]=[C:5](/[O:6][C:4]([H:12])([H:13])[H:14])[H:15])([H:10])[H:11])([H:7])([H:8])[H:9]"
C        1.99592607       0.09245039      -0.27305263
C        0.72004976       0.55827553      -0.96044233
N       -0.47808182       0.19874318      -0.23932125
C       -1.48580138      -1.30306567       0.69365929
C       -1.18486178       1.04248691       0.42717794
O       -1.78924084       0.60476674       1.44417262
H        2.87404715       0.34449830      -0.87033105
H        1.97587034      -0.98894896      -0.12441246
H        2.09156182       0.56174275       0.70765560
H        0.65415782       0.10274637      -1.95355597
H        0.75209376       1.64601655      -1.09548582
H       -0.96572548      -1.62582105       1.58722035
H       -1.12726939      -1.91112632      -0.13040709
H       -2.56713270      -1.35479361       0.73445890
H       -1.46559333       2.03202890       0.05266389
15
Frame=6 idx=005823 GeodesicLength=0.3335793716622214 rxn_smarts="[C:1]([C:2]([N:3]([C:4]([H:12])([H:13])[H:14])[C:5](=[O:6])[H:15])([H:10])[H:11])([H:7])([H:8])[H:9]>>[C:1]([C:2](/[N:3]=[C:5](/[O:6][C:4]([H:12])([H:13])[H:14])[H:15])([H:10])[H:11])([H:7])([H:8])[H:9]"
C        1.99205585       0.09073029      -0.27000891
C        0.71878712       0.55756713      -0.96151764
N       -0.48574024       0.19643190      -0.25147618
C       -1.47565179      -1.29015131       0.69116476
C       -1.17560698       1.04600742       0.42816591
O       -1.71693252       0.61975577       1.48572176
H        2.87245939       0.34476672      -0.86295591
H        1.97095339      -0.99091703      -0.12335333
H        2.08234033       0.55763787       0.71231585
H        0.65671156       0.10365863      -1.95553735
H        0.75066245       1.64606428      -1.08993285
H       -0.98652738      -1.65055421       1.58868256
H       -1.11804483      -1.91362487      -0.12315933
H       -2.55907611      -1.31996207       0.70406891
H       -1.52639023       2.00258949       0.02782174
15
Frame=7 idx=005823 GeodesicLength=0.39149445256032095 rxn_smarts="[C:1]([C:2]([N:3]([C:4]([H:12])([H:13])[H:14])[C:5](=[O:6])[H:15])([H:10])[H:11])([H:7])([H:8])[H:9]>>[C:1]([C:2](/[N:3]=[C:5](/[O:6][C:4]([H:12])([H:13])[H:14])[H:15])([H:10])[H:11])([H:7])([H:8])[H:9]"
C        1.98789718       0.08895665      -0.26726934
C        0.71737609       0.55690992      -0.96306295
N       -0.49353062       0.19444531      -0.26408772
C       -1.46495375      -1.27716945       0.68921721
C       -1.16680506       1.04960803       0.42810990
O       -1.64541906       0.63476314       1.52086690
H        2.87067568       0.34501689      -0.85567698
H        1.96575214      -0.99296236      -0.12273429
H        2.07268724       0.55331686       0.71673351
H        0.65913520       0.10452294      -1.95793363
H        0.74913212       1.64613599      -1.08484187
H       -1.01054826      -1.67211581       1.59134135
H       -1.10705671      -1.91625894      -0.11425061
H       -2.54931442      -1.28632293       0.67306246
H       -1.58502777       1.97115375       0.01052606
15
Frame=8 idx=005823 GeodesicLength=0.450331572793933 rxn_smarts="[C:1]([C:2]([N:3]([C:4]([H:12])([H:13])[H:14])[C:5](=[O:6])[H:15])([H:10])[H:11])([H:7])([H:8])[H:9]>>[C:1]([C:2](/[N:3]=[C:5](/[O:6][C:4]([H:12])([H:13])[H:14])[H:15])([H:10])[H:11])([H:7])([H:8])[H:9]"
C        1.98346976       0.08706737      -0.26482524
C        0.71580585       0.55630208      -0.96495744
N       -0.50143026       0.19281851      -0.27695589
C       -1.45375800      -1.26412826       0.68775915
C       -1.15855033       1.05331400       0.42715819
O       -1.57472333       0.64993931       1.55038250
H        2.86869149       0.34528370      -0.84848248
H        1.96031946      -0.99515334      -0.12270724
H        2.06265211       0.54858173       0.72096112
H        0.66132824       0.10539808      -1.96063067
H        0.74755668       1.64621458      -1.08006299
H       -1.03771977      -1.69055141       1.59498745
H       -1.09416072      -1.91890797      -0.10369903
H       -2.53788083      -1.25425436       0.64122539
H       -1.64160038       1.93807599      -0.00015281
15
Frame=9 idx=005823 GeodesicLength=0.510187533076488 rxn_smarts="[C:1]([C:2]([N:3]([C:4]([H:12])([H:13])[H:14])[C:5](=[O:6])[H:15])([H:10])[H:11])([H:7])([H:8])[H:9]>>[C:1]([C:2](/[N:3]=[C:5](/[O:6][C:4]([H:12])([H:13])[H:14])[H:15])([H:10])[H:11])([H:7])([H:8])[H:9]"
C        1.97867267       0.08503802      -0.26255535
C        0.71403196       0.55569167      -0.96720028
N       -0.50954013       0.19161567      -0.29012511
C       -1.44207550      -1.25101591       0.68665760
C       -1.15083766       1.05716135       0.42544962
O       -1.50451817       0.66534228       1.57493834
H        2.86644249       0.34545988      -0.84122075
H        1.95451993      -0.99750281      -0.12303940
H        2.05208464       0.54350792       0.72507772
H        0.66328098       0.10612997      -1.96359043
H        0.74592646       1.64624385      -1.07568584
H       -1.06767631      -1.70590693       1.59915577
H       -1.07935288      -1.92142619      -0.09167676
H       -2.52477022      -1.22401743       0.60847488
H       -1.69618825       1.90367866      -0.00466001
15
Frame=10 idx=005823 GeodesicLength=0.5710281672030973 rxn_smarts="[C:1]([C:2]([N:3]([C:4]([H:12])([H:13])[H:14])[C:5](=[O:6])[H:15])([H:10])[H:11])([H:7])([H:8])[H:9]>>[C:1]([C:2](/[N:3]=[C:5](/[O:6][C:4]([H:12])([H:13])[H:14])[H:15])([H:10])[H:11])([H:7])([H:8])[H:9]"
C        1.97350311       0.08288656      -0.26043225
C        0.71201428       0.55502148      -0.96973784
N       -0.51786899       0.19083387      -0.30346118
C       -1.43002054      -1.23785199       0.68582777
C       -1.14368135       1.06113434       0.42316140
O       -1.43487955       0.68099394       1.59498002
H        2.86388960       0.34552322      -0.83393149
H        1.94838152      -0.99997915      -0.12361501
H        2.04102537       0.53819944       0.72906139
H        0.66490305       0.10658122      -1.96672008
H        0.74419367       1.64615811      -1.07174192
H       -1.10030872      -1.71817766       1.60352809
H       -1.06252538      -1.92373222      -0.07817892
H       -2.51006551      -1.19591318       0.57456384
H       -1.74856055       1.86832200      -0.00330382
15
Frame=11 idx=005823 GeodesicLength=0.6328310301336587 rxn_smarts="[C:1]([C:2]([N:3]([C:4]([H:12])([H:13])[H:14])[C:5](=[O:6])[H:15])([H:10])[H:11])([H:7])([H:8])[H:9]>>[C:1]([C:2](/[N:3]=[C:5](/[O:6][C:4]([H:12])([H:13])[H:14])[H:15])([H:10])[H:11])([H:7])([H:8])[H:9]"
C        1.96798186       0.08064088      -0.25843763
C        0.70972748       0.55424432      -0.97251288
N       -0.52640235       0.19044101      -0.31682270
C       -1.41775693      -1.22464790       0.68520592
C       -1.13707908       1.06519872       0.42046203
O       -1.36586085       0.69690421       1.61089921
H        2.86101363       0.34549030      -0.82665938
H        1.94196768      -1.00254649      -0.12435448
H        2.02953498       0.53274606       0.73289590
H        0.66612090       0.10664491      -1.96993462
H        0.74230871       1.64590738      -1.06823328
H       -1.13549679      -1.72736699       1.60776856
H       -1.04365648      -1.92574596      -0.06316899
H       -2.49387286      -1.17016013       0.53930196
H       -1.79852990       1.83224967       0.00359039
15
Frame=12 idx=005823 GeodesicLength=0.6954933413364733 rxn_smarts="[C:1]([C:2]([N:3]([C:4]([H:12])([H:13])[H:14])[C:5](=[O:6])[H:15])([H:10])[H:11])([H:7])([H:8])[H:9]>>[C:1]([C:2](/[N:3]=[C:5](/[O:6][C:4]([H:12])([H:13])[H:14])[H:15])([H:10])[H:11])([H:7])([H:8])[H:9]"
C        1.96218423       0.07839730      -0.25656496
C        0.70715286       0.55328272      -0.97546534
N       -0.53508649       0.19035518      -0.33001051
C       -1.40554629      -1.21144572       0.68471132
C       -1.13098364       1.06928135       0.41756743
O       -1.29763059       0.71299951       1.62306087
H        2.85781536       0.34540239      -0.81953957
H        1.93541878      -1.00508851      -0.12506871
H        2.01777259       0.52741804       0.73650306
H        0.66685502       0.10611890      -1.97311901
H        0.74017606       1.64540997      -1.06523065
H       -1.17316638      -1.73356108       1.61148992
H       -1.02285907      -1.92740876      -0.04662917
H       -2.47636154      -1.14692702       0.50250621
H       -1.84574092       1.79576574       0.01578911
15
Frame=13 idx=005823 GeodesicLength=0.7589173437800649 rxn_smarts="[C:1]([C:2]([N:3]([C:4]([H:12])([H:13])[H:14])[C:5](=[O:6])[H:15])([H:10])[H:11])([H:7])([H:8])[H:9]>>[C:1]([C:2](/[N:3]=[C:5](/[O:6][C:4]([H:12])([H:13])[H:14])[H:15])([H:10])[H:11])([H:7])([H:8])[H:9]"
C        1.95618904       0.07622937      -0.25480653
C        0.70429121       0.55209119      -0.97852853
N       -0.54386125       0.19048446      -0.34285467
C       -1.39365429      -1.19827375       0.68429063
C       -1.12536307       1.07330503       0.41464070
O       -1.23034080       0.72922014       1.63178743
H        2.85431523       0.34532200      -0.81266637
H        1.92886773      -1.00752189      -0.12565032
H        2.00588174       0.52238624       0.73984473
H        0.66706031       0.10489749      -1.97617983
H        0.73773099       1.64462202      -1.06273000
H       -1.21311147      -1.73686319       1.61430743
H       -1.00037210      -1.92865341      -0.02854193
H       -2.45768631      -1.12630740       0.46415570
H       -1.88994696       1.75906169       0.03293156
15
Frame=14 idx=005823 GeodesicLength=0.8230160315384271 rxn_smarts="[C:1]([C:2]([N:3]([C:4]([H:12])([H:13])[H:14])[C:5](=[O:6])[H:15])([H:10])[H:11])([H:7])([H:8])[H:9]>>[C:1]([C:2](/[N:3]=[C:5](/[O:6][C:4]([H:12])([H:13])[H:14])[H:15])([H:10])[H:11])([H:7])([H:8])[H:9]"
C        1.95007327       0.07422343      -0.25314134
C        0.70115069       0.55062508      -0.98165257
N       -0.55267166       0.19073460      -0.35522149
C       -1.38234971      -1.18516327       0.68388116
C       -1.12016748       1.07719133       0.41182960
O       -1.16411980       0.74547485       1.63738070
H        2.85054169       0.34530364      -0.80611941
H        1.92243018      -1.00974785      -0.12594085
H        1.99399488       0.51786533       0.74288668
H        0.66671950       0.10286089      -1.97903577
H        0.73490824       1.64350255      -1.06075507
H       -1.25504965      -1.73746130       1.61582688
H       -0.97654292      -1.92941682      -0.00893326
H       -2.43799662      -1.10831244       0.42432594
H       -1.93092060       1.72231998       0.05466879
15
Frame=15 idx=005823 GeodesicLength=0.8876916174619981 rxn_smarts="[C:1]([C:2]([N:3]([C:4]([H:12])([H:13])[H:14])[C:5](=[O:6])[H:15])([H:10])[H:11])([H:7])([H:8])[H:9]>>[C:1]([C:2](/[N:3]=[C:5](/[O:6][C:4]([H:12])([H:13])[H:14])[H:15])([H:10])[H:11])([H:7])([H:8])[H:9]"
C        1.94390981       0.07243079      -0.25155345
C        0.69775470       0.54887611      -0.98477906
N       -0.56145904       0.19101726      -0.36700382
C       -1.37185806      -1.17213756       0.68344562
C       -1.11537762       1.08087312       0.40922191
O       -1.09915193       0.76170697       1.64009054
H        2.84653402       0.34539953      -0.79994718
H        1.91619839      -1.01171214      -0.12587453
H        1.98223083       0.51395509       0.74562691
H        0.66583854       0.09999595      -1.98162665
H        0.73168046       1.64205068      -1.05925031
H       -1.29857442      -1.73557844       1.61572492
H       -0.95179415      -1.92963821       0.01215418
H       -2.41741375      -1.09289652       0.38324236
H       -1.96851779       1.68565738       0.08052857
15
Frame=16 idx=005823 GeodesicLength=0.9528483356898422 rxn_smarts="[C:1]([C:2]([N:3]([C:4]([H:12])([H:13])[H:14])[C:5](=[O:6])[H:15])([H:10])[H:11])([H:7])([H:8])[H:9]>>[C:1]([C:2](/[N:3]=[C:5](/[O:6][C:4]([H:12])([H:13])[H:14])[H:15])([H:10])[H:11])([H:7])([H:8])[H:9]"
C        1.93776587       0.07090394      -0.25002028
C        0.69413288       0.54684243      -0.98786173
N       -0.57016976       0.19125437      -0.37812594
C       -1.36236435      -1.15922526       0.68294258
C       -1.11096790       1.08429392       0.40688388
O       -1.03562798       0.77785133       1.64015225
H        2.84233506       0.34564142      -0.79418891
H        1.91023878      -1.01335641      -0.12535717
H        1.97069893       0.51077419       0.74806368
H        0.66444365       0.09629241      -1.98390275
H        0.72802909       1.64027155      -1.05817512
H       -1.34323471      -1.73152904       1.61372516
H       -0.92660789      -1.92926840       0.03461438
H       -2.39604902      -1.07993899       0.34122045
H       -2.00262263       1.64919253       0.11002954
