13
Frame=0 idx=002259 GeodesicLength=0.0 rxn_smarts="[C:1]1([H:7])([H:8])[C:2]([H:9])=[C:3]([H:10])[C@@:4]2([H:11])[N:5]([H:12])[C@@:6]12[H:13]>>[C:1](=[C:2](/[C:3](=[C:4]([C:6](=[N:5]/[H:12])\[H:13])/[H:11])[H:10])[H:9])([H:7])[H:8]"
C        0.44255072      -1.12506682      -0.12044023
C        1.39054289      -0.08701087      -0.44528099
C        0.78664899       1.15008722      -0.49397301
C       -0.40715047       1.11488998       0.21490148
N       -2.05404138      -0.48956328       0.44030741
C       -0.75763255      -0.22043286       0.73739619
H        0.83211801      -2.01037296       0.38018477
H       -0.16533780      -1.41544242      -0.97030712
H        2.46336297      -0.23335720      -0.49819084
H        1.24245411       2.05707415      -0.86945554
H       -1.06870555       1.95317347       0.38635738
H       -2.19263511      -0.33148294      -0.55892531
H       -0.51217483      -0.36249542       1.79742578
13
Frame=1 idx=002259 GeodesicLength=0.07456815838021977 rxn_smarts="[C:1]1([H:7])([H:8])[C:2]([H:9])=[C:3]([H:10])[C@@:4]2([H:11])[N:5]([H:12])[C@@:6]12[H:13]>>[C:1](=[C:2](/[C:3](=[C:4]([C:6](=[N:5]/[H:12])\[H:13])/[H:11])[H:10])[H:9])([H:7])[H:8]"
C        0.45701950      -1.13708384      -0.11710165
C        1.38833457      -0.08939786      -0.45180080
C        0.77598476       1.14507062      -0.49327746
C       -0.41722693       1.11053716       0.21930596
N       -2.06337222      -0.44885809       0.42701634
C       -0.76358990      -0.22569007       0.74095956
H        0.86083508      -2.01172384       0.39084789
H       -0.15112826      -1.44501973      -0.96092178
H        2.46216095      -0.22545905      -0.51190226
H        1.22436550       2.05171440      -0.87854007
H       -1.05917884       1.95962159       0.41127261
H       -2.18977416      -0.30747099      -0.57594491
H       -0.52443005      -0.37624031       1.80008658
13
Frame=2 idx=002259 GeodesicLength=0.14913864163488427 rxn_smarts="[C:1]1([H:7])([H:8])[C:2]([H:9])=[C:3]([H:10])[C@@:4]2([H:11])[N:5]([H:12])[C@@:6]12[H:13]>>[C:1](=[C:2](/[C:3](=[C:4]([C:6](=[N:5]/[H:12])\[H:13])/[H:11])[H:10])[H:9])([H:7])[H:8]"
C        0.47164976      -1.14894595      -0.11380001
C        1.38606957      -0.09184184      -0.45824223
C        0.76553284       1.14004918      -0.49230749
C       -0.42709006       1.10649679       0.22401905
N       -2.07188644      -0.40857372       0.41405359
C       -0.77028339      -0.23079807       0.74399564
H        0.88978865      -2.01259166       0.40127554
H       -0.13661101      -1.47434891      -0.95132808
H        2.46076365      -0.21768254      -0.52556740
H        1.20640110       2.04614005      -0.88755310
H       -1.04933629       1.96570793       0.43535822
H       -2.18765816      -0.28326394      -0.59196567
H       -0.53734022      -0.39034732       1.80206195
13
Frame=3 idx=002259 GeodesicLength=0.2235838287779861 rxn_smarts="[C:1]1([H:7])([H:8])[C:2]([H:9])=[C:3]([H:10])[C@@:4]2([H:11])[N:5]([H:12])[C@@:6]12[H:13]>>[C:1](=[C:2](/[C:3](=[C:4]([C:6](=[N:5]/[H:12])\[H:13])/[H:11])[H:10])[H:9])([H:7])[H:8]"
C        0.48646163      -1.16061886      -0.11048134
C        1.38372677      -0.09433442      -0.46456011
C        0.75529289       1.13497176      -0.49104476
C       -0.43667839       1.10269343       0.22909208
N       -2.07957242      -0.36870706       0.40142932
C       -0.77767773      -0.23579611       0.74650426
H        0.91892954      -2.01290337       0.41155137
H       -0.12167775      -1.50338089      -0.94148305
H        2.45908541      -0.21002470      -0.53931041
H        1.18844916       2.04029563      -0.89656106
H       -1.03921881       1.97134390       0.45856848
H       -2.18616148      -0.25861680      -0.60703653
H       -0.55095884      -0.40492249       1.80333176
13
Frame=4 idx=002259 GeodesicLength=0.2981225919525405 rxn_smarts="[C:1]1([H:7])([H:8])[C:2]([H:9])=[C:3]([H:10])[C@@:4]2([H:11])[N:5]([H:12])[C@@:6]12[H:13]>>[C:1](=[C:2](/[C:3](=[C:4]([C:6](=[N:5]/[H:12])\[H:13])/[H:11])[H:10])[H:9])([H:7])[H:8]"
C        0.50152906      -1.17219315      -0.10712333
C        1.38138705      -0.09690466      -0.47077919
C        0.74525895       1.12987275      -0.48954136
C       -0.44602908       1.09918523       0.23452359
N       -2.08662091      -0.32928103       0.38913881
C       -0.78578987      -0.24068387       0.74847773
H        0.94838043      -2.01274747       0.42173626
H       -0.10628164      -1.53231436      -0.93137717
H        2.45727878      -0.20250624      -0.55319243
H        1.17053368       2.03423226      -0.90558438
H       -1.02892360       1.97668627       0.48108079
H       -2.18544411      -0.23340199      -0.62124486
H       -0.56527874      -0.41994375       1.80388554
13
Frame=5 idx=002259 GeodesicLength=0.3725594076493688 rxn_smarts="[C:1]1([H:7])([H:8])[C:2]([H:9])=[C:3]([H:10])[C@@:4]2([H:11])[N:5]([H:12])[C@@:6]12[H:13]>>[C:1](=[C:2](/[C:3](=[C:4]([C:6](=[N:5]/[H:12])\[H:13])/[H:11])[H:10])[H:9])([H:7])[H:8]"
C        0.51684296      -1.18361635      -0.10367980
C        1.37896832      -0.09953649      -0.47691890
C        0.73537243       1.12469098      -0.48786688
C       -0.45512157       1.09588044       0.24026968
N       -2.09297434      -0.29030366       0.37719050
C       -0.79458226      -0.24548776       0.74989359
H        0.97808268      -2.01200796       0.43191625
H       -0.09034796      -1.56110577      -0.92094037
H        2.45519504      -0.19507830      -0.56724590
H        1.15262900       2.02786781      -0.91460956
H       -1.01839082       1.98160413       0.50296068
H       -2.18535337      -0.20744711      -0.63464180
H       -0.58032012      -0.43545996       1.80367251
13
Frame=6 idx=002259 GeodesicLength=0.447048305354219 rxn_smarts="[C:1]1([H:7])([H:8])[C:2]([H:9])=[C:3]([H:10])[C@@:4]2([H:11])[N:5]([H:12])[C@@:6]12[H:13]>>[C:1](=[C:2](/[C:3](=[C:4]([C:6](=[N:5]/[H:12])\[H:13])/[H:11])[H:10])[H:9])([H:7])[H:8]"
C        0.53248943      -1.19494641      -0.10008235
C        1.37654120      -0.10225490      -0.48294135
C        0.72565784       1.11944136      -0.48595919
C       -0.46392738       1.09280164       0.24645202
N       -2.09877834      -0.25170134       0.36552312
C       -0.80408079      -0.25023879       0.75073425
H        1.00815415      -2.01071293       0.44219956
H       -0.07378139      -1.58989432      -0.91011637
H        2.45291699      -0.18778974      -0.58165998
H        1.13454640       2.02119378      -0.92383545
H       -1.00766964       1.98620531       0.52439267
H       -2.18588892      -0.18053299      -0.64737561
H       -0.59617956      -0.45157068       1.80266868
13
Frame=7 idx=002259 GeodesicLength=0.5215247584195176 rxn_smarts="[C:1]1([H:7])([H:8])[C:2]([H:9])=[C:3]([H:10])[C@@:4]2([H:11])[N:5]([H:12])[C@@:6]12[H:13]>>[C:1](=[C:2](/[C:3](=[C:4]([C:6](=[N:5]/[H:12])\[H:13])/[H:11])[H:10])[H:9])([H:7])[H:8]"
C        0.54846451      -1.20618470      -0.09635445
C        1.37406418      -0.10507942      -0.48896599
C        0.71605467       1.11408483      -0.48399444
C       -0.47250510       1.08990029       0.25288825
N       -2.10408662      -0.21351054       0.35427204
C       -0.81424554      -0.25492752       0.75097906
H        1.03858597      -2.00883252       0.45257615
H       -0.05659618      -1.61871479      -0.89887823
H        2.45041470      -0.18061516      -0.59635252
H        1.11653577       2.01428662      -0.93288364
H       -0.99681891       1.99045638       0.54525427
H       -2.18714115      -0.15268009      -0.65936592
H       -0.61272628      -0.46818339       1.80082541
13
Frame=8 idx=002259 GeodesicLength=0.5960762347981379 rxn_smarts="[C:1]1([H:7])([H:8])[C:2]([H:9])=[C:3]([H:10])[C@@:4]2([H:11])[N:5]([H:12])[C@@:6]12[H:13]>>[C:1](=[C:2](/[C:3](=[C:4]([C:6](=[N:5]/[H:12])\[H:13])/[H:11])[H:10])[H:9])([H:7])[H:8]"
C        0.56484476      -1.21732856      -0.09238850
C        1.37154467      -0.10801424      -0.49489386
C        0.70657032       1.10861304      -0.48180544
C       -0.48080824       1.08715501       0.25978090
N       -2.10891112      -0.17560431       0.34325616
C       -0.82512578      -0.25959820       0.75057509
H        1.06944519      -2.00627871       0.46320961
H       -0.03861411      -1.64764237      -0.88712968
H        2.44764485      -0.17357579      -0.61153297
H        1.09816622       2.00695510      -0.94231283
H       -0.98569660       1.99435346       0.56602500
H       -2.18886353      -0.12357449      -0.67084425
H       -0.63019662      -0.48545994       1.79806078
13
Frame=9 idx=002259 GeodesicLength=0.6705484210332858 rxn_smarts="[C:1]1([H:7])([H:8])[C:2]([H:9])=[C:3]([H:10])[C@@:4]2([H:11])[N:5]([H:12])[C@@:6]12[H:13]>>[C:1](=[C:2](/[C:3](=[C:4]([C:6](=[N:5]/[H:12])\[H:13])/[H:11])[H:10])[H:9])([H:7])[H:8]"
C        0.58160155      -1.22837805      -0.08822598
C        1.36891881      -0.11108427      -0.50092415
C        0.69712948       1.10297800      -0.47968725
C       -0.48889500       1.08450284       0.26684322
N       -2.11332012      -0.13804626       0.33271767
C       -0.83665820      -0.26424167       0.74950010
H        1.10070378      -2.00302523       0.47406476
H       -0.01991636      -1.67669876      -0.87481378
H        2.44454956      -0.16665163      -0.62711573
H        1.07991683       1.99942492      -0.95136661
H       -0.97442424       1.99785560       0.58630491
H       -2.19123607      -0.09335784      -0.68162714
H       -0.64837003      -0.50327764       1.79432999
13
Frame=10 idx=002259 GeodesicLength=0.7450689199005277 rxn_smarts="[C:1]1([H:7])([H:8])[C:2]([H:9])=[C:3]([H:10])[C@@:4]2([H:11])[N:5]([H:12])[C@@:6]12[H:13]>>[C:1](=[C:2](/[C:3](=[C:4]([C:6](=[N:5]/[H:12])\[H:13])/[H:11])[H:10])[H:9])([H:7])[H:8]"
C        0.59879747      -1.23936094      -0.08383199
C        1.36619439      -0.11432704      -0.50709165
C        0.68769785       1.09716543      -0.47765592
C       -0.49680749       1.08194550       0.27408742
N       -2.11741267      -0.10078007       0.32264016
C       -0.84887148      -0.26885970       0.74771591
H        1.13245985      -1.99903224       0.48520740
H       -0.00042520      -1.70600072      -0.86186880
H        2.44115278      -0.15988340      -0.64321388
H        1.06179497       1.99169994      -0.96004107
H       -0.96301023       2.00100324       0.60625183
H       -2.19428457      -0.06193358      -0.69177655
H       -0.66728566      -0.52163642       1.78957714
13
Frame=11 idx=002259 GeodesicLength=0.8195518871265088 rxn_smarts="[C:1]1([H:7])([H:8])[C:2]([H:9])=[C:3]([H:10])[C@@:4]2([H:11])[N:5]([H:12])[C@@:6]12[H:13]>>[C:1](=[C:2](/[C:3](=[C:4]([C:6](=[N:5]/[H:12])\[H:13])/[H:11])[H:10])[H:9])([H:7])[H:8]"
C        0.61644401      -1.25025347      -0.07915709
C        1.36331148      -0.11775217      -0.51343798
C        0.67823383       1.09114498      -0.47575190
C       -0.50454658       1.07942795       0.28148242
N       -2.12118784      -0.06377499       0.31303168
C       -0.86176166      -0.27348095       0.74516859
H        1.16471165      -1.99420322       0.49670796
H        0.01991676      -1.73555975      -0.84817817
H        2.43735460      -0.15326739      -0.65989614
H        1.04382375       1.98378612      -0.96829389
H       -0.95139961       2.00373249       0.62591998
H       -2.19793369      -0.02920490      -0.70130171
H       -0.68696671      -0.54059469       1.78370625
13
Frame=12 idx=002259 GeodesicLength=0.8940750003506809 rxn_smarts="[C:1]1([H:7])([H:8])[C:2]([H:9])=[C:3]([H:10])[C@@:4]2([H:11])[N:5]([H:12])[C@@:6]12[H:13]>>[C:1](=[C:2](/[C:3](=[C:4]([C:6](=[N:5]/[H:12])\[H:13])/[H:11])[H:10])[H:9])([H:7])[H:8]"
C        0.63457601      -1.26107747      -0.07422190
C        1.36026005      -0.12141316      -0.52007331
C        0.66867870       1.08487878      -0.47411633
C       -0.51218978       1.07693686       0.28890056
N       -2.12475844      -0.02702115       0.30399262
C       -0.87533620      -0.27808464       0.74182432
H        1.19751534      -1.98850124       0.50856053
H        0.04112775      -1.76546144      -0.83370775
H        2.43317977      -0.14684026      -0.67715099
H        1.02625455       1.97580226      -0.97580292
H       -0.93964506       2.00606678       0.64525902
H       -2.20232698       0.00476807      -0.71013737
H       -0.70733569      -0.56005339       1.77667353
13
Frame=13 idx=002259 GeodesicLength=0.9684886306386662 rxn_smarts="[C:1]1([H:7])([H:8])[C:2]([H:9])=[C:3]([H:10])[C@@:4]2([H:11])[N:5]([H:12])[C@@:6]12[H:13]>>[C:1](=[C:2](/[C:3](=[C:4]([C:6](=[N:5]/[H:12])\[H:13])/[H:11])[H:10])[H:9])([H:7])[H:8]"
C        0.65321340      -1.27177531      -0.06891654
C        1.35697394      -0.12530663      -0.52699261
C        0.65904068       1.07833748      -0.47269493
C       -0.51968162       1.07438399       0.29637501
N       -2.12808431       0.00954242       0.29548399
C       -0.88961012      -0.28272835       0.73759389
H        1.23087009      -1.98177625       0.52087474
H        0.06329718      -1.79567228      -0.81824993
H        2.42846445      -0.14061595      -0.69517767
H        1.00897880       1.96772804      -0.98266430
H       -0.92764228       2.00788422       0.66435375
H       -2.20730183       0.04017508      -0.71831388
H       -0.72851836      -0.58017646       1.76832848
13
Frame=14 idx=002259 GeodesicLength=1.0429536007668214 rxn_smarts="[C:1]1([H:7])([H:8])[C:2]([H:9])=[C:3]([H:10])[C@@:4]2([H:11])[N:5]([H:12])[C@@:6]12[H:13]>>[C:1](=[C:2](/[C:3](=[C:4]([C:6](=[N:5]/[H:12])\[H:13])/[H:11])[H:10])[H:9])([H:7])[H:8]"
C        0.67244605      -1.28236644      -0.06318835
C        1.35348300      -0.12948216      -0.53420821
C        0.64933185       1.07152863      -0.47141346
C       -0.52705332       1.07178172       0.30398138
N       -2.13127442       0.04600748       0.28745442
C       -0.90464626      -0.28741904       0.73240611
H        1.26490447      -1.97395985       0.53373047
H        0.08654320      -1.82628845      -0.80172418
H        2.42325582      -0.13466518      -0.71409181
H        0.99186594       1.95949606      -0.98908558
H       -0.91535322       2.00920743       0.68347703
H       -2.21288839       0.07718688      -0.72590636
H       -0.75061472      -0.60102707       1.75856855
13
Frame=15 idx=002259 GeodesicLength=1.1174183289170225 rxn_smarts="[C:1]1([H:7])([H:8])[C:2]([H:9])=[C:3]([H:10])[C@@:4]2([H:11])[N:5]([H:12])[C@@:6]12[H:13]>>[C:1](=[C:2](/[C:3](=[C:4]([C:6](=[N:5]/[H:12])\[H:13])/[H:11])[H:10])[H:9])([H:7])[H:8]"
C        0.69230480      -1.29281483      -0.05697093
C        1.34973073      -0.13396875      -0.54177372
C        0.63953959       1.06442762      -0.47028323
C       -0.53430794       1.06907409       0.31168936
N       -2.13433787       0.08241514       0.27991858
C       -0.92046822      -0.29218065       0.72616665
H        1.29964818      -1.96491142       0.54719730
H        0.11093786      -1.85731970      -0.78395955
H        2.41744729      -0.12902936      -0.73401875
H        0.97495109       1.95112669      -0.99500339
H       -0.90272019       2.00994995       0.70268376
H       -2.21904715       0.11590889      -0.73288797
H       -0.77367817      -0.62267768       1.74724189
13
Frame=16 idx=002259 GeodesicLength=1.1918815442847395 rxn_smarts="[C:1]1([H:7])([H:8])[C:2]([H:9])=[C:3]([H:10])[C@@:4]2([H:11])[N:5]([H:12])[C@@:6]12[H:13]>>[C:1](=[C:2](/[C:3](=[C:4]([C:6](=[N:5]/[H:12])\[H:13])/[H:11])[H:10])[H:9])([H:7])[H:8]"
C        0.71283841      -1.30308597      -0.05019164
C        1.34567538      -0.13880708      -0.54973440
C        0.62966780       1.05701697      -0.46928247
C       -0.54145845       1.06621514       0.31948837
N       -2.13730127       0.11881592       0.27288126
C       -0.93711435      -0.29702951       0.71876999
H        1.33515660      -1.95448287       0.56134561
H        0.13657036      -1.88878186      -0.76477918
H        2.41094990      -0.12377918      -0.75511727
H        0.95824744       1.94262261      -1.00039284
H       -0.88969703       2.01003292       0.72206934
H       -2.22575346       0.15646383      -0.73923652
H       -0.79778131      -0.64520093       1.73417973
