11
Frame=0 idx=004034 GeodesicLength=0.0 rxn_smarts="[O:1]([c:2]1[c:3]([H:8])[n:4]([H:9])[c:5]([H:10])[c:6]1[H:11])[H:7]>>[O:1]([C:2](/[C:3](=[N:4]/[H:9])[H:8])=[C:6]=[C:5]([H:10])[H:11])[H:7]"
O        2.31307487      -0.27089024      -0.28473430
C        0.97593506      -0.06764585      -0.16395547
C        0.03531505      -1.02688639      -0.42076477
N       -1.19703696      -0.49601261      -0.18412606
C       -1.01560046       0.80889665       0.25385478
C        0.37866530       1.18041816       0.19079662
H        2.72992444       0.57123352      -0.08079570
H        0.15512610      -2.05800336      -0.71894617
H       -2.06113132      -1.00580987      -0.20387236
H       -1.85943039       1.48461637       0.28721729
H       -0.45484172       0.88008362       1.32532614
11
Frame=1 idx=004034 GeodesicLength=0.11529131771144716 rxn_smarts="[O:1]([c:2]1[c:3]([H:8])[n:4]([H:9])[c:5]([H:10])[c:6]1[H:11])[H:7]>>[O:1]([C:2](/[C:3](=[N:4]/[H:9])[H:8])=[C:6]=[C:5]([H:10])[H:11])[H:7]"
O        2.30918471      -0.27143334      -0.29406284
C        0.97269496      -0.07154219      -0.15878921
C        0.03367625      -1.03999050      -0.40595390
N       -1.19880941      -0.51512215      -0.17054580
C       -1.01853039       0.82193962       0.26390077
C        0.37335595       1.17275523       0.19006885
H        2.72925544       0.56472912      -0.07352933
H        0.16304810      -2.05350693      -0.75640013
H       -2.05810710      -1.03207803      -0.21195856
H       -1.85769847       1.50398261       0.27417731
H       -0.44807002       0.92026656       1.34309284
11
Frame=2 idx=004034 GeodesicLength=0.2305304522086829 rxn_smarts="[O:1]([c:2]1[c:3]([H:8])[n:4]([H:9])[c:5]([H:10])[c:6]1[H:11])[H:7]>>[O:1]([C:2](/[C:3](=[N:4]/[H:9])[H:8])=[C:6]=[C:5]([H:10])[H:11])[H:7]"
O        2.30497827      -0.27208592      -0.30287043
C        0.96925005      -0.07587626      -0.15298792
C        0.03207444      -1.05329093      -0.39216332
N       -1.20064302      -0.53498307      -0.15707018
C       -1.02150130       0.83495283       0.27470739
C        0.36784361       1.16441712       0.19064343
H        2.72826023       0.55844429      -0.06823138
H        0.17057763      -2.04753772      -0.79159198
H       -2.05471447      -1.05851230      -0.22262516
H       -1.85555416       1.52300880       0.26144971
H       -0.44057129       0.96146315       1.36073984
11
Frame=3 idx=004034 GeodesicLength=0.3457181771077496 rxn_smarts="[O:1]([c:2]1[c:3]([H:8])[n:4]([H:9])[c:5]([H:10])[c:6]1[H:11])[H:7]>>[O:1]([C:2](/[C:3](=[N:4]/[H:9])[H:8])=[C:6]=[C:5]([H:10])[H:11])[H:7]"
O        2.30045417      -0.27287450      -0.31090977
C        0.96559214      -0.08050402      -0.14662669
C        0.03031090      -1.06601721      -0.38133917
N       -1.20269118      -0.55515453      -0.14494501
C       -1.02451368       0.84802191       0.28646810
C        0.36218368       1.15534900       0.19330997
H        2.72688228       0.55287101      -0.06588172
H        0.17806491      -2.04171085      -0.82188596
H       -2.05094377      -1.08474087      -0.23640325
H       -1.85284049       1.54193651       0.24959980
H       -0.43249896       1.00282354       1.37861369
11
Frame=4 idx=004034 GeodesicLength=0.46086466625338085 rxn_smarts="[O:1]([c:2]1[c:3]([H:8])[n:4]([H:9])[c:5]([H:10])[c:6]1[H:11])[H:7]>>[O:1]([C:2](/[C:3](=[N:4]/[H:9])[H:8])=[C:6]=[C:5]([H:10])[H:11])[H:7]"
O        2.29557095      -0.27366562      -0.31856696
C        0.96169210      -0.08537300      -0.13985926
C        0.02833680      -1.07819800      -0.37332620
N       -1.20503764      -0.57559309      -0.13452990
C       -1.02760489       0.86125554       0.29905098
C        0.35631373       1.14565443       0.19776146
H        2.72512439       0.54776486      -0.06520413
H        0.18564302      -2.03637628      -0.84848300
H       -2.04672286      -1.11110733      -0.25180068
H       -1.84956104       1.56090407       0.23847938
H       -0.42375455       1.04473443       1.39647831
11
Frame=5 idx=004034 GeodesicLength=0.5760641106943526 rxn_smarts="[O:1]([c:2]1[c:3]([H:8])[n:4]([H:9])[c:5]([H:10])[c:6]1[H:11])[H:7]>>[O:1]([C:2](/[C:3](=[N:4]/[H:9])[H:8])=[C:6]=[C:5]([H:10])[H:11])[H:7]"
O        2.29032429      -0.27452162      -0.32568680
C        0.95754348      -0.09058794      -0.13252280
C        0.02618485      -1.09013343      -0.36741463
N       -1.20767775      -0.59649512      -0.12559737
C       -1.03079619       0.87469785       0.31239446
C        0.35017790       1.13534769       0.20367153
H        2.72294368       0.54303117      -0.06562820
H        0.19327963      -2.03120802      -0.87318681
H       -2.04205973      -1.13795776      -0.26789451
H       -1.84573192       1.57994560       0.22780222
H       -0.41418825       1.08788158       1.41406291
11
Frame=6 idx=004034 GeodesicLength=0.6912357258260017 rxn_smarts="[O:1]([c:2]1[c:3]([H:8])[n:4]([H:9])[c:5]([H:10])[c:6]1[H:11])[H:7]>>[O:1]([C:2](/[C:3](=[N:4]/[H:9])[H:8])=[C:6]=[C:5]([H:10])[H:11])[H:7]"
O        2.28469407      -0.27542006      -0.33226006
C        0.95313159      -0.09618836      -0.12452992
C        0.02382882      -1.10185791      -0.36343564
N       -1.21067562      -0.61771429      -0.11875369
C       -1.03408311       0.88840061       0.32648925
C        0.34377206       1.12438325       0.21116035
H        2.72030325       0.53868712      -0.06698082
H        0.20109924      -2.02628388      -0.89646563
H       -2.03704478      -1.16556308      -0.28397710
H       -1.84124383       1.59914939       0.21751183
H       -0.40378169       1.13240721       1.43124143
11
Frame=7 idx=004034 GeodesicLength=0.806411351579737 rxn_smarts="[O:1]([c:2]1[c:3]([H:8])[n:4]([H:9])[c:5]([H:10])[c:6]1[H:11])[H:7]>>[O:1]([C:2](/[C:3](=[N:4]/[H:9])[H:8])=[C:6]=[C:5]([H:10])[H:11])[H:7]"
O        2.27865757      -0.27638143      -0.33820209
C        0.94842451      -0.10223601      -0.11585042
C        0.02128225      -1.11353432      -0.36102895
N       -1.21402612      -0.63942287      -0.11375585
C       -1.03747348       0.90234856       0.34147379
C        0.33703205       1.11272354       0.22007950
H        2.71712153       0.53474309      -0.06905502
H        0.20910239      -2.02145927      -0.91893770
H       -2.03176744      -1.19404514      -0.30015311
H       -1.83609923       1.61844780       0.20765094
H       -0.39225401       1.17881605       1.44777890
11
Frame=8 idx=004034 GeodesicLength=0.9215848247578798 rxn_smarts="[O:1]([c:2]1[c:3]([H:8])[n:4]([H:9])[c:5]([H:10])[c:6]1[H:11])[H:7]>>[O:1]([C:2](/[C:3](=[N:4]/[H:9])[H:8])=[C:6]=[C:5]([H:10])[H:11])[H:7]"
O        2.27218012      -0.27736604      -0.34355858
C        0.94338359      -0.10876103      -0.10650746
C        0.01853351      -1.12520850      -0.36012274
N       -1.21776971      -0.66159905      -0.11083670
C       -1.04096735       0.91656216       0.35745736
C        0.32989693       1.10034264       0.23047717
H        2.71334552       0.53115834      -0.07156965
H        0.21736613      -2.01675669      -0.94087346
H       -2.02630663      -1.22362551      -0.31621754
H       -1.83025850       1.63782140       0.19831337
H       -0.37940361       1.22743228       1.46343824
11
Frame=9 idx=004034 GeodesicLength=1.036710614499459 rxn_smarts="[O:1]([c:2]1[c:3]([H:8])[n:4]([H:9])[c:5]([H:10])[c:6]1[H:11])[H:7]>>[O:1]([C:2](/[C:3](=[N:4]/[H:9])[H:8])=[C:6]=[C:5]([H:10])[H:11])[H:7]"
O        2.26522266      -0.27835780      -0.34821835
C        0.93793394      -0.11575623      -0.09666316
C        0.01556898      -1.13696788      -0.36050226
N       -1.22187581      -0.68453848      -0.10943424
C       -1.04456844       0.93096594       0.37468158
C        0.32229409       1.08715539       0.24212187
H        2.70886017       0.52791411      -0.07411824
H        0.22578318      -2.01195698      -0.96266941
H       -2.02068318      -1.25430335      -0.33260511
H       -1.82380061       1.65704396       0.18968316
H       -0.36473498       1.27880130       1.47772417
11
Frame=10 idx=004034 GeodesicLength=1.1518252211225104 rxn_smarts="[O:1]([c:2]1[c:3]([H:8])[n:4]([H:9])[c:5]([H:10])[c:6]1[H:11])[H:7]>>[O:1]([C:2](/[C:3](=[N:4]/[H:9])[H:8])=[C:6]=[C:5]([H:10])[H:11])[H:7]"
O        2.25775569      -0.27934349      -0.35219132
C        0.93203401      -0.12326867      -0.08629615
C        0.01237844      -1.14884069      -0.36215540
N       -1.22641047      -0.70814667      -0.10994818
C       -1.04827868       0.94558796       0.39334285
C        0.31415501       1.07309396       0.25533003
H        2.70359970       0.52506646      -0.07675714
H        0.23449072      -2.00724951      -0.98422012
H       -2.01494723      -1.28619104      -0.34941839
H       -1.81669770       1.67609978       0.18196959
H       -0.34807949       1.33319190       1.49034423
11
Frame=11 idx=004034 GeodesicLength=1.2669093917162648 rxn_smarts="[O:1]([c:2]1[c:3]([H:8])[n:4]([H:9])[c:5]([H:10])[c:6]1[H:11])[H:7]>>[O:1]([C:2](/[C:3](=[N:4]/[H:9])[H:8])=[C:6]=[C:5]([H:10])[H:11])[H:7]"
O        2.24973299      -0.28031464      -0.35538097
C        0.92562269      -0.13135286      -0.07538329
C        0.00893766      -1.16085452      -0.36504309
N       -1.23138832      -0.73251878      -0.11231585
C       -1.05208320       0.96039635       0.41368637
C        0.30542127       1.05801670       0.27032604
H        2.69744976       0.52266093      -0.07936564
H        0.24347234      -2.00253137      -1.00574634
H       -2.00910107      -1.31936969      -0.36682586
H       -1.80892855       1.69483500       0.17530777
H       -0.32913556       1.39103288       1.50074088
11
Frame=12 idx=004034 GeodesicLength=1.382012778159978 rxn_smarts="[O:1]([c:2]1[c:3]([H:8])[n:4]([H:9])[c:5]([H:10])[c:6]1[H:11])[H:7]>>[O:1]([C:2](/[C:3](=[N:4]/[H:9])[H:8])=[C:6]=[C:5]([H:10])[H:11])[H:7]"
O        2.24110094      -0.28122190      -0.35782007
C        0.91864295      -0.14007222      -0.06389919
C        0.00522365      -1.17302149      -0.36918599
N       -1.23683166      -0.75768135      -0.11664876
C       -1.05596694       0.97539556       0.43596766
C        0.29602738       1.04175709       0.28753032
H        2.69031303       0.52070897      -0.08176951
H        0.25274158      -1.99775115      -1.02739527
H       -2.00313191      -1.35397932      -0.38488591
H       -1.80046380       1.71314518       0.16984495
H       -0.30765521       1.45272064       1.50826177
11
Frame=13 idx=004034 GeodesicLength=1.4969467240217966 rxn_smarts="[O:1]([c:2]1[c:3]([H:8])[n:4]([H:9])[c:5]([H:10])[c:6]1[H:11])[H:7]>>[O:1]([C:2](/[C:3](=[N:4]/[H:9])[H:8])=[C:6]=[C:5]([H:10])[H:11])[H:7]"
O        2.23179639      -0.28192667      -0.35948521
C        0.91100380      -0.14940782      -0.05199323
C        0.00120512      -1.18532005      -0.37457170
N       -1.24273587      -0.78389016      -0.12234368
C       -1.05993371       0.99050306       0.46055672
C        0.28592633       1.02402831       0.30719336
H        2.68208544       0.51917827      -0.08337133
H        0.26215577      -1.99257964      -1.04962414
H       -1.99701568      -1.38994536      -0.40380391
H       -1.79133562       1.73069434       0.16565028
H       -0.28315196       1.51866572       1.51179285
11
Frame=14 idx=004034 GeodesicLength=1.6119622294902063 rxn_smarts="[O:1]([c:2]1[c:3]([H:8])[n:4]([H:9])[c:5]([H:10])[c:6]1[H:11])[H:7]>>[O:1]([C:2](/[C:3](=[N:4]/[H:9])[H:8])=[C:6]=[C:5]([H:10])[H:11])[H:7]"
O        2.22172616      -0.28226696      -0.36067813
C        0.90266360      -0.15946286      -0.03957313
C       -0.00314532      -1.19773835      -0.38132011
N       -1.24915478      -0.81100001      -0.12994113
C       -1.06395847       1.00581878       0.48776704
C        0.27506528       1.00452259       0.33045967
H        2.67266849       0.51813645      -0.08414393
H        0.27181137      -1.98717654      -1.07233885
H       -1.99073536      -1.42749820      -0.42352372
H       -1.78135578       1.74753335       0.16280251
H       -0.25558518       1.58913176       1.51048978
11
Frame=15 idx=004034 GeodesicLength=1.7268287564791407 rxn_smarts="[O:1]([c:2]1[c:3]([H:8])[n:4]([H:9])[c:5]([H:10])[c:6]1[H:11])[H:7]>>[O:1]([C:2](/[C:3](=[N:4]/[H:9])[H:8])=[C:6]=[C:5]([H:10])[H:11])[H:7]"
O        2.21065422      -0.28183984      -0.36170143
C        0.89352690      -0.17032162      -0.02647641
C       -0.00794305      -1.21013730      -0.38944338
N       -1.25614085      -0.83892311      -0.13966822
C       -1.06792879       1.02130900       0.51787628
C        0.26348649       0.98252482       0.35889938
H        2.66179025       0.51787203      -0.08407972
H        0.28161120      -1.98129851      -1.09546871
H       -1.98428185      -1.46670598      -0.44399764
H       -1.76990122       1.76351691       0.16100502
H       -0.22487331       1.66400359       1.50305482
11
Frame=16 idx=004034 GeodesicLength=1.8415349261015228 rxn_smarts="[O:1]([c:2]1[c:3]([H:8])[n:4]([H:9])[c:5]([H:10])[c:6]1[H:11])[H:7]>>[O:1]([C:2](/[C:3](=[N:4]/[H:9])[H:8])=[C:6]=[C:5]([H:10])[H:11])[H:7]"
O        2.19831240      -0.28003592      -0.36315897
C        0.88351177      -0.18211975      -0.01254418
C       -0.01325807      -1.22243114      -0.39896285
N       -1.26379056      -0.86755774      -0.15159720
C       -1.07185084       1.03714515       0.55113071
C        0.25117246       0.95690893       0.39492807
H        2.64908511       0.51882354      -0.08316660
H        0.29153018      -1.97472177      -1.11920010
H       -1.97765695      -1.50772409      -0.46492478
H       -1.75602450       1.77884380       0.15937740
H       -0.19103100       1.74286900       1.48811849
