11
Frame=0 idx=001675 GeodesicLength=0.0 rxn_smarts="[O:1]([C@@:2]1([H:8])[C:3]([H:9])([H:10])[O:4]/[C:5]1=[N:6]\[H:11])[H:7]>>[O:1]([C:2](/[C:5]([O+:4]=[C-:3][H:9])=[N:6]/[H:11])([H:8])[H:10])[H:7]"
O        0.02786913       1.71204189       1.09514911
C        0.43593401       0.75575084       0.23847530
C        1.00127467      -1.48814273       0.08463370
O        0.08687236      -1.14768775      -0.89769534
C       -0.60079305      -0.06202040      -0.45070303
N       -1.82919417       0.18348726      -0.48338248
H       -0.87350623       1.50341268       1.37287274
H        1.22704987       1.11274340      -0.41873417
H        1.95493821      -1.65083227      -0.45659689
H        0.93985951      -0.34298723       0.80050929
H       -2.37030428      -0.57576566      -0.88452826
11
Frame=1 idx=001675 GeodesicLength=0.054312999159959185 rxn_smarts="[O:1]([C@@:2]1([H:8])[C:3]([H:9])([H:10])[O:4]/[C:5]1=[N:6]\[H:11])[H:7]>>[O:1]([C:2](/[C:5]([O+:4]=[C-:3][H:9])=[N:6]/[H:11])([H:8])[H:10])[H:7]"
O        0.03428862       1.70289100       1.10342400
C        0.44001103       0.74395254       0.24419641
C        1.01785145      -1.47238010       0.07494840
O        0.07603388      -1.16042095      -0.88903280
C       -0.60362523      -0.06718583      -0.44409264
N       -1.82941781       0.18656924      -0.48785396
H       -0.88206697       1.52461207       1.35030950
H        1.22323135       1.10837036      -0.41918075
H        1.95923627      -1.64429407      -0.48287484
H        0.93712626      -0.35010123       0.83782979
H       -2.37266886      -0.57201301      -0.88767312
11
Frame=2 idx=001675 GeodesicLength=0.10858635455174082 rxn_smarts="[O:1]([C@@:2]1([H:8])[C:3]([H:9])([H:10])[O:4]/[C:5]1=[N:6]\[H:11])[H:7]>>[O:1]([C:2](/[C:5]([O+:4]=[C-:3][H:9])=[N:6]/[H:11])([H:8])[H:10])[H:7]"
O        0.03984059       1.69267319       1.11282950
C        0.44406441       0.73229170       0.25007718
C        1.03391971      -1.45574301       0.06545017
O        0.06524080      -1.17358801      -0.87939781
C       -0.60611075      -0.07188305      -0.43835857
N       -1.82918840       0.18999374      -0.49333717
H       -0.88979444       1.54545588       1.32711681
H        1.21877045       1.10536724      -0.41932067
H        1.96239749      -1.63883165      -0.50851323
H        0.93565445      -0.35702175       0.87344340
H       -2.37479431      -0.56871427      -0.88998960
11
Frame=3 idx=001675 GeodesicLength=0.16278888014068438 rxn_smarts="[O:1]([C@@:2]1([H:8])[C:3]([H:9])([H:10])[O:4]/[C:5]1=[N:6]\[H:11])[H:7]>>[O:1]([C:2](/[C:5]([O+:4]=[C-:3][H:9])=[N:6]/[H:11])([H:8])[H:10])[H:7]"
O        0.04442680       1.68144131       1.12332501
C        0.44801482       0.72079351       0.25608309
C        1.04938757      -1.43832503       0.05599179
O        0.05455975      -1.18713351      -0.86875834
C       -0.60825793      -0.07620583      -0.43335496
N       -1.82850669       0.19343620      -0.49934652
H       -0.89652740       1.56616956       1.30335269
H        1.21357331       1.10357878      -0.41913263
H        1.96436103      -1.63440031      -0.53348348
H        0.93554866      -0.36364657       0.90733461
H       -2.37657993      -0.56570811      -0.89201127
11
Frame=4 idx=001675 GeodesicLength=0.21710569730658355 rxn_smarts="[O:1]([C@@:2]1([H:8])[C:3]([H:9])([H:10])[O:4]/[C:5]1=[N:6]\[H:11])[H:7]>>[O:1]([C:2](/[C:5]([O+:4]=[C-:3][H:9])=[N:6]/[H:11])([H:8])[H:10])[H:7]"
O        0.04813852       1.66932882       1.13487194
C        0.45184877       0.70949422       0.26219623
C        1.06443539      -1.42033631       0.04659027
O        0.04380018      -1.20122573      -0.85679800
C       -0.61034718      -0.08040434      -0.42864844
N       -1.82785992       0.19648063      -0.50506654
H       -0.90208905       1.58704821       1.27919498
H        1.20754753       1.10299241      -0.41884654
H        1.96536268      -1.63087216      -0.55788301
H        0.93725858      -0.36993498       0.93962084
H       -2.37809552      -0.56257076      -0.89523173
11
Frame=5 idx=001675 GeodesicLength=0.27131047135708003 rxn_smarts="[O:1]([C@@:2]1([H:8])[C:3]([H:9])([H:10])[O:4]/[C:5]1=[N:6]\[H:11])[H:7]>>[O:1]([C:2](/[C:5]([O+:4]=[C-:3][H:9])=[N:6]/[H:11])([H:8])[H:10])[H:7]"
O        0.05078526       1.65621344       1.14730216
C        0.45548706       0.69841058       0.26836053
C        1.07893602      -1.40177654       0.03712938
O        0.03300871      -1.21568827      -0.84335720
C       -0.61226694      -0.08440667      -0.42426142
N       -1.82701461       0.19913752      -0.51048212
H       -0.90633039       1.60789194       1.25448664
H        1.20061434       1.10357390      -0.41831143
H        1.96509727      -1.62816859      -0.58171459
H        0.94074456      -0.37586602       0.97030924
H       -2.37906127      -0.55932129      -0.89946120
11
Frame=6 idx=001675 GeodesicLength=0.3255111104287078 rxn_smarts="[O:1]([C@@:2]1([H:8])[C:3]([H:9])([H:10])[O:4]/[C:5]1=[N:6]\[H:11])[H:7]>>[O:1]([C:2](/[C:5]([O+:4]=[C-:3][H:9])=[N:6]/[H:11])([H:8])[H:10])[H:7]"
O        0.05225481       1.64223809       1.16051803
C        0.45898451       0.68760147       0.27452893
C        1.09260035      -1.38288787       0.02744416
O        0.02233757      -1.23024969      -0.82899327
C       -0.61400940      -0.08803907      -0.42056641
N       -1.82615126       0.20141930      -0.51569106
H       -0.90921096       1.62882204       1.22940276
H        1.19319857       1.10521179      -0.41730786
H        1.96381945      -1.62624375      -0.60462594
H        0.94587169      -0.38152348       0.99943196
H       -2.37969536      -0.55634884      -0.90414130
11
Frame=7 idx=001675 GeodesicLength=0.3797878823120606 rxn_smarts="[O:1]([C@@:2]1([H:8])[C:3]([H:9])([H:10])[O:4]/[C:5]1=[N:6]\[H:11])[H:7]>>[O:1]([C:2](/[C:5]([O+:4]=[C-:3][H:9])=[N:6]/[H:11])([H:8])[H:10])[H:7]"
O        0.05259065       1.62766314       1.17429322
C        0.46227893       0.67713070       0.28061625
C        1.10568734      -1.36363826       0.01764403
O        0.01154314      -1.24526985      -0.81293931
C       -0.61578594      -0.09161848      -0.41699438
N       -1.82559362       0.20285574      -0.51967850
H       -0.91046807       1.64966224       1.20448416
H        1.18493267       1.10780997      -0.41625700
H        1.96142774      -1.62512401      -0.62689483
H        0.95314212      -0.38652304       1.02707571
H       -2.37975497      -0.55294815      -0.91134934
11
Frame=8 idx=001675 GeodesicLength=0.43400518015865686 rxn_smarts="[O:1]([C@@:2]1([H:8])[C:3]([H:9])([H:10])[O:4]/[C:5]1=[N:6]\[H:11])[H:7]>>[O:1]([C:2](/[C:5]([O+:4]=[C-:3][H:9])=[N:6]/[H:11])([H:8])[H:10])[H:7]"
O        0.05171925       1.61240931       1.18847920
C        0.46535880       0.66699406       0.28657489
C        1.11795872      -1.34415505       0.00762646
O        0.00070127      -1.26050005      -0.79537535
C       -0.61753248      -0.09502115      -0.41373996
N       -1.82529400       0.20349046      -0.52251326
H       -0.91004411       1.67035508       1.17965861
H        1.17593820       1.11132408      -0.41499207
H        1.95791564      -1.62463150      -0.64830917
H        0.96243800      -0.39096926       1.05322131
H       -2.37915928      -0.54929597      -0.92063066
11
Frame=9 idx=001675 GeodesicLength=0.48825993815182767 rxn_smarts="[O:1]([C@@:2]1([H:8])[C:3]([H:9])([H:10])[O:4]/[C:5]1=[N:6]\[H:11])[H:7]>>[O:1]([C:2](/[C:5]([O+:4]=[C-:3][H:9])=[N:6]/[H:11])([H:8])[H:10])[H:7]"
O        0.04933956       1.59661179       1.20276689
C        0.46833414       0.65731794       0.29226301
C        1.12911820      -1.32451498      -0.00273453
O       -0.00990332      -1.27544447      -0.77710660
C       -0.61890236      -0.09767442      -0.41190776
N       -1.82487743       0.20412119      -0.52578915
H       -0.90829077       1.69013668       1.15526723
H        1.16704128       1.11571246      -0.41304447
H        1.95336528      -1.62502175      -0.66843606
H        0.97307610      -0.39495085       1.07795528
H       -2.37830068      -0.54629358      -0.92923385
11
Frame=10 idx=001675 GeodesicLength=0.5425434580757604 rxn_smarts="[O:1]([C@@:2]1([H:8])[C:3]([H:9])([H:10])[O:4]/[C:5]1=[N:6]\[H:11])[H:7]>>[O:1]([C:2](/[C:5]([O+:4]=[C-:3][H:9])=[N:6]/[H:11])([H:8])[H:10])[H:7]"
O        0.04559837       1.58041520       1.21694604
C        0.47118035       0.64812373       0.29758493
C        1.13920336      -1.30478677      -0.01335746
O       -0.02038774      -1.29018366      -0.75782580
C       -0.62000361      -0.09973534      -0.41124502
N       -1.82450243       0.20453504      -0.52902994
H       -0.90520027       1.70881750       1.13174617
H        1.15808933       1.12087699      -0.41069486
H        1.94780760      -1.62621442      -0.68726095
H        0.98530230      -0.39827225       1.10128383
H       -2.37708727      -0.54357603      -0.93814695
11
Frame=11 idx=001675 GeodesicLength=0.5968630908641537 rxn_smarts="[O:1]([C@@:2]1([H:8])[C:3]([H:9])([H:10])[O:4]/[C:5]1=[N:6]\[H:11])[H:7]>>[O:1]([C:2](/[C:5]([O+:4]=[C-:3][H:9])=[N:6]/[H:11])([H:8])[H:10])[H:7]"
O        0.04054466       1.56394505       1.23077517
C        0.47392742       0.63946909       0.30242447
C        1.14814719      -1.28501992      -0.02423205
O       -0.03071115      -1.30454723      -0.73764735
C       -0.62074858      -0.10108479      -0.41200498
N       -1.82403557       0.20499147      -0.53271449
H       -0.90104483       1.72592062       1.10951999
H        1.14929601       1.12675599      -0.40795985
H        1.94126261      -1.62830677      -0.70460615
H        0.99899128      -0.40084052       1.12322639
H       -2.37562906      -0.54128299      -0.94678115
11
Frame=12 idx=001675 GeodesicLength=0.6512256940122807 rxn_smarts="[O:1]([C@@:2]1([H:8])[C:3]([H:9])([H:10])[O:4]/[C:5]1=[N:6]\[H:11])[H:7]>>[O:1]([C:2](/[C:5]([O+:4]=[C-:3][H:9])=[N:6]/[H:11])([H:8])[H:10])[H:7]"
O        0.03434129       1.54727506       1.24412335
C        0.47658270       0.63136015       0.30670806
C        1.15592395      -1.26530063      -0.03532057
O       -0.04089032      -1.31843198      -0.71658145
C       -0.62115843      -0.10175989      -0.41415353
N       -1.82347704       0.20554032      -0.53690524
H       -0.89604774       1.74125251       1.08889543
H        1.14069244       1.13324962      -0.40497444
H        1.93379272      -1.63128912      -0.72037136
H        1.01419501      -0.40254541       1.14379608
H       -2.37395458      -0.53935063      -0.95521633
11
Frame=13 idx=001675 GeodesicLength=0.7056342920741125 rxn_smarts="[O:1]([C@@:2]1([H:8])[C:3]([H:9])([H:10])[O:4]/[C:5]1=[N:6]\[H:11])[H:7]>>[O:1]([C:2](/[C:5]([O+:4]=[C-:3][H:9])=[N:6]/[H:11])([H:8])[H:10])[H:7]"
O        0.02706821       1.53042365       1.25689218
C        0.47917643       0.62380780       0.31038207
C        1.16248190      -1.24571566      -0.04664162
O       -0.05082429      -1.33156214      -0.69500575
C       -0.62113929      -0.10164219      -0.41794159
N       -1.82264013       0.20652764      -0.54224916
H       -0.89056391       1.75458446       1.07004018
H        1.13251413       1.14030614      -0.40166169
H        1.92550556      -1.63525693      -0.73434740
H        1.03070734      -0.40341418       1.16301978
H       -2.37228595      -0.53805859      -0.96248700
11
Frame=14 idx=001675 GeodesicLength=0.7600895679468143 rxn_smarts="[O:1]([C@@:2]1([H:8])[C:3]([H:9])([H:10])[O:4]/[C:5]1=[N:6]\[H:11])[H:7]>>[O:1]([C:2](/[C:5]([O+:4]=[C-:3][H:9])=[N:6]/[H:11])([H:8])[H:10])[H:7]"
O        0.01889762       1.51338525       1.26905288
C        0.48170989       0.61677958       0.31342348
C        1.16782650      -1.22635744      -0.05816738
O       -0.06048908      -1.34378487      -0.67312304
C       -0.62073051      -0.10079725      -0.42326960
N       -1.82152447       0.20799297      -0.54878470
H       -0.88480195       1.76593000       1.05304081
H        1.12475900       1.14783569      -0.39811223
H        1.91651919      -1.64019378      -0.74641889
H        1.04852739      -0.40341597       1.18092248
H       -2.37069357      -0.53737417      -0.96856382
11
Frame=15 idx=001675 GeodesicLength=0.8145882146505367 rxn_smarts="[O:1]([C@@:2]1([H:8])[C:3]([H:9])([H:10])[O:4]/[C:5]1=[N:6]\[H:11])[H:7]>>[O:1]([C:2](/[C:5]([O+:4]=[C-:3][H:9])=[N:6]/[H:11])([H:8])[H:10])[H:7]"
O        0.00999754       1.49614682       1.28058911
C        0.48418468       0.61023679       0.31581843
C        1.17197601      -1.20730724      -0.06987015
O       -0.06984074      -1.35494091      -0.65122888
C       -0.61997812      -0.09928963      -0.43002468
N       -1.82014156       0.20995671      -0.55650779
H       -0.87894154       1.77533671       1.03792320
H        1.11741307       1.15575517      -0.39440843
H        1.90697190      -1.64609030      -0.75644337
H        1.06760878      -0.40254680       1.19753533
H       -2.36925000      -0.53725733      -0.97338276
11
Frame=16 idx=001675 GeodesicLength=0.8691254221889594 rxn_smarts="[O:1]([C@@:2]1([H:8])[C:3]([H:9])([H:10])[O:4]/[C:5]1=[N:6]\[H:11])[H:7]>>[O:1]([C:2](/[C:5]([O+:4]=[C-:3][H:9])=[N:6]/[H:11])([H:8])[H:10])[H:7]"
O        0.00055063       1.47869977       1.29149729
C        0.48659985       0.60413166       0.31756105
C        1.17497016      -1.18863683      -0.08170965
O       -0.07885154      -1.36492453      -0.62960804
C       -0.61895943      -0.09721515      -0.43802276
N       -1.81855458       0.21236369      -0.56525698
H       -0.87310450       1.78290005       1.02467572
H        1.11041074       1.16397484      -0.39066570
H        1.89701304      -1.65290213      -0.76429401
H        1.08791400      -0.40080199       1.21289508
H       -2.36798838      -0.53758939      -0.97707200
