15
Frame=0 idx=008432 GeodesicLength=0.0 rxn_smarts="[C:1]1([H:8])([H:9])[C@@:2]2([H:10])[C@@:3]3([H:11])[O:4][C:5]([H:12])([H:13])[C@:6]1([H:14])[C@@:7]23[H:15]>>[C:1]1([H:8])([H:9])[C@:2]2([H:10])[C-:3]([H:11])[O+:4]=[C:5]([H:12])[C@@:6]1([H:14])[C:7]2([H:13])[H:15]"
C        0.79086638       1.15077536       0.21868428
C        1.15876523      -0.27650951      -0.15548455
C        0.40085017      -1.27280809       0.61174193
O       -0.65642156      -0.96503652       1.30242799
C       -1.48542681      -0.02569399       0.61808154
C       -0.62823343       0.81135660      -0.31406392
C       -0.08097022      -0.40640532      -1.07754462
H        0.88350263       1.45125333       1.26337373
H        1.31246206       1.86187536      -0.42096126
H        2.15707811      -0.57952497      -0.45269175
H        0.72466115      -2.30627111       0.68259245
H       -2.14325670       0.43765325       1.35380419
H       -1.25704085      -0.92911895      -0.62391280
H       -1.20825499       1.55603756      -0.85602084
H        0.03141890      -0.50758305      -2.15002636
15
Frame=1 idx=008432 GeodesicLength=0.05107296667193152 rxn_smarts="[C:1]1([H:8])([H:9])[C@@:2]2([H:10])[C@@:3]3([H:11])[O:4][C:5]([H:12])([H:13])[C@:6]1([H:14])[C@@:7]23[H:15]>>[C:1]1([H:8])([H:9])[C@:2]2([H:10])[C-:3]([H:11])[O+:4]=[C:5]([H:12])[C@@:6]1([H:14])[C:7]2([H:13])[H:15]"
C        0.79049393       1.14881844       0.21823104
C        1.16242559      -0.27787610      -0.15705504
C        0.40217825      -1.27352752       0.60974902
O       -0.65420261      -0.96007959       1.30622867
C       -1.48346955      -0.02680105       0.62082173
C       -0.62830814       0.80958425      -0.31256813
C       -0.07836494      -0.40906684      -1.07562292
H        0.88164175       1.44978008       1.26292527
H        1.30871540       1.86058554      -0.42343092
H        2.16135952      -0.57932227      -0.45374401
H        0.72562315      -2.30628349       0.68631708
H       -2.14297285       0.43945257       1.35202611
H       -1.27608626      -0.93165594      -0.63002246
H       -1.20733275       1.55472434      -0.85472421
H        0.03829950      -0.49833244      -2.14913122
15
Frame=2 idx=008432 GeodesicLength=0.10151464010797143 rxn_smarts="[C:1]1([H:8])([H:9])[C@@:2]2([H:10])[C@@:3]3([H:11])[O:4][C:5]([H:12])([H:13])[C@:6]1([H:14])[C@@:7]23[H:15]>>[C:1]1([H:8])([H:9])[C@:2]2([H:10])[C-:3]([H:11])[O+:4]=[C:5]([H:12])[C@@:6]1([H:14])[C:7]2([H:13])[H:15]"
C        0.79014233       1.14684520       0.21778647
C        1.16613572      -0.27923730      -0.15861584
C        0.40352400      -1.27425179       0.60778492
O       -0.65194780      -0.95509392       1.31001064
C       -1.48152696      -0.02803942       0.62346920
C       -0.62836720       0.80777188      -0.31109457
C       -0.07577989      -0.41180898      -1.07370007
H        0.87976271       1.44829533       1.26247526
H        1.30498317       1.85926631      -0.42588690
H        2.16566826      -0.57907041      -0.45485675
H        0.72664063      -2.30623991       0.69009989
H       -2.14269492       0.44112662       1.35017389
H       -1.29525598      -0.93380121      -0.63616260
H       -1.20635562       1.55339371      -0.85341903
H        0.04507154      -0.48915611      -2.14806449
15
Frame=3 idx=008432 GeodesicLength=0.15131461963620482 rxn_smarts="[C:1]1([H:8])([H:9])[C@@:2]2([H:10])[C@@:3]3([H:11])[O:4][C:5]([H:12])([H:13])[C@:6]1([H:14])[C@@:7]23[H:15]>>[C:1]1([H:8])([H:9])[C@:2]2([H:10])[C-:3]([H:11])[O+:4]=[C:5]([H:12])[C@@:6]1([H:14])[C:7]2([H:13])[H:15]"
C        0.78982418       1.14488772       0.21736047
C        1.16992003      -0.28056344      -0.16015400
C        0.40492641      -1.27497148       0.60585107
O       -0.64966479      -0.95013537       1.31366257
C       -1.47960826      -0.02940553       0.62597083
C       -0.62838499       0.80595178      -0.30961343
C       -0.07316564      -0.41458172      -1.07176346
H        0.87788524       1.44681459       1.26205236
H        1.30125660       1.85795657      -0.42833171
H        2.17000690      -0.57878398      -0.45594760
H        0.72769355      -2.30615760       0.69388691
H       -2.14239721       0.44267145       1.34823603
H       -1.31453858      -0.93553708      -0.64228929
H       -1.20535478       1.55206364      -0.85211783
H        0.05160133      -0.48020955      -2.14680291
15
Frame=4 idx=008432 GeodesicLength=0.2007245507248971 rxn_smarts="[C:1]1([H:8])([H:9])[C@@:2]2([H:10])[C@@:3]3([H:11])[O:4][C:5]([H:12])([H:13])[C@:6]1([H:14])[C@@:7]23[H:15]>>[C:1]1([H:8])([H:9])[C@:2]2([H:10])[C-:3]([H:11])[O+:4]=[C:5]([H:12])[C@@:6]1([H:14])[C:7]2([H:13])[H:15]"
C        0.78952876       1.14293139       0.21692081
C        1.17375528      -0.28189282      -0.16171052
C        0.40636233      -1.27570060       0.60390571
O       -0.64736537      -0.94519883       1.31723931
C       -1.47770464      -0.03088005       0.62835023
C       -0.62836272       0.80409088      -0.30816052
C       -0.07053789      -0.41740475      -1.06985294
H        0.87600296       1.44534132       1.26161330
H        1.29754457       1.85661080      -0.43074239
H        2.17442379      -0.57840013      -0.45701451
H        0.72875341      -2.30604868       0.69769727
H       -2.14207887       0.44411767       1.34623585
H       -1.33402308      -0.93694432      -0.64828169
H       -1.20433761       1.55069811      -0.85083547
H        0.05803907      -0.47131998      -2.14536444
15
Frame=5 idx=008432 GeodesicLength=0.24922787436032365 rxn_smarts="[C:1]1([H:8])([H:9])[C@@:2]2([H:10])[C@@:3]3([H:11])[O:4][C:5]([H:12])([H:13])[C@:6]1([H:14])[C@@:7]23[H:15]>>[C:1]1([H:8])([H:9])[C@:2]2([H:10])[C-:3]([H:11])[O+:4]=[C:5]([H:12])[C@@:6]1([H:14])[C:7]2([H:13])[H:15]"
C        0.78924044       1.14096660       0.21648376
C        1.17764190      -0.28317123      -0.16319910
C        0.40787258      -1.27641572       0.60206425
O       -0.64506536      -0.94031496       1.32074576
C       -1.47581349      -0.03250415       0.63064588
C       -0.62833267       0.80219650      -0.30670689
C       -0.06793138      -0.42035218      -1.06791211
H        0.87410993       1.44387381       1.26118507
H        1.29386147       1.85523697      -0.43318801
H        2.17890318      -0.57796812      -0.45812948
H        0.72991040      -2.30593701       0.70149047
H       -2.14179419       0.44547426       1.34416969
H       -1.35357934      -0.93777537      -0.65440658
H       -1.20331468       1.54932442      -0.84954470
H        0.06429123      -0.46263382      -2.14369802
15
Frame=6 idx=008432 GeodesicLength=0.297163537425969 rxn_smarts="[C:1]1([H:8])([H:9])[C@@:2]2([H:10])[C@@:3]3([H:11])[O:4][C:5]([H:12])([H:13])[C@:6]1([H:14])[C@@:7]23[H:15]>>[C:1]1([H:8])([H:9])[C@:2]2([H:10])[C-:3]([H:11])[O+:4]=[C:5]([H:12])[C@@:6]1([H:14])[C:7]2([H:13])[H:15]"
C        0.78897322       1.13898581       0.21607751
C        1.18156359      -0.28439945      -0.16469732
C        0.40943223      -1.27710550       0.60024633
O       -0.64278249      -0.93546592       1.32415609
C       -1.47399446      -0.03422704       0.63278398
C       -0.62829183       0.80029052      -0.30524887
C       -0.06530944      -0.42331375      -1.06599729
H        0.87221999       1.44238872       1.26079020
H        1.29017879       1.85387164      -0.43555688
H        2.18338961      -0.57746075      -0.45927192
H        0.73111430      -2.30578187       0.70530027
H       -2.14142099       0.44672460       1.34207911
H       -1.37324071      -0.93825914      -0.66045389
H       -1.20221692       1.54793052      -0.84832370
H        0.07038512      -0.45417838      -2.14188363
15
Frame=7 idx=008432 GeodesicLength=0.3448511948053455 rxn_smarts="[C:1]1([H:8])([H:9])[C@@:2]2([H:10])[C@@:3]3([H:11])[O:4][C:5]([H:12])([H:13])[C@:6]1([H:14])[C@@:7]23[H:15]>>[C:1]1([H:8])([H:9])[C@:2]2([H:10])[C-:3]([H:11])[O+:4]=[C:5]([H:12])[C@@:6]1([H:14])[C:7]2([H:13])[H:15]"
C        0.78872717       1.13700045       0.21567462
C        1.18556778      -0.28562556      -0.16617866
C        0.41103230      -1.27782111       0.59841378
O       -0.64052557      -0.93065267       1.32745048
C       -1.47214449      -0.03606810       0.63486088
C       -0.62820865       0.79833378      -0.30384254
C       -0.06266508      -0.42634970      -1.06408672
H        0.87029592       1.44090841       1.26038110
H        1.28651045       1.85247442      -0.43794382
H        2.18794704      -0.57694863      -0.46042648
H        0.73241634      -2.30556489       0.70921466
H       -2.14107928       0.44791842       1.33992859
H       -1.39313260      -0.93840363      -0.66645328
H       -1.20113028       1.54650702      -0.84707102
H        0.07638893      -0.44570821      -2.13992158
15
Frame=8 idx=008432 GeodesicLength=0.3918457925546237 rxn_smarts="[C:1]1([H:8])([H:9])[C@@:2]2([H:10])[C@@:3]3([H:11])[O:4][C:5]([H:12])([H:13])[C@:6]1([H:14])[C@@:7]23[H:15]>>[C:1]1([H:8])([H:9])[C@:2]2([H:10])[C-:3]([H:11])[O+:4]=[C:5]([H:12])[C@@:6]1([H:14])[C:7]2([H:13])[H:15]"
C        0.78848787       1.13504644       0.21527063
C        1.18962661      -0.28677663      -0.16764241
C        0.41271556      -1.27852099       0.59663059
O       -0.63823884      -0.92588401       1.33067125
C       -1.47035399      -0.03800057       0.63676746
C       -0.62810559       0.79639852      -0.30240736
C       -0.05998156      -0.42936365      -1.06219987
H        0.86838285       1.43940811       1.26000264
H        1.28286700       1.85108607      -0.44027948
H        2.19253326      -0.57635995      -0.46160097
H        0.73369891      -2.30532890       0.71305893
H       -2.14072062       0.44894597       1.33771829
H       -1.41309719      -0.93807469      -0.67239843
H       -1.20000897       1.54503718      -0.84585903
H        0.08219470      -0.43761291      -2.13773225
15
Frame=9 idx=008432 GeodesicLength=0.438597747884742 rxn_smarts="[C:1]1([H:8])([H:9])[C@@:2]2([H:10])[C@@:3]3([H:11])[O:4][C:5]([H:12])([H:13])[C@:6]1([H:14])[C@@:7]23[H:15]>>[C:1]1([H:8])([H:9])[C@:2]2([H:10])[C-:3]([H:11])[O+:4]=[C:5]([H:12])[C@@:6]1([H:14])[C:7]2([H:13])[H:15]"
C        0.78823840       1.13308036       0.21489046
C        1.19370314      -0.28793302      -0.16908358
C        0.41444083      -1.27923728       0.59485924
O       -0.63599818      -0.92117824       1.33380139
C       -1.46859028      -0.04003924       0.63863913
C       -0.62800623       0.79440156      -0.30100560
C       -0.05719920      -0.43233015      -1.06039602
H        0.86642948       1.43792327       1.25962568
H        1.27924766       1.84967546      -0.44262725
H        2.19715667      -0.57573402      -0.46273051
H        0.73506999      -2.30509666       0.71691608
H       -2.14030330       0.45000925       1.33556101
H       -1.43323149      -0.93742278      -0.67827315
H       -1.19894412       1.54351527      -0.84466620
H        0.08798664      -0.42963378      -2.13551067
15
Frame=10 idx=008432 GeodesicLength=0.48468786779034595 rxn_smarts="[C:1]1([H:8])([H:9])[C@@:2]2([H:10])[C@@:3]3([H:11])[O:4][C:5]([H:12])([H:13])[C@:6]1([H:14])[C@@:7]23[H:15]>>[C:1]1([H:8])([H:9])[C@:2]2([H:10])[C-:3]([H:11])[O+:4]=[C:5]([H:12])[C@@:6]1([H:14])[C:7]2([H:13])[H:15]"
C        0.78800125       1.13110470       0.21453231
C        1.19780192      -0.28904905      -0.17050116
C        0.41620491      -1.27993997       0.59313544
O       -0.63380100      -0.91653983       1.33683222
C       -1.46685124      -0.04214754       0.64038752
C       -0.62786780       0.79238836      -0.29964024
C       -0.05437671      -0.43529463      -1.05861492
H        0.86448449       1.43640661       1.25926920
H        1.27563294       1.84827103      -0.44491701
H        2.20180084      -0.57505241      -0.46389044
H        0.73651347      -2.30479928       0.72075668
H       -2.13988413       0.45096973       1.33336156
H       -1.45341697      -0.93639716      -0.68403320
H       -1.19784155       1.54197414      -0.84351413
H        0.09359955      -0.42189470      -2.13316384
15
Frame=11 idx=008432 GeodesicLength=0.5301072768799283 rxn_smarts="[C:1]1([H:8])([H:9])[C@@:2]2([H:10])[C@@:3]3([H:11])[O:4][C:5]([H:12])([H:13])[C@:6]1([H:14])[C@@:7]23[H:15]>>[C:1]1([H:8])([H:9])[C@:2]2([H:10])[C-:3]([H:11])[O+:4]=[C:5]([H:12])[C@@:6]1([H:14])[C:7]2([H:13])[H:15]"
C        0.78779361       1.12909700       0.21418883
C        1.20196033      -0.29015953      -0.17193221
C        0.41807006      -1.28064705       0.59147933
O       -0.63155486      -0.91189647       1.33986066
C       -1.46513407      -0.04438999       0.64200231
C       -0.62769285       0.79034102      -0.29827794
C       -0.05158398      -0.43831043      -1.05682445
H        0.86250098       1.43490909       1.25892767
H        1.27206229       1.84683187      -0.44716937
H        2.20647207      -0.57430294      -0.46512282
H        0.73804976      -2.30444684       0.72466955
H       -2.13953714       0.45174280       1.33100381
H       -1.47369731      -0.93487478      -0.68984792
H       -1.19667071       1.54049031      -0.84231890
H        0.09896182      -0.41438407      -2.13063856
15
Frame=12 idx=008432 GeodesicLength=0.5750174792698929 rxn_smarts="[C:1]1([H:8])([H:9])[C@@:2]2([H:10])[C@@:3]3([H:11])[O:4][C:5]([H:12])([H:13])[C@:6]1([H:14])[C@@:7]23[H:15]>>[C:1]1([H:8])([H:9])[C@:2]2([H:10])[C-:3]([H:11])[O+:4]=[C:5]([H:12])[C@@:6]1([H:14])[C:7]2([H:13])[H:15]"
C        0.78757870       1.12711237       0.21383471
C        1.20614296      -0.29123605      -0.17334669
C        0.41996873      -1.28135922       0.58982700
O       -0.62931800      -0.90726848       1.34281981
C       -1.46345848      -0.04673759       0.64350357
C       -0.62751463       0.78828167      -0.29695112
C       -0.04875824      -0.44133292      -1.05506936
H        0.86052689       1.43336573       1.25859973
H        1.26847362       1.84539330      -0.44934398
H        2.21116267      -0.57348564      -0.46635049
H        0.73962998      -2.30407136       0.72857481
H       -2.13910870       0.45245706       1.32866195
H       -1.49407785      -0.93296772      -0.69560051
H       -1.19549386       1.53893473      -0.84118186
H        0.10424622      -0.40708588      -2.12797755
15
Frame=13 idx=008432 GeodesicLength=0.6194877984676521 rxn_smarts="[C:1]1([H:8])([H:9])[C@@:2]2([H:10])[C@@:3]3([H:11])[O:4][C:5]([H:12])([H:13])[C@:6]1([H:14])[C@@:7]23[H:15]>>[C:1]1([H:8])([H:9])[C@:2]2([H:10])[C-:3]([H:11])[O+:4]=[C:5]([H:12])[C@@:6]1([H:14])[C:7]2([H:13])[H:15]"
C        0.78735004       1.12513646       0.21347330
C        1.21037882      -0.29229129      -0.17476470
C        0.42195805      -1.28206859       0.58823353
O       -0.62709909      -0.90268863       1.34572575
C       -1.46184236      -0.04921297       0.64486978
C       -0.62736677       0.78613825      -0.29562760
C       -0.04590598      -0.44444269      -1.05328563
H        0.85851056       1.43182985       1.25828135
H        1.26490619       1.84390872      -0.45152646
H        2.21591650      -0.57265212      -0.46759168
H        0.74129106      -2.30366573       0.73258076
H       -2.13861489       0.45307751       1.32632302
H       -1.51466177      -0.93058757      -0.70131203
H       -1.19431516       1.53735719      -0.84005244
H        0.10949479      -0.39983839      -2.12532693
15
Frame=14 idx=008432 GeodesicLength=0.6633383549400304 rxn_smarts="[C:1]1([H:8])([H:9])[C@@:2]2([H:10])[C@@:3]3([H:11])[O:4][C:5]([H:12])([H:13])[C@:6]1([H:14])[C@@:7]23[H:15]>>[C:1]1([H:8])([H:9])[C@:2]2([H:10])[C-:3]([H:11])[O+:4]=[C:5]([H:12])[C@@:6]1([H:14])[C:7]2([H:13])[H:15]"
C        0.78712111       1.12315156       0.21311287
C        1.21463003      -0.29331221      -0.17613456
C        0.42402582      -1.28277197       0.58668626
O       -0.62491164      -0.89814975       1.34854551
C       -1.46027769      -0.05184042       0.64609727
C       -0.62720796       0.78396568      -0.29431097
C       -0.04304855      -0.44757398      -1.05149992
H        0.85647130       1.43031214       1.25794715
H        1.26134944       1.84239428      -0.45370988
H        2.22069549      -0.57176712      -0.46882198
H        0.74301982      -2.30324336       0.73656873
H       -2.13807580       0.45358716       1.32399730
H       -1.53532591      -0.92775282      -0.70695442
H       -1.19309093       1.53576096      -0.83898514
H        0.11462545      -0.39276014      -2.12253822
15
Frame=15 idx=008432 GeodesicLength=0.7063747484576031 rxn_smarts="[C:1]1([H:8])([H:9])[C@@:2]2([H:10])[C@@:3]3([H:11])[O:4][C:5]([H:12])([H:13])[C@:6]1([H:14])[C@@:7]23[H:15]>>[C:1]1([H:8])([H:9])[C@:2]2([H:10])[C-:3]([H:11])[O+:4]=[C:5]([H:12])[C@@:6]1([H:14])[C:7]2([H:13])[H:15]"
C        0.78689577       1.12118808       0.21276132
C        1.21893476      -0.29429302      -0.17750414
C        0.42618099      -1.28344075       0.58522580
O       -0.62275118      -0.89373685       1.35127963
C       -1.45876647      -0.05459927       0.64716929
C       -0.62700702       0.78178844      -0.29305144
C       -0.04017176      -0.45072698      -1.04974096
H        0.85438798       1.42879090       1.25763631
H        1.25782128       1.84083349      -0.45583162
H        2.22549874      -0.57080723      -0.47007244
H        0.74486877      -2.30281976       0.74049782
H       -2.13755534       0.45401428       1.32158855
H       -1.55603915      -0.92433951      -0.71243176
H       -1.19187525       1.53415689      -0.83794230
H        0.11957787      -0.38600870      -2.11958403
15
Frame=16 idx=008432 GeodesicLength=0.7491586676528886 rxn_smarts="[C:1]1([H:8])([H:9])[C@@:2]2([H:10])[C@@:3]3([H:11])[O:4][C:5]([H:12])([H:13])[C@:6]1([H:14])[C@@:7]23[H:15]>>[C:1]1([H:8])([H:9])[C@:2]2([H:10])[C-:3]([H:11])[O+:4]=[C:5]([H:12])[C@@:6]1([H:14])[C:7]2([H:13])[H:15]"
C        0.78668567       1.11917635       0.21239876
C        1.22329629      -0.29525855      -0.17886651
C        0.42843228      -1.28410981       0.58382216
O       -0.62054796      -0.88931049       1.35393406
C       -1.45728059      -0.05755783       0.64810321
C       -0.62680665       0.77951078      -0.29183729
C       -0.03724574      -0.45393043      -1.04799158
H        0.85228603       1.42725909       1.25731968
H        1.25428807       1.83924348      -0.45796617
H        2.23035589      -0.56974937      -0.47132144
H        0.74677683      -2.30233516       0.74456021
H       -2.13700295       0.45429737       1.31913651
H       -1.57704285      -0.92034960      -0.71794343
H       -1.19061632       1.53249887      -0.83684279
H        0.12442199      -0.37938470      -2.11650537
