12
Frame=0 idx=009752 GeodesicLength=0.0 rxn_smarts="[O:1]=[C:2]1[C:3]([H:8])([H:9])[C:4]([H:10])([H:11])[N:5]=[C:6]([H:12])[O:7]1>>[O:1]=[C:2]=[C:3]([C:4]([N:5]([C:6](=[O:7])[H:12])[H:8])([H:10])[H:11])[H:9]"
O       -1.01247272       2.43851143      -0.28506972
C       -0.73495587       1.31896570      -0.16820302
C       -1.10494127       0.03983446       0.22092707
C       -0.29440867      -1.08773076      -0.37280414
N        0.94205097      -0.94131479       0.42763196
C        1.56105276       0.19811748       0.11562807
O        1.02956637       1.13290295      -0.53885672
H        0.05162252      -0.33108214       1.15005310
H       -2.14784737      -0.06617907       0.49106419
H       -0.10082336      -1.02385626      -1.44580387
H       -0.74054407      -2.05053492      -0.13890063
H        2.55170068       0.37236587       0.54433367
12
Frame=1 idx=009752 GeodesicLength=0.05546197551233297 rxn_smarts="[O:1]=[C:2]1[C:3]([H:8])([H:9])[C:4]([H:10])([H:11])[N:5]=[C:6]([H:12])[O:7]1>>[O:1]=[C:2]=[C:3]([C:4]([N:5]([C:6](=[O:7])[H:12])[H:8])([H:10])[H:11])[H:9]"
O       -1.03086403       2.43545583      -0.30306694
C       -0.73722717       1.32127404      -0.16884932
C       -1.10505777       0.04156530       0.22601081
C       -0.29485600      -1.08454219      -0.37402038
N        0.94370393      -0.94051295       0.42232871
C        1.57036889       0.19331736       0.11156148
O        1.03919322       1.14052082      -0.52972039
H        0.04951318      -0.33699749       1.16708420
H       -2.14851180      -0.06689889       0.49249727
H       -0.10657028      -1.01689309      -1.44739939
H       -0.73978773      -2.04827669      -0.14122906
H        2.56009558       0.36198795       0.54480300
12
Frame=2 idx=009752 GeodesicLength=0.11086175297629816 rxn_smarts="[O:1]=[C:2]1[C:3]([H:8])([H:9])[C:4]([H:10])([H:11])[N:5]=[C:6]([H:12])[O:7]1>>[O:1]=[C:2]=[C:3]([C:4]([N:5]([C:6](=[O:7])[H:12])[H:8])([H:10])[H:11])[H:9]"
O       -1.04909994       2.43198373      -0.32122842
C       -0.73954779       1.32365320      -0.16950043
C       -1.10515895       0.04335683       0.23110385
C       -0.29529968      -1.08127436      -0.37525123
N        0.94530064      -0.93950770       0.41707051
C        1.57972138       0.18852331       0.10721694
O        1.04887066       1.14821428      -0.52029829
H        0.04723691      -0.34316062       1.18425484
H       -2.14912896      -0.06759065       0.49398953
H       -0.11230362      -1.00984359      -1.44896666
H       -0.73900084      -2.04594332      -0.14355777
H        2.56841018       0.35158888       0.54516714
12
Frame=3 idx=009752 GeodesicLength=0.16620201680797303 rxn_smarts="[O:1]=[C:2]1[C:3]([H:8])([H:9])[C:4]([H:10])([H:11])[N:5]=[C:6]([H:12])[O:7]1>>[O:1]=[C:2]=[C:3]([C:4]([N:5]([C:6](=[O:7])[H:12])[H:8])([H:10])[H:11])[H:9]"
O       -1.06715098       2.42810084      -0.33949839
C       -0.74192676       1.32610018      -0.17018528
C       -1.10525031       0.04520927       0.23619175
C       -0.29573524      -1.07793094      -0.37649060
N        0.94684075      -0.93828379       0.41187031
C        1.58910152       0.18374833       0.10259285
O        1.05859589       1.15597953      -0.51058507
H        0.04476734      -0.34957095       1.20156900
H       -2.14970688      -0.06825491       0.49551746
H       -0.11801259      -1.00272506      -1.45049963
H       -0.73817447      -2.04353823      -0.14587100
H        2.57665172       0.34116573       0.54538859
12
Frame=4 idx=009752 GeodesicLength=0.22149261243341037 rxn_smarts="[O:1]=[C:2]1[C:3]([H:8])([H:9])[C:4]([H:10])([H:11])[N:5]=[C:6]([H:12])[O:7]1>>[O:1]=[C:2]=[C:3]([C:4]([N:5]([C:6](=[O:7])[H:12])[H:8])([H:10])[H:11])[H:9]"
O       -1.08496469       2.42387856      -0.35767738
C       -0.74437957       1.32859246      -0.17100584
C       -1.10534267       0.04711877       0.24123025
C       -0.29615338      -1.07453268      -0.37772523
N        0.94832110      -0.93681765       0.40675718
C        1.59849575       0.17900889       0.09768199
O        1.06836307       1.16379474      -0.50062193
H        0.04206321      -0.35620368       1.21902208
H       -2.15026092      -0.06889243       0.49702012
H       -0.12367040      -0.99560404      -1.45198558
H       -0.73729279      -2.04107738      -0.14812360
H        2.58482128       0.33073444       0.54542792
12
Frame=5 idx=009752 GeodesicLength=0.27673097061470436 rxn_smarts="[O:1]=[C:2]1[C:3]([H:8])([H:9])[C:4]([H:10])([H:11])[N:5]=[C:6]([H:12])[O:7]1>>[O:1]=[C:2]=[C:3]([C:4]([N:5]([C:6](=[O:7])[H:12])[H:8])([H:10])[H:11])[H:9]"
O       -1.10253680       2.41931860      -0.37577595
C       -0.74691011       1.33113117      -0.17196002
C       -1.10543974       0.04908631       0.24621785
C       -0.29654998      -1.07107757      -0.37895132
N        0.94974297      -0.93509922       0.40174226
C        1.60789822       0.17431493       0.09248994
O        1.07817199       1.17166343      -0.49037729
H        0.03910190      -0.36307036       1.23662226
H       -2.15079615      -0.06950458       0.49848857
H       -0.12926942      -0.98847948      -1.45342169
H       -0.73634779      -2.03856078      -0.15031257
H        2.59293491       0.32027756       0.54523796
12
Frame=6 idx=009752 GeodesicLength=0.3319209886853531 rxn_smarts="[O:1]=[C:2]1[C:3]([H:8])([H:9])[C:4]([H:10])([H:11])[N:5]=[C:6]([H:12])[O:7]1>>[O:1]=[C:2]=[C:3]([C:4]([N:5]([C:6](=[O:7])[H:12])[H:8])([H:10])[H:11])[H:9]"
O       -1.11985034       2.41444906      -0.39374019
C       -0.74952384       1.33370896      -0.17307799
C       -1.10554699       0.05111128       0.25114050
C       -0.29691928      -1.06757125      -0.38016170
N        0.95110781      -0.93311477       0.39684038
C        1.61730048       0.16967855       0.08701716
O        1.08802033       1.17958059      -0.47984118
H        0.03585222      -0.37017290       1.25437446
H       -2.15132107      -0.07009228       0.49989593
H       -0.13479780      -0.98137275      -1.45480202
H       -0.73532842      -2.03599404      -0.15242032
H        2.60100691       0.30978953       0.54477498
12
Frame=7 idx=009752 GeodesicLength=0.38706627756320555 rxn_smarts="[O:1]=[C:2]1[C:3]([H:8])([H:9])[C:4]([H:10])([H:11])[N:5]=[C:6]([H:12])[O:7]1>>[O:1]=[C:2]=[C:3]([C:4]([N:5]([C:6](=[O:7])[H:12])[H:8])([H:10])[H:11])[H:9]"
O       -1.13689480       2.40932158      -0.41149197
C       -0.75222596       1.33631361      -0.17440242
C       -1.10567132       0.05319212       0.25597806
C       -0.29725327      -1.06402302      -0.38134742
N        0.95241556      -0.93084921       0.39207435
C        1.62669341       0.16511170       0.08126913
O        1.09790666       1.18753733      -0.46901173
H        0.03228041      -0.37750964       1.27228174
H       -2.15184583      -0.07065690       0.50120725
H       -0.14023650      -0.97431498      -1.45611909
H       -0.73422145      -2.03338546      -0.15442455
H        2.60905310       0.29926287       0.54398666
12
Frame=8 idx=009752 GeodesicLength=0.4421697455732451 rxn_smarts="[O:1]=[C:2]1[C:3]([H:8])([H:9])[C:4]([H:10])([H:11])[N:5]=[C:6]([H:12])[O:7]1>>[O:1]=[C:2]=[C:3]([C:4]([N:5]([C:6](=[O:7])[H:12])[H:8])([H:10])[H:11])[H:9]"
O       -1.15366955       2.40393946      -0.42905429
C       -0.75501700       1.33894564      -0.17592601
C       -1.10581515       0.05532991       0.26073259
C       -0.29754827      -1.06043063      -0.38250474
N        0.95367028      -0.92829455       0.38745069
C        1.63607024       0.16062439       0.07525026
O        1.10783056       1.19553722      -0.45785332
H        0.02836041      -0.38509572       1.29035317
H       -2.15237410      -0.07119925       0.50241640
H       -0.14558221      -0.96730393      -1.45737109
H       -0.73301873      -2.03073496      -0.15632219
H        2.61709352       0.28868242       0.54282852
12
Frame=9 idx=009752 GeodesicLength=0.49723640607446845 rxn_smarts="[O:1]=[C:2]1[C:3]([H:8])([H:9])[C:4]([H:10])([H:11])[N:5]=[C:6]([H:12])[O:7]1>>[O:1]=[C:2]=[C:3]([C:4]([N:5]([C:6](=[O:7])[H:12])[H:8])([H:10])[H:11])[H:9]"
O       -1.17017605       2.39837704      -0.44632908
C       -0.75789754       1.34158859      -0.17770195
C       -1.10598465       0.05752341       0.26537920
C       -0.29779555      -1.05680721      -0.38362344
N        0.95487319      -0.92543596       0.38299263
C        1.64542177       0.15622678       0.06896033
O        1.11779311       1.20356386      -0.44637408
H        0.02405741      -0.39292940       1.30858799
H       -2.15291522      -0.07171877       0.50348382
H       -0.15081600      -0.96038136      -1.45855057
H       -0.73170635      -2.02805353      -0.15808450
H        2.62514588       0.27804655       0.54125965
12
Frame=10 idx=009752 GeodesicLength=0.5522656044678648 rxn_smarts="[O:1]=[C:2]1[C:3]([H:8])([H:9])[C:4]([H:10])([H:11])[N:5]=[C:6]([H:12])[O:7]1>>[O:1]=[C:2]=[C:3]([C:4]([N:5]([C:6](=[O:7])[H:12])[H:8])([H:10])[H:11])[H:9]"
O       -1.18641587       2.39261968      -0.46338400
C       -0.76086391       1.34424886      -0.17969786
C       -1.10618109       0.05977438       0.26992958
C       -0.29799184      -1.05314564      -0.38470043
N        0.95602984      -0.92226747       0.37870394
C        1.65474135       0.15192999       0.06241212
O        1.12779442       1.21162421      -0.43452414
H        0.01934582      -0.40103710       1.32699756
H       -2.15347132      -0.07221614       0.50441232
H       -0.15593781      -0.95353061      -1.45965607
H       -0.73027692      -2.02533749      -0.15971633
H        2.63322733       0.26733733       0.53922331
12
Frame=11 idx=009752 GeodesicLength=0.6072576149550659 rxn_smarts="[O:1]=[C:2]1[C:3]([H:8])([H:9])[C:4]([H:10])([H:11])[N:5]=[C:6]([H:12])[O:7]1>>[O:1]=[C:2]=[C:3]([C:4]([N:5]([C:6](=[O:7])[H:12])[H:8])([H:10])[H:11])[H:9]"
O       -1.20239395       2.38668722      -0.48022785
C       -0.76391187       1.34692459      -0.18191181
C       -1.10640679       0.06208408       0.27438271
C       -0.29813258      -1.04944634      -0.38572994
N        0.95714463      -0.91877971       0.37459342
C        1.66402083       0.14774464       0.05560791
O        1.13783586       1.21971346      -0.42227793
H        0.01419866      -0.40943862       1.34558604
H       -2.15404621      -0.07269034       0.50519127
H       -0.16094402      -0.94675730      -1.46068421
H       -0.72872109      -2.02258841      -0.16120897
H        2.64135652       0.25654672       0.53667935
12
Frame=12 idx=009752 GeodesicLength=0.6622235629979325 rxn_smarts="[O:1]=[C:2]1[C:3]([H:8])([H:9])[C:4]([H:10])([H:11])[N:5]=[C:6]([H:12])[O:7]1>>[O:1]=[C:2]=[C:3]([C:4]([N:5]([C:6](=[O:7])[H:12])[H:8])([H:10])[H:11])[H:9]"
O       -1.21812210       2.38062869      -0.49681641
C       -0.76703554       1.34960778      -0.18436523
C       -1.10666457       0.06445329       0.27872688
C       -0.29821030      -1.04571577      -0.38670348
N        0.95822200      -0.91496343       0.37067617
C        1.67325241       0.14368039       0.04855669
O        1.14792144       1.22782001      -0.40964184
H        0.00858178      -0.41814454       1.36435296
H       -2.15464418      -0.07313967       0.50579705
H       -0.16582256      -0.94008488      -1.46162956
H       -0.72702749      -2.01981219      -0.16254420
H        2.64954911       0.24567031       0.53359096
12
Frame=13 idx=009752 GeodesicLength=0.7171611490098783 rxn_smarts="[O:1]=[C:2]1[C:3]([H:8])([H:9])[C:4]([H:10])([H:11])[N:5]=[C:6]([H:12])[O:7]1>>[O:1]=[C:2]=[C:3]([C:4]([N:5]([C:6](=[O:7])[H:12])[H:8])([H:10])[H:11])[H:9]"
O       -1.23359990       2.37443294      -0.51320856
C       -0.77022813       1.35230364      -0.18703025
C       -1.10695359       0.06688452       0.28297336
C       -0.29822329      -1.04194874      -0.38761842
N        0.95926843      -0.91081282       0.36695075
C        1.68242689       0.13974856       0.04126060
O        1.15805281       1.23594180      -0.39657655
H        0.00247330      -0.42718388       1.38330400
H       -2.15526434      -0.07356220       0.50623616
H       -0.17057982      -0.93350183      -1.46249170
H       -0.72519015      -2.01700585      -0.16372300
H        2.65781779       0.23470386       0.52992361
12
Frame=14 idx=009752 GeodesicLength=0.772065128507215 rxn_smarts="[O:1]=[C:2]1[C:3]([H:8])([H:9])[C:4]([H:10])([H:11])[N:5]=[C:6]([H:12])[O:7]1>>[O:1]=[C:2]=[C:3]([C:4]([N:5]([C:6](=[O:7])[H:12])[H:8])([H:10])[H:11])[H:9]"
O       -1.24882844       2.36810757      -0.52942725
C       -0.77348109       1.35501434      -0.18989423
C       -1.10727429       0.06938046       0.28712575
C       -0.29816763      -1.03814383      -0.38846857
N        0.96028967      -0.90631951       0.36342288
C        1.69153419       0.13596225       0.03372498
O        1.16823388       1.24407115      -0.38306127
H       -0.00415280      -0.43658528       1.40243887
H       -2.15590804      -0.07395509       0.50650361
H       -0.17521592      -0.92700943      -1.46326694
H       -0.72320080      -2.01416905      -0.16473796
H        2.66617127       0.22364642       0.52564014
12
Frame=15 idx=009752 GeodesicLength=0.8269356395761264 rxn_smarts="[O:1]=[C:2]1[C:3]([H:8])([H:9])[C:4]([H:10])([H:11])[N:5]=[C:6]([H:12])[O:7]1>>[O:1]=[C:2]=[C:3]([C:4]([N:5]([C:6](=[O:7])[H:12])[H:8])([H:10])[H:11])[H:9]"
O       -1.26381283       2.36165348      -0.54550782
C       -0.77678547       1.35774416      -0.19293736
C       -1.10762550       0.07194433       0.29119141
C       -0.29804026      -1.03429763      -0.38924893
N        0.96129187      -0.90147743       0.36009500
C        1.70056457       0.13233379       0.02595720
O        1.17846944       1.25220090      -0.36908172
H       -0.01131945      -0.44637895       1.42175591
H       -2.15657427      -0.07431538       0.50660137
H       -0.17973374      -0.92060351      -1.46395260
H       -0.72105294      -2.01129985      -0.16558514
H        2.67461858       0.21249609       0.52071270
12
Frame=16 idx=009752 GeodesicLength=0.8817755560287236 rxn_smarts="[O:1]=[C:2]1[C:3]([H:8])([H:9])[C:4]([H:10])([H:11])[N:5]=[C:6]([H:12])[O:7]1>>[O:1]=[C:2]=[C:3]([C:4]([N:5]([C:6](=[O:7])[H:12])[H:8])([H:10])[H:11])[H:9]"
O       -1.27855345       2.35510457      -0.56141606
C       -0.78013136       1.36048834      -0.19617288
C       -1.10800669       0.07457791       0.29516398
C       -0.29783638      -1.03041574      -0.38995285
N        0.96228143      -0.89628044       0.35697146
C        1.70950692       0.12887514       0.01796177
O        1.18876538       1.26031157      -0.35465799
H       -0.01905403      -0.45658175       1.44124832
H       -2.15726267      -0.07463926       0.50651716
H       -0.18413150      -0.91430431      -1.46454546
H       -0.71873800      -2.00840275      -0.16624800
H        2.68316036       0.20126671       0.51513055
