9
Frame=0 idx=000012 GeodesicLength=0.0 rxn_smarts="[O:1]([c+:2]1[n-:3][c:4]([H:8])[n:5][n:6]1[H:9])[H:7]>>[O:1]([c:2]1[n:3]([H:9])[c:4]([H:8])[n:5][n:6]1)[H:7]"
O       -1.96869486      -0.11456209      -0.11695011
C       -0.64785260       0.03235838       0.06014375
N        0.26763285      -0.93827617      -0.16409212
C        1.37859648      -0.23694470      -0.27175490
N        1.23851132       1.09374387      -0.11351538
N       -0.04978718       1.32080120       0.04811382
H       -2.15168084      -1.05791200      -0.16887167
H        2.34936276      -0.68333075      -0.43514073
H       -0.41608796       0.58412230       1.16206735
9
Frame=1 idx=000012 GeodesicLength=0.09460167453893142 rxn_smarts="[O:1]([c+:2]1[n-:3][c:4]([H:8])[n:5][n:6]1[H:9])[H:7]>>[O:1]([c:2]1[n:3]([H:9])[c:4]([H:8])[n:5][n:6]1)[H:7]"
O       -1.97621625      -0.11499761      -0.09711249
C       -0.65337941       0.03571461       0.05028717
N        0.27262898      -0.93685100      -0.09971780
C        1.37663373      -0.23344684      -0.28440795
N        1.23436226       1.09644435      -0.14281609
N       -0.05483823       1.31612760       0.04990982
H       -2.15461990      -1.05243768      -0.22262796
H        2.34805389      -0.68240715      -0.43855649
H       -0.39262506       0.57185372       1.18504179
9
Frame=2 idx=000012 GeodesicLength=0.18935419173846518 rxn_smarts="[O:1]([c+:2]1[n-:3][c:4]([H:8])[n:5][n:6]1[H:9])[H:7]>>[O:1]([c:2]1[n:3]([H:9])[c:4]([H:8])[n:5][n:6]1)[H:7]"
O       -1.98121339      -0.11870269      -0.07575687
C       -0.65794598       0.03752509       0.04144151
N        0.27719121      -0.93104759      -0.04136334
C        1.37338364      -0.23084919      -0.29368232
N        1.22812270       1.09738960      -0.17259070
N       -0.06043194       1.30969794       0.05039248
H       -2.15536532      -1.04330956      -0.27596820
H        2.34456719      -0.68144821      -0.44029199
H       -0.36830811       0.56074462       1.20781943
9
Frame=3 idx=000012 GeodesicLength=0.28385723942689356 rxn_smarts="[O:1]([c+:2]1[n-:3][c:4]([H:8])[n:5][n:6]1[H:9])[H:7]>>[O:1]([c:2]1[n:3]([H:9])[c:4]([H:8])[n:5][n:6]1)[H:7]"
O       -1.98630145      -0.12586154      -0.05223104
C       -0.66255615       0.03776910       0.03364347
N        0.28175819      -0.92328628       0.01157326
C        1.37091605      -0.22905354      -0.30072232
N        1.22119304       1.09810490      -0.20338081
N       -0.06679279       1.30313527       0.05005700
H       -2.15743685      -1.03095650      -0.32960205
H        2.34257607      -0.68083488      -0.44015206
H       -0.34335611       0.55098346       1.23081455
9
Frame=4 idx=000012 GeodesicLength=0.37880213498538173 rxn_smarts="[O:1]([c+:2]1[n-:3][c:4]([H:8])[n:5][n:6]1[H:9])[H:7]>>[O:1]([c:2]1[n:3]([H:9])[c:4]([H:8])[n:5][n:6]1)[H:7]"
O       -1.99055455      -0.13914752      -0.02202852
C       -0.66711624       0.03571906       0.02892897
N        0.28673788      -0.91416977       0.06231732
C        1.36799117      -0.22802713      -0.30697421
N        1.21162807       1.09783033      -0.23794706
N       -0.07465900       1.29545758       0.04836070
H       -2.15969851      -1.01155285      -0.39082596
H        2.34095129      -0.67994119      -0.43673726
H       -0.31528010       0.54383150       1.25490604
9
Frame=5 idx=000012 GeodesicLength=0.4739724798652198 rxn_smarts="[O:1]([c+:2]1[n-:3][c:4]([H:8])[n:5][n:6]1[H:9])[H:7]>>[O:1]([c:2]1[n:3]([H:9])[c:4]([H:8])[n:5][n:6]1)[H:7]"
O       -1.99241943      -0.15253101       0.00107898
C       -0.67091974       0.03279975       0.02062423
N        0.29121307      -0.90314537       0.10508342
C        1.36567413      -0.22663629      -0.31140305
N        1.20183381       1.09638819      -0.26910766
N       -0.08223482       1.28639434       0.04677536
H       -2.16404982      -0.99031331      -0.43903516
H        2.33983976      -0.67745302      -0.43121405
H       -0.28893696       0.53449672       1.27719793
9
Frame=6 idx=000012 GeodesicLength=0.5688400947387189 rxn_smarts="[O:1]([c+:2]1[n-:3][c:4]([H:8])[n:5][n:6]1[H:9])[H:7]>>[O:1]([c:2]1[n:3]([H:9])[c:4]([H:8])[n:5][n:6]1)[H:7]"
O       -1.99420889      -0.16640732       0.01990195
C       -0.67470632       0.02905929       0.01054312
N        0.29556648      -0.89150615       0.14313558
C        1.36460276      -0.22517419      -0.31441344
N        1.19247900       1.09490424      -0.29786413
N       -0.08988302       1.27732527       0.04523950
H       -2.17124106      -0.96867966      -0.48027950
H        2.34033224      -0.67461478      -0.42513320
H       -0.26294118       0.52509330       1.29887010
9
Frame=7 idx=000012 GeodesicLength=0.6640198779622111 rxn_smarts="[O:1]([c+:2]1[n-:3][c:4]([H:8])[n:5][n:6]1[H:9])[H:7]>>[O:1]([c:2]1[n:3]([H:9])[c:4]([H:8])[n:5][n:6]1)[H:7]"
O       -1.99536143      -0.18308202       0.03877527
C       -0.67840088       0.02378126       0.00066217
N        0.29998303      -0.87933856       0.17899102
C        1.36395760      -0.22382584      -0.31660359
N        1.18219813       1.09271176      -0.32696461
N       -0.09816201       1.26743823       0.04324602
H       -2.18003232      -0.94351476      -0.52118362
H        2.34165176      -0.67107588      -0.41778963
H       -0.23583387       0.51690582       1.32086697
9
Frame=8 idx=000012 GeodesicLength=0.7593065745439269 rxn_smarts="[O:1]([c+:2]1[n-:3][c:4]([H:8])[n:5][n:6]1[H:9])[H:7]>>[O:1]([c:2]1[n:3]([H:9])[c:4]([H:8])[n:5][n:6]1)[H:7]"
O       -1.99506683      -0.19906846       0.05384060
C       -0.68156124       0.01763951      -0.01201761
N        0.30389948      -0.86660024       0.21017354
C        1.36368345      -0.22205308      -0.31806172
N        1.17170905       1.08994094      -0.35396370
N       -0.10639982       1.25653561       0.04102461
H       -2.19120818      -0.91775879      -0.55467529
H        2.34351695      -0.66604507      -0.40812061
H       -0.20857287       0.50740959       1.34180017
9
Frame=9 idx=000012 GeodesicLength=0.8545533545896736 rxn_smarts="[O:1]([c+:2]1[n-:3][c:4]([H:8])[n:5][n:6]1[H:9])[H:7]>>[O:1]([c:2]1[n:3]([H:9])[c:4]([H:8])[n:5][n:6]1)[H:7]"
O       -1.99493202      -0.21613236       0.06728947
C       -0.68473227       0.01038805      -0.02564718
N        0.30743666      -0.85389474       0.23914892
C        1.36448000      -0.22025785      -0.31879340
N        1.16170688       1.08726010      -0.37994518
N       -0.11484213       1.24561076       0.03869839
H       -2.20478291      -0.89123531      -0.58569273
H        2.34679677      -0.66074822      -0.39823609
H       -0.18113098       0.49900957       1.36317779
9
Frame=10 idx=000012 GeodesicLength=0.9499419915721422 rxn_smarts="[O:1]([c+:2]1[n-:3][c:4]([H:8])[n:5][n:6]1[H:9])[H:7]>>[O:1]([c:2]1[n:3]([H:9])[c:4]([H:8])[n:5][n:6]1)[H:7]"
O       -1.99327943      -0.23453874       0.07909695
C       -0.68746385       0.00174830      -0.04010087
N        0.31113081      -0.84024331       0.26665737
C        1.36497835      -0.21812938      -0.31842931
N        1.15024511       1.08323175      -0.40501812
N       -0.12412632       1.23280475       0.03573996
H       -2.21940194      -0.86162794      -0.61462752
H        2.34961181      -0.65415813      -0.38719311
H       -0.15169454       0.49091271       1.38387464
9
Frame=11 idx=000012 GeodesicLength=1.045043234841825 rxn_smarts="[O:1]([c+:2]1[n-:3][c:4]([H:8])[n:5][n:6]1[H:9])[H:7]>>[O:1]([c:2]1[n:3]([H:9])[c:4]([H:8])[n:5][n:6]1)[H:7]"
O       -1.99142341      -0.25381956       0.08921920
C       -0.69002858      -0.00813230      -0.05606680
N        0.31422462      -0.82670018       0.29212696
C        1.36633593      -0.21588746      -0.31755261
N        1.13923683       1.07925619      -0.42897531
N       -0.13370081       1.21970562       0.03262686
H       -2.23620851      -0.83104598      -0.64068117
H        2.35356844      -0.64707914      -0.37559183
H       -0.12200452       0.48370281       1.40489470
9
Frame=12 idx=000012 GeodesicLength=1.1401720875871466 rxn_smarts="[O:1]([c+:2]1[n-:3][c:4]([H:8])[n:5][n:6]1[H:9])[H:7]>>[O:1]([c:2]1[n:3]([H:9])[c:4]([H:8])[n:5][n:6]1)[H:7]"
O       -1.98879256      -0.27450266       0.09752411
C       -0.69230651      -0.01947408      -0.07307780
N        0.31714670      -0.81272254       0.31646898
C        1.36784997      -0.21340860      -0.31588135
N        1.12760258       1.07461898      -0.45195318
N       -0.14402855       1.20538784       0.02911033
H       -2.25455574      -0.79807488      -0.66469639
H        2.35774354      -0.63913886      -0.36325720
H       -0.09065944       0.47731478       1.42576249
9
Frame=13 idx=000012 GeodesicLength=1.2353959679021607 rxn_smarts="[O:1]([c+:2]1[n-:3][c:4]([H:8])[n:5][n:6]1[H:9])[H:7]>>[O:1]([c:2]1[n:3]([H:9])[c:4]([H:8])[n:5][n:6]1)[H:7]"
O       -1.98548533      -0.29619228       0.10387171
C       -0.69423479      -0.03220621      -0.09168551
N        0.31939837      -0.79856188       0.33932821
C        1.36961861      -0.21068655      -0.31365776
N        1.11588930       1.06969435      -0.47385232
N       -0.15484954       1.19015684       0.02530292
H       -2.27450243      -0.76348118      -0.68601056
H        2.36220932      -0.63040129      -0.35003341
H       -0.05804349       0.47167820       1.44673672
9
Frame=14 idx=000012 GeodesicLength=1.3305360037404979 rxn_smarts="[O:1]([c+:2]1[n-:3][c:4]([H:8])[n:5][n:6]1[H:9])[H:7]>>[O:1]([c:2]1[n:3]([H:9])[c:4]([H:8])[n:5][n:6]1)[H:7]"
O       -1.98175623      -0.31908442       0.10794295
C       -0.69589081      -0.04632182      -0.11152070
N        0.32103350      -0.78410416       0.36122488
C        1.37153895      -0.20776898      -0.31081637
N        1.10393754       1.06445359      -0.49463074
N       -0.16641164       1.17400373       0.02131449
H       -2.29559478      -0.72715606      -0.70501992
H        2.36686209      -0.62113376      -0.33633971
H       -0.02371862       0.46711189       1.46784512
9
Frame=15 idx=000012 GeodesicLength=1.425729425257309 rxn_smarts="[O:1]([c+:2]1[n-:3][c:4]([H:8])[n:5][n:6]1[H:9])[H:7]>>[O:1]([c:2]1[n:3]([H:9])[c:4]([H:8])[n:5][n:6]1)[H:7]"
O       -1.97760963      -0.34363328       0.10961678
C       -0.69723113      -0.06199452      -0.13244381
N        0.32188055      -0.76926812       0.38239803
C        1.37342827      -0.20464542      -0.30740632
N        1.09171269       1.05882486      -0.51440720
N       -0.17869460       1.15676592       0.01718575
H       -2.31767015      -0.68866532      -0.72193510
H        2.37146671      -0.61121169      -0.32210184
H        0.01271729       0.46382758       1.48909372
9
Frame=16 idx=000012 GeodesicLength=1.5207564528923863 rxn_smarts="[O:1]([c+:2]1[n-:3][c:4]([H:8])[n:5][n:6]1[H:9])[H:7]>>[O:1]([c:2]1[n:3]([H:9])[c:4]([H:8])[n:5][n:6]1)[H:7]"
O       -1.97276160      -0.36940931       0.10859501
C       -0.69814423      -0.07901876      -0.15470020
N        0.32184262      -0.75405746       0.40264783
C        1.37501419      -0.20136266      -0.30348451
N        1.07889229       1.05280639      -0.53302223
N       -0.19192429       1.13840343       0.01286272
H       -2.34012360      -0.64813807      -0.73607481
H        2.37574312      -0.60065456      -0.30687356
H        0.05146151       0.46143101       1.51004976
