9
Frame=0 idx=003612 GeodesicLength=0.0 rxn_smarts="[N:1]#[C:2][C@@:3]1([H:6])[C:4]([H:7])([H:8])[N:5]1[H:9]>>[N+:1](#[C-:2])[C@@:3]1([H:6])[C:4]([H:7])([H:8])[N:5]1[H:9]"
N        1.97627758      -0.06014952       0.19329440
C        1.59011946      -0.12411207      -0.92254454
C        0.23736942       0.55723366      -0.12543555
C       -0.95359220      -0.30629239      -0.25356704
N       -0.46527558       0.11586528       1.04510286
H        0.25715023       1.61636957      -0.32884564
H       -1.89102012       0.13638746      -0.57055411
H       -0.77659819      -1.32331122      -0.58337222
H        0.02556941      -0.61199078       1.54592183
9
Frame=1 idx=003612 GeodesicLength=0.034892607291234556 rxn_smarts="[N:1]#[C:2][C@@:3]1([H:6])[C:4]([H:7])([H:8])[N:5]1[H:9]>>[N+:1](#[C-:2])[C@@:3]1([H:6])[C:4]([H:7])([H:8])[N:5]1[H:9]"
N        1.97421915      -0.07914297       0.18698817
C        1.60451816      -0.10852106      -0.93321611
C        0.23973812       0.55626748      -0.12298048
C       -0.95216995      -0.30654424      -0.25289591
N       -0.46989203       0.12011567       1.04684878
H        0.25028017       1.61620415      -0.32598216
H       -1.88939784       0.13438112      -0.57268687
H       -0.77533450      -1.32534869      -0.57717904
H        0.01803873      -0.60741147       1.55110363
9
Frame=2 idx=003612 GeodesicLength=0.06977626004491236 rxn_smarts="[N:1]#[C:2][C@@:3]1([H:6])[C:4]([H:7])([H:8])[N:5]1[H:9]>>[N+:1](#[C-:2])[C@@:3]1([H:6])[C:4]([H:7])([H:8])[N:5]1[H:9]"
N        1.97186376      -0.09861874       0.18010251
C        1.61927441      -0.09238634      -0.94336864
C        0.24211751       0.55527707      -0.12048637
C       -0.95074099      -0.30682850      -0.25217180
N       -0.47453294       0.12440397       1.04859245
H        0.24336061       1.61591388      -0.32324273
H       -1.88773772       0.13234193      -0.57482480
H       -0.77410913      -1.32739038      -0.57094027
H        0.01050448      -0.60271290       1.55633966
9
Frame=3 idx=003612 GeodesicLength=0.10464475195762567 rxn_smarts="[N:1]#[C:2][C@@:3]1([H:6])[C:4]([H:7])([H:8])[N:5]1[H:9]>>[N+:1](#[C-:2])[C@@:3]1([H:6])[C:4]([H:7])([H:8])[N:5]1[H:9]"
N        1.96920349      -0.11853093       0.17260925
C        1.63441477      -0.07573219      -0.95292516
C        0.24450317       0.55425860      -0.11796340
C       -0.94931539      -0.30714240      -0.25139326
N       -0.47918620       0.12872019       1.05033031
H        0.23639287       1.61549007      -0.32065442
H       -1.88605108       0.13028102      -0.57694977
H       -0.77294907      -1.32943369      -0.56466293
H        0.00298745      -0.59791067       1.56160939
9
Frame=4 idx=003612 GeodesicLength=0.13948787441252977 rxn_smarts="[N:1]#[C:2][C@@:3]1([H:6])[C:4]([H:7])([H:8])[N:5]1[H:9]>>[N+:1](#[C-:2])[C@@:3]1([H:6])[C:4]([H:7])([H:8])[N:5]1[H:9]"
N        1.96623747      -0.13880917       0.16448640
C        1.64996522      -0.05860142      -0.96180449
C        0.24688948       0.55320656      -0.11542542
C       -0.94790646      -0.30748245      -0.25055938
N       -0.48383674       0.13305167       1.05205859
H        0.22937974       1.61492304      -0.31824703
H       -1.88435363       0.12821389      -0.57903828
H       -0.77188628      -1.33147503      -0.55835859
H       -0.00448880      -0.59302709       1.56688820
9
Frame=5 idx=003612 GeodesicLength=0.1742852056495387 rxn_smarts="[N:1]#[C:2][C@@:3]1([H:6])[C:4]([H:7])([H:8])[N:5]1[H:9]>>[N+:1](#[C-:2])[C@@:3]1([H:6])[C:4]([H:7])([H:8])[N:5]1[H:9]"
N        1.96297278      -0.15937037       0.15570938
C        1.66593810      -0.04104910      -0.96993159
C        0.24926968       0.55211667      -0.11288213
C       -0.94652768      -0.30784557      -0.24966814
N       -0.48847120       0.13738445       1.05377583
H        0.22232729       1.61420559      -0.31604278
H       -1.88265582       0.12615652      -0.58107918
H       -0.77095282      -1.33351267      -0.55203448
H       -0.01190034      -0.58808553       1.57215308
9
Frame=6 idx=003612 GeodesicLength=0.20901202812276484 rxn_smarts="[N:1]#[C:2][C@@:3]1([H:6])[C:4]([H:7])([H:8])[N:5]1[H:9]>>[N+:1](#[C-:2])[C@@:3]1([H:6])[C:4]([H:7])([H:8])[N:5]1[H:9]"
N        1.95943520      -0.18005389       0.14628507
C        1.68235267      -0.02318256      -0.97721980
C        0.25163490       0.55097546      -0.11036050
C       -0.94520255      -0.30822514      -0.24872048
N       -0.49306640       0.14169513       1.05547349
H        0.21524852       1.61331974      -0.31407546
H       -1.88098659       0.12413808      -0.58302742
H       -0.77019673      -1.33553578      -0.54571441
H       -0.01921902      -0.58313104       1.57735951
9
Frame=7 idx=003612 GeodesicLength=0.24371157470315616 rxn_smarts="[N:1]#[C:2][C@@:3]1([H:6])[C:4]([H:7])([H:8])[N:5]1[H:9]>>[N+:1](#[C-:2])[C@@:3]1([H:6])[C:4]([H:7])([H:8])[N:5]1[H:9]"
N        1.95557226      -0.20097360       0.13614959
C        1.69925692      -0.00490815      -0.98363165
C        0.25398288       0.54979017      -0.10786509
C       -0.94392545      -0.30862633      -0.24771759
N       -0.49762530       0.14600217       1.05714951
H        0.20813845       1.61227462      -0.31234823
H       -1.87934865       0.12213421      -0.58489029
H       -0.76961103      -1.33756148      -0.53936807
H       -0.02644009      -0.57813161       1.58252182
9
Frame=8 idx=003612 GeodesicLength=0.2783607982262208 rxn_smarts="[N:1]#[C:2][C@@:3]1([H:6])[C:4]([H:7])([H:8])[N:5]1[H:9]>>[N+:1](#[C-:2])[C@@:3]1([H:6])[C:4]([H:7])([H:8])[N:5]1[H:9]"
N        1.95140704      -0.22202644       0.12527112
C        1.71665023       0.01370542      -0.98910036
C        0.25630700       0.54855355      -0.10540147
C       -0.94271164      -0.30904713      -0.24665518
N       -0.50213780       0.15029070       1.05880666
H        0.20100343       1.61106071      -0.31087585
H       -1.87774611       0.12016552      -0.58667223
H       -0.76922915      -1.33959029      -0.53299466
H       -0.03354302      -0.57311203       1.58762197
9
Frame=9 idx=003612 GeodesicLength=0.3129793767124945 rxn_smarts="[N:1]#[C:2][C@@:3]1([H:6])[C:4]([H:7])([H:8])[N:5]1[H:9]>>[N+:1](#[C-:2])[C@@:3]1([H:6])[C:4]([H:7])([H:8])[N:5]1[H:9]"
N        1.94691923      -0.24317537       0.11363044
C        1.73458672       0.03264401      -0.99354987
C        0.25859986       0.54725920      -0.10300202
C       -0.94157423      -0.30948779      -0.24553673
N       -0.50658592       0.15455909       1.06043352
H        0.19384845       1.60967186      -0.30968655
H       -1.87621014       0.11823424      -0.58832550
H       -0.76907523      -1.34162312      -0.52660146
H       -0.04050873      -0.56808212       1.59263817
9
Frame=10 idx=003612 GeodesicLength=0.3475618974357601 rxn_smarts="[N:1]#[C:2][C@@:3]1([H:6])[C:4]([H:7])([H:8])[N:5]1[H:9]>>[N+:1](#[C-:2])[C@@:3]1([H:6])[C:4]([H:7])([H:8])[N:5]1[H:9]"
N        1.94209302      -0.26445892       0.10113146
C        1.75306671       0.05194859      -0.99691951
C        0.26085781       0.54590697      -0.10065085
C       -0.94051459      -0.30995472      -0.24435100
N       -0.51097815       0.15881123       1.06203833
H        0.18667370       1.60810391      -0.30877719
H       -1.87471681       0.11633433      -0.58990294
H       -0.76915850      -1.34367316      -0.52015210
H       -0.04732317      -0.56301824       1.59758381
9
Frame=11 idx=003612 GeodesicLength=0.38209193283576526 rxn_smarts="[N:1]#[C:2][C@@:3]1([H:6])[C:4]([H:7])([H:8])[N:5]1[H:9]>>[N+:1](#[C-:2])[C@@:3]1([H:6])[C:4]([H:7])([H:8])[N:5]1[H:9]"
N        1.93694931      -0.28568131       0.08781643
C        1.77213198       0.07148091      -0.99911489
C        0.26306697       0.54448367      -0.09840638
C       -0.93956199      -0.31044086      -0.24310767
N       -0.51527511       0.16302793       1.06359928
H        0.17950190       1.60634451      -0.30819268
H       -1.87333111       0.11448516      -0.59130139
H       -0.76952456      -1.34572447      -0.51368992
H       -0.05395737      -0.55797552       1.60239722
9
Frame=12 idx=003612 GeodesicLength=0.41659340391540406 rxn_smarts="[N:1]#[C:2][C@@:3]1([H:6])[C:4]([H:7])([H:8])[N:5]1[H:9]>>[N+:1](#[C-:2])[C@@:3]1([H:6])[C:4]([H:7])([H:8])[N:5]1[H:9]"
N        1.93146662      -0.30692414       0.07356356
C        1.79179767       0.09130780      -1.00007551
C        0.26522306       0.54299169      -0.09625335
C       -0.93871507      -0.31095383      -0.24179862
N       -0.51949156       0.16722166       1.06513360
H        0.17232073       1.60440044      -0.30792975
H       -1.87202993       0.11268176      -0.59258636
H       -0.77017047      -1.34780227      -0.50716847
H       -0.06040105      -0.55292311       1.60711490
9
Frame=13 idx=003612 GeodesicLength=0.4510962387692181 rxn_smarts="[N:1]#[C:2][C@@:3]1([H:6])[C:4]([H:7])([H:8])[N:5]1[H:9]>>[N+:1](#[C-:2])[C@@:3]1([H:6])[C:4]([H:7])([H:8])[N:5]1[H:9]"
N        1.92561637      -0.32821972       0.05827826
C        1.81211936       0.11146924      -0.99969418
C        0.26731798       0.54142686      -0.09421077
C       -0.93798412      -0.31149859      -0.24041996
N       -0.52362389       0.17139966       1.06664035
H        0.16512747       1.60226793      -0.30801315
H       -1.87082935       0.11091655      -0.59375355
H       -0.77111104      -1.34991653      -0.50056690
H       -0.06663278      -0.54784538       1.61173989
9
Frame=14 idx=003612 GeodesicLength=0.4855170586937088 rxn_smarts="[N:1]#[C:2][C@@:3]1([H:6])[C:4]([H:7])([H:8])[N:5]1[H:9]>>[N+:1](#[C-:2])[C@@:3]1([H:6])[C:4]([H:7])([H:8])[N:5]1[H:9]"
N        1.91941786      -0.34927695       0.04203706
C        1.83310186       0.13176195      -0.99785565
C        0.26933710       0.53977127      -0.09234973
C       -0.93740275      -0.31207001      -0.23897927
N       -0.52761021       0.17553573       1.06807061
H        0.15797761       1.59991905      -0.30847874
H       -1.86979890       0.10919147      -0.59466225
H       -0.77240613      -1.35203198      -0.49394299
H       -0.07261644      -0.54280053       1.61616096
9
Frame=15 idx=003612 GeodesicLength=0.5198921938859922 rxn_smarts="[N:1]#[C:2][C@@:3]1([H:6])[C:4]([H:7])([H:8])[N:5]1[H:9]>>[N+:1](#[C-:2])[C@@:3]1([H:6])[C:4]([H:7])([H:8])[N:5]1[H:9]"
N        1.91288564      -0.37017669       0.02467465
C        1.85473868       0.15223043      -0.99450608
C        0.27127146       0.53802947      -0.09064079
C       -0.93696863      -0.31267754      -0.23746555
N       -0.53148401       0.17964659       1.06947321
H        0.15083977       1.59738060      -0.30932293
H       -1.86889906       0.10752526      -0.59542902
H       -0.77403851      -1.35419465      -0.48724387
H       -0.07834534      -0.53776348       1.62046037
9
Frame=16 idx=003612 GeodesicLength=0.5543216609611976 rxn_smarts="[N:1]#[C:2][C@@:3]1([H:6])[C:4]([H:7])([H:8])[N:5]1[H:9]>>[N+:1](#[C-:2])[C@@:3]1([H:6])[C:4]([H:7])([H:8])[N:5]1[H:9]"
N        1.90586843      -0.39114775       0.00594909
C        1.87721404       0.17311018      -0.98935466
C        0.27311597       0.53618763      -0.08913378
C       -0.93669331      -0.31333263      -0.23586552
N       -0.53522564       0.18376279       1.07081192
H        0.14369292       1.59461227      -0.31061495
H       -1.86816679       0.10586421      -0.59600220
H       -0.77603284      -1.35640532      -0.48040811
H       -0.08377278      -0.53265138       1.62461821
