10
Frame=0 idx=008632 GeodesicLength=0.0 rxn_smarts="[N:1](=[C:2]1/[C:3]([H:9])=[C:4]([H:10])[C:5](=[O:6])[O:7]1)\[H:8]>>[N:1](=[C:2]1/[C:3]([H:9])([H:10])[C+:4]=[C:5]([O-:6])[O:7]1)\[H:8]"
N        2.03112348      -0.39579888      -0.00548921
C        0.82368046      -0.07921137       0.00154946
C       -0.34295675      -0.99512221       0.21403430
C       -1.55175851      -0.27523385       0.38480377
C       -1.07569180       1.14432419       0.01411278
O       -1.72345000       2.12780769      -0.08541927
O        0.30963911       1.17746911      -0.15761098
H        2.63768642       0.41058940      -0.13671940
H       -0.17818357      -2.00961425       0.56058445
H       -0.93008885      -1.10520983      -0.78984591
10
Frame=1 idx=008632 GeodesicLength=0.05942076102469379 rxn_smarts="[N:1](=[C:2]1/[C:3]([H:9])=[C:4]([H:10])[C:5](=[O:6])[O:7]1)\[H:8]>>[N:1](=[C:2]1/[C:3]([H:9])([H:10])[C+:4]=[C:5]([O-:6])[O:7]1)\[H:8]"
N        2.03351826      -0.39516906      -0.01453765
C        0.82556562      -0.08023521      -0.00723504
C       -0.33884352      -0.99659066       0.21115281
C       -1.54303703      -0.27445350       0.38618020
C       -1.07199230       1.14525561       0.02029053
O       -1.72459543       2.12372117      -0.09781892
O        0.31282015       1.17968785      -0.14902840
H        2.63980624       0.41506354      -0.12098191
H       -0.17196361      -2.00928093       0.56155380
H       -0.96127838      -1.10799880      -0.78957542
10
Frame=2 idx=008632 GeodesicLength=0.11884036652959737 rxn_smarts="[N:1](=[C:2]1/[C:3]([H:9])=[C:4]([H:10])[C:5](=[O:6])[O:7]1)\[H:8]>>[N:1](=[C:2]1/[C:3]([H:9])([H:10])[C+:4]=[C:5]([O-:6])[O:7]1)\[H:8]"
N        2.03596640      -0.39423415      -0.02343793
C        0.82747524      -0.08104246      -0.01600722
C       -0.33463254      -0.99802976       0.20791862
C       -1.53420806      -0.27369551       0.38744533
C       -1.06839042       1.14607335       0.02569868
O       -1.72548387       2.11954987      -0.10972266
O        0.31600034       1.18187853      -0.14052382
H        2.64178922       0.41922773      -0.10501240
H       -0.16551227      -2.00882350       0.56233338
H       -0.99300403      -1.11090409      -0.78869199
10
Frame=3 idx=008632 GeodesicLength=0.17826058847156617 rxn_smarts="[N:1](=[C:2]1/[C:3]([H:9])=[C:4]([H:10])[C:5](=[O:6])[O:7]1)\[H:8]>>[N:1](=[C:2]1/[C:3]([H:9])([H:10])[C+:4]=[C:5]([O-:6])[O:7]1)\[H:8]"
N        2.03849105      -0.39295549      -0.03155281
C        0.82943273      -0.08160596      -0.02436428
C       -0.33034693      -0.99944999       0.20434081
C       -1.52535329      -0.27301280       0.38834810
C       -1.06489770       1.14675490       0.03032202
O       -1.72613095       2.11533827      -0.12111296
O        0.31918901       1.18405252      -0.13182971
H        2.64360703       0.42302930      -0.08973286
H       -0.15892832      -2.00827294       0.56289449
H       -1.02506264      -1.11387781      -0.78731279
10
Frame=4 idx=008632 GeodesicLength=0.237672922763277 rxn_smarts="[N:1](=[C:2]1/[C:3]([H:9])=[C:4]([H:10])[C:5](=[O:6])[O:7]1)\[H:8]>>[N:1](=[C:2]1/[C:3]([H:9])([H:10])[C+:4]=[C:5]([O-:6])[O:7]1)\[H:8]"
N        2.04110134      -0.39135861      -0.03864406
C        0.83146031      -0.08191597      -0.03199670
C       -0.32601156      -1.00086466       0.20044122
C       -1.51653976      -0.27243888       0.38873254
C       -1.06151944       1.14728995       0.03418837
O       -1.72654321       2.11113210      -0.13199539
O        0.32237967       1.18620274      -0.12284308
H        2.64531011       0.42652090      -0.07560365
H       -0.15229714      -2.00765943       0.56322954
H       -1.05734032      -1.11690814      -0.78550878
10
Frame=5 idx=008632 GeodesicLength=0.2970921831741211 rxn_smarts="[N:1](=[C:2]1/[C:3]([H:9])=[C:4]([H:10])[C:5](=[O:6])[O:7]1)\[H:8]>>[N:1](=[C:2]1/[C:3]([H:9])([H:10])[C+:4]=[C:5]([O-:6])[O:7]1)\[H:8]"
N        2.04381782      -0.38951557      -0.04523913
C        0.83357594      -0.08202270      -0.03918884
C       -0.32160285      -1.00228124       0.19619292
C       -1.50770045      -0.27193768       0.38879578
C       -1.05822315       1.14769655       0.03737080
O       -1.72675934       2.10695747      -0.14241172
O        0.32555915       1.18828930      -0.11390107
H        2.64695023       0.42982205      -0.06181027
H       -0.14554579      -2.00698969       0.56331251
H       -1.09007157      -1.12001848      -0.78312097
10
Frame=6 idx=008632 GeodesicLength=0.35646753661880926 rxn_smarts="[N:1](=[C:2]1/[C:3]([H:9])=[C:4]([H:10])[C:5](=[O:6])[O:7]1)\[H:8]>>[N:1](=[C:2]1/[C:3]([H:9])([H:10])[C+:4]=[C:5]([O-:6])[O:7]1)\[H:8]"
N        2.04661933      -0.38744047      -0.05127859
C        0.83577920      -0.08192950      -0.04584095
C       -0.31713071      -1.00371001       0.19158950
C       -1.49883236      -0.27153319       0.38849597
C       -1.05497447       1.14796616       0.03993466
O       -1.72674983       2.10279466      -0.15245475
O        0.32872293       1.19031939      -0.10492840
H        2.64853053       0.43299797      -0.04849759
H       -0.13872689      -2.00628476       0.56309702
H       -1.12323772      -1.12318024      -0.78011688
10
Frame=7 idx=008632 GeodesicLength=0.41585487406009963 rxn_smarts="[N:1](=[C:2]1/[C:3]([H:9])=[C:4]([H:10])[C:5](=[O:6])[O:7]1)\[H:8]>>[N:1](=[C:2]1/[C:3]([H:9])([H:10])[C+:4]=[C:5]([O-:6])[O:7]1)\[H:8]"
N        2.04956662      -0.38510654      -0.05675402
C        0.83810617      -0.08165718      -0.05210614
C       -0.31258128      -1.00514494       0.18658266
C       -1.48990968      -0.27120701       0.38793246
C       -1.05176730       1.14810249       0.04192073
O       -1.72657956       2.09864961      -0.16212283
O        0.33187818       1.19226849      -0.09612706
H        2.65008985       0.43603466      -0.03542316
H       -0.13179639      -2.00554740       0.56250067
H       -1.15700660      -1.12639217      -0.77640332
10
Frame=8 idx=008632 GeodesicLength=0.47523606684260467 rxn_smarts="[N:1](=[C:2]1/[C:3]([H:9])=[C:4]([H:10])[C:5](=[O:6])[O:7]1)\[H:8]>>[N:1](=[C:2]1/[C:3]([H:9])([H:10])[C+:4]=[C:5]([O-:6])[O:7]1)\[H:8]"
N        2.05263234      -0.38256770      -0.06151921
C        0.84055613      -0.08121821      -0.05778279
C       -0.30796392      -1.00660628       0.18117604
C       -1.48094942      -0.27098208       0.38700906
C       -1.04858475       1.14811421       0.04339610
O       -1.72623837       2.09452967      -0.17150343
O        0.33501823       1.19414819      -0.08737749
H        2.65165122       0.43902326      -0.02289661
H       -0.12481158      -2.00482473       0.56149350
H       -1.19130986      -1.12961634      -0.77199517
10
Frame=9 idx=008632 GeodesicLength=0.5346094260702263 rxn_smarts="[N:1](=[C:2]1/[C:3]([H:9])=[C:4]([H:10])[C:5](=[O:6])[O:7]1)\[H:8]>>[N:1](=[C:2]1/[C:3]([H:9])([H:10])[C+:4]=[C:5]([O-:6])[O:7]1)\[H:8]"
N        2.05586162      -0.37984122      -0.06544373
C        0.84316172      -0.08063038      -0.06281103
C       -0.30328865      -1.00809999       0.17534910
C       -1.47197353      -0.27086681       0.38570434
C       -1.04542044       1.14799763       0.04440372
O       -1.72573871       2.09042619      -0.18063901
O        0.33814858       1.19595054      -0.07867319
H        2.65325148       0.44203234      -0.01104689
H       -0.11781836      -2.00414087       0.56001650
H       -1.22618372      -1.13282742      -0.76685980
10
Frame=10 idx=008632 GeodesicLength=0.5939743725094402 rxn_smarts="[N:1](=[C:2]1/[C:3]([H:9])=[C:4]([H:10])[C:5](=[O:6])[O:7]1)\[H:8]>>[N:1](=[C:2]1/[C:3]([H:9])([H:10])[C+:4]=[C:5]([O-:6])[O:7]1)\[H:8]"
N        2.05925920      -0.37693581      -0.06861581
C        0.84593106      -0.07991109      -0.06728530
C       -0.29854289      -1.00962600       0.16906443
C       -1.46294593      -0.27085677       0.38406988
C       -1.04225323       1.14775598       0.04497171
O       -1.72509164       2.08632842      -0.18956642
O        0.34126815       1.19767267      -0.07012020
H        2.65490370       0.44509848       0.00035383
H       -0.11079801      -2.00350985       0.55800119
H       -1.26173041      -1.13601602      -0.76087332
10
Frame=11 idx=008632 GeodesicLength=0.6533287826088597 rxn_smarts="[N:1](=[C:2]1/[C:3]([H:9])=[C:4]([H:10])[C:5](=[O:6])[O:7]1)\[H:8]>>[N:1](=[C:2]1/[C:3]([H:9])([H:10])[C+:4]=[C:5]([O-:6])[O:7]1)\[H:8]"
N        2.06283743      -0.37387171      -0.07090610
C        0.84887918      -0.07907654      -0.07115734
C       -0.29372853      -1.01118965       0.16229511
C       -1.45387046      -0.27096054       0.38207627
C       -1.03907377       1.14738604       0.04511905
O       -1.72429888       2.08222990      -0.19832975
O        0.34438084       1.19931547      -0.06168559
H        2.65663375       0.44828571       0.01118440
H       -0.10378045      -2.00295963       0.55537740
H       -1.29797912      -1.13915905      -0.75397346
10
Frame=12 idx=008632 GeodesicLength=0.7126754199660044 rxn_smarts="[N:1](=[C:2]1/[C:3]([H:9])=[C:4]([H:10])[C:5](=[O:6])[O:7]1)\[H:8]>>[N:1](=[C:2]1/[C:3]([H:9])([H:10])[C+:4]=[C:5]([O-:6])[O:7]1)\[H:8]"
N        2.06660552      -0.37065284      -0.07244873
C        0.85201496      -0.07814003      -0.07455504
C       -0.28882783      -1.01278532       0.15499269
C       -1.44470599      -0.27117040       0.37978023
C       -1.03586531       1.14689190       0.04485575
O       -1.72337889       2.07811712      -0.20696276
O        0.34748824       1.20088159      -0.05348945
H        2.65844464       0.45160804       0.02175385
H       -0.09673196      -2.00249961       0.55206185
H       -1.33504340      -1.14225045      -0.74598839
10
Frame=13 idx=008632 GeodesicLength=0.7720165052427593 rxn_smarts="[N:1](=[C:2]1/[C:3]([H:9])=[C:4]([H:10])[C:5](=[O:6])[O:7]1)\[H:8]>>[N:1](=[C:2]1/[C:3]([H:9])([H:10])[C+:4]=[C:5]([O-:6])[O:7]1)\[H:8]"
N        2.07057510      -0.36728641      -0.07324793
C        0.85535058      -0.07711258      -0.07752758
C       -0.28383085      -1.01440967       0.14711014
C       -1.43543272      -0.27148699       0.37719016
C       -1.03261690       1.14627382       0.04418556
O       -1.72234456       2.07397884      -0.21549946
O        0.35059536       1.20237581      -0.04558356
H        2.66034393       0.45509115       0.03217854
H       -0.08964551      -2.00214770       0.54796361
H       -1.37299442      -1.14527627      -0.73676948
10
Frame=14 idx=008632 GeodesicLength=0.8313508145238891 rxn_smarts="[N:1](=[C:2]1/[C:3]([H:9])=[C:4]([H:10])[C:5](=[O:6])[O:7]1)\[H:8]>>[N:1](=[C:2]1/[C:3]([H:9])([H:10])[C+:4]=[C:5]([O-:6])[O:7]1)\[H:8]"
N        2.07475987      -0.36378797      -0.07310923
C        0.85890247      -0.07600249      -0.07997430
C       -0.27874508      -1.01606700       0.13861479
C       -1.42607308      -0.27193027       0.37423779
C       -1.02932504       1.14552550       0.04311354
O       -1.72118856       2.06980840      -0.22399218
O        0.35370988       1.20380417      -0.03787541
H        2.66236284       0.45880215       0.04222869
H       -0.08257099      -2.00194185       0.54299748
H       -1.41183232      -1.14821063      -0.72624117
10
Frame=15 idx=008632 GeodesicLength=0.8906785981351336 rxn_smarts="[N:1](=[C:2]1/[C:3]([H:9])=[C:4]([H:10])[C:5](=[O:6])[O:7]1)\[H:8]>>[N:1](=[C:2]1/[C:3]([H:9])([H:10])[C+:4]=[C:5]([O-:6])[O:7]1)\[H:8]"
N        2.07920047      -0.36013344      -0.07227726
C        0.86269248      -0.07480823      -0.08211879
C       -0.27355782      -1.01775447       0.12942414
C       -1.41659453      -0.27249481       0.37101022
C       -1.02597553       1.14466393       0.04162911
O       -1.71994269       2.06559921      -0.23246311
O        0.35685710       1.20519823      -0.03056450
H        2.66452027       0.46272828       0.05243894
H       -0.07546820      -2.00189930       0.53704431
H       -1.45173154      -1.15109938      -0.71412307
10
Frame=16 idx=008632 GeodesicLength=0.9499577601662317 rxn_smarts="[N:1](=[C:2]1/[C:3]([H:9])=[C:4]([H:10])[C:5](=[O:6])[O:7]1)\[H:8]>>[N:1](=[C:2]1/[C:3]([H:9])([H:10])[C+:4]=[C:5]([O-:6])[O:7]1)\[H:8]"
N        2.08375755      -0.35640763      -0.07042402
C        0.86665804      -0.07357508      -0.08378271
C       -0.26820937      -1.01942604       0.11949977
C       -1.40689601      -0.27316531       0.36736419
C       -1.02256263       1.14364732       0.03974163
O       -1.71858931       2.06129803      -0.24099440
O        0.35993428       1.20646921      -0.02352143
H        2.66666883       0.46685999       0.06242052
H       -0.06828407      -2.00200237       0.52996431
H       -1.49247731      -1.15369812      -0.70026785
