7
Frame=0 idx=002515 GeodesicLength=0.0 rxn_smarts="[O:1]([c:2]1[n:3][o:4][n:5][n:6]1)[H:7]>>[O:1]([N:3]=[C:2]=[N:6][N:5]=[O:4])[H:7]"
O        1.74458002      -0.16478916      -0.54693914
C        0.13201995      -0.12060224      -0.20990098
N        0.68024502      -1.24712340      -0.14962445
O       -2.28316126      -0.23893268       0.56362991
N       -1.90428460       0.84284741       0.26318240
N       -0.57185032       0.90896888      -0.20758485
H        2.20245122       0.01963120       0.28723714
7
Frame=1 idx=002515 GeodesicLength=0.07203961873226568 rxn_smarts="[O:1]([c:2]1[n:3][o:4][n:5][n:6]1)[H:7]>>[O:1]([N:3]=[C:2]=[N:6][N:5]=[O:4])[H:7]"
O        1.74909867      -0.16425465      -0.52621852
C        0.12267960      -0.09855587      -0.29462418
N        0.64683887      -1.22349044      -0.11821641
O       -2.24705190      -0.26696430       0.57038959
N       -1.88315460       0.83360140       0.30668627
N       -0.59092319       0.92625460      -0.25272823
H        2.20251255      -0.00659073       0.31471147
7
Frame=2 idx=002515 GeodesicLength=0.14462381280910955 rxn_smarts="[O:1]([c:2]1[n:3][o:4][n:5][n:6]1)[H:7]>>[O:1]([N:3]=[C:2]=[N:6][N:5]=[O:4])[H:7]"
O        1.74899591      -0.15882007      -0.50941417
C        0.11680282      -0.07774463      -0.35634515
N        0.61353474      -1.19617585      -0.08636027
O       -2.21670656      -0.29262571       0.57005833
N       -1.86138368       0.82308508       0.34319176
N       -0.61114835       0.93924918      -0.29340545
H        2.20990513      -0.03696799       0.33227494
7
Frame=3 idx=002515 GeodesicLength=0.21746227969187798 rxn_smarts="[O:1]([c:2]1[n:3][o:4][n:5][n:6]1)[H:7]>>[O:1]([N:3]=[C:2]=[N:6][N:5]=[O:4])[H:7]"
O        1.74673104      -0.14867898      -0.49442981
C        0.11277497      -0.05784019      -0.40261751
N        0.58199730      -1.16637343      -0.05466561
O       -2.19096422      -0.31590947       0.56657449
N       -1.84060397       0.81191862       0.37336694
N       -0.63320301       0.94912466      -0.33101908
H        2.22326790      -0.07224120       0.34279058
7
Frame=4 idx=002515 GeodesicLength=0.2901391647897327 rxn_smarts="[O:1]([c:2]1[n:3][o:4][n:5][n:6]1)[H:7]>>[O:1]([N:3]=[C:2]=[N:6][N:5]=[O:4])[H:7]"
O        1.74356660      -0.13446017      -0.47989718
C        0.10983092      -0.03846321      -0.43818753
N        0.55254194      -1.13458342      -0.02300332
O       -2.16812886      -0.33744931       0.56242937
N       -1.82262302       0.80046625       0.39630647
N       -0.65629299       0.95703583      -0.36480782
H        2.24110542      -0.11254596       0.34716000
7
Frame=5 idx=002515 GeodesicLength=0.3624821214305063 rxn_smarts="[O:1]([c:2]1[n:3][o:4][n:5][n:6]1)[H:7]>>[O:1]([N:3]=[C:2]=[N:6][N:5]=[O:4])[H:7]"
O        1.74019642      -0.11573956      -0.46392824
C        0.10763605      -0.01936689      -0.46636364
N        0.52522797      -1.10109722       0.00819187
O       -2.14677407      -0.35767879       0.55925183
N       -1.80764009       0.78917842       0.41293287
N       -0.68046330       0.96313025      -0.39631451
H        2.26181702      -0.15842621       0.34622982
7
Frame=6 idx=002515 GeodesicLength=0.4344878013154462 rxn_smarts="[O:1]([c:2]1[n:3][o:4][n:5][n:6]1)[H:7]>>[O:1]([N:3]=[C:2]=[N:6][N:5]=[O:4])[H:7]"
O        1.73688353      -0.09164485      -0.44440719
C        0.10608349      -0.00023187      -0.48862842
N        0.50006275      -1.06587609       0.03941344
O       -2.12636561      -0.37696609       0.55728034
N       -1.79574079       0.77831329       0.42409598
N       -0.70597129       0.96731946      -0.42680442
H        2.28504793      -0.21091386       0.33905028
7
Frame=7 idx=002515 GeodesicLength=0.505686943053682 rxn_smarts="[O:1]([c:2]1[n:3][o:4][n:5][n:6]1)[H:7]>>[O:1]([N:3]=[C:2]=[N:6][N:5]=[O:4])[H:7]"
O        1.73395040      -0.06140461      -0.41854048
C        0.10540906       0.01892606      -0.50696608
N        0.47671779      -1.02981195       0.06914156
O       -2.10541957      -0.39523780       0.55811585
N       -1.78614512       0.76819470       0.43046296
N       -0.73270230       0.96906301      -0.45778546
H        2.30818973      -0.26972940       0.32557164
7
Frame=8 idx=002515 GeodesicLength=0.5756574053252834 rxn_smarts="[O:1]([c:2]1[n:3][o:4][n:5][n:6]1)[H:7]>>[O:1]([N:3]=[C:2]=[N:6][N:5]=[O:4])[H:7]"
O        1.73144053      -0.02558042      -0.38449081
C        0.10596958       0.03792592      -0.52047798
N        0.45513849      -0.99261428       0.10062604
O       -2.08532305      -0.41271190       0.55893681
N       -1.77901896       0.75869683       0.43246187
N       -0.75960890       0.96836492      -0.48826740
H        2.33140231      -0.33408108       0.30121147
7
Frame=9 idx=002515 GeodesicLength=0.64389192196256 rxn_smarts="[O:1]([c:2]1[n:3][o:4][n:5][n:6]1)[H:7]>>[O:1]([N:3]=[C:2]=[N:6][N:5]=[O:4])[H:7]"
O        1.72956984       0.01465281      -0.33970557
C        0.10849296       0.05625948      -0.52968082
N        0.43470987      -0.95553619       0.13355259
O       -2.06572241      -0.42911783       0.55962525
N       -1.77320377       0.74993512       0.43069136
N       -0.78539693       0.96478277      -0.51848794
H        2.35155045      -0.40097616       0.26400513
7
Frame=10 idx=002515 GeodesicLength=0.7097490540207471 rxn_smarts="[O:1]([c:2]1[n:3][o:4][n:5][n:6]1)[H:7]>>[O:1]([N:3]=[C:2]=[N:6][N:5]=[O:4])[H:7]"
O        1.72847009       0.05546751      -0.28368043
C        0.11360659       0.07301021      -0.53255771
N        0.41511724      -0.91927593       0.17109948
O       -2.04822809      -0.44439914       0.55725006
N       -1.76897567       0.74190375       0.42480378
N       -0.80754666       0.95882034      -0.54652728
H        2.36755650      -0.46552675       0.20961210
7
Frame=11 idx=002515 GeodesicLength=0.7753726228891896 rxn_smarts="[O:1]([c:2]1[n:3][o:4][n:5][n:6]1)[H:7]>>[O:1]([N:3]=[C:2]=[N:6][N:5]=[O:4])[H:7]"
O        1.72868648       0.09070641      -0.22230439
C        0.12184158       0.08790062      -0.53269160
N        0.39477374      -0.88781351       0.20569089
O       -2.03027102      -0.45796955       0.55488250
N       -1.76200972       0.73491258       0.41820403
N       -0.82504049       0.95053097      -0.57305871
H        2.37201943      -0.51826751       0.14927728
7
Frame=12 idx=002515 GeodesicLength=0.8411930188540601 rxn_smarts="[O:1]([c:2]1[n:3][o:4][n:5][n:6]1)[H:7]>>[O:1]([N:3]=[C:2]=[N:6][N:5]=[O:4])[H:7]"
O        1.72936033       0.11733202      -0.15922540
C        0.13207737       0.10017898      -0.52996906
N        0.37345420      -0.86211133       0.23707180
O       -2.01319480      -0.46916444       0.55171510
N       -1.75268881       0.72938193       0.41149253
N       -0.83771331       0.94051543      -0.59721175
H        2.36870501      -0.55613259       0.08612677
7
Frame=13 idx=002515 GeodesicLength=0.9080877632297397 rxn_smarts="[O:1]([c:2]1[n:3][o:4][n:5][n:6]1)[H:7]>>[O:1]([N:3]=[C:2]=[N:6][N:5]=[O:4])[H:7]"
O        1.73057118       0.13385406      -0.10445158
C        0.14257300       0.11062985      -0.52781248
N        0.35119591      -0.84225065       0.26104393
O       -1.99623983      -0.47863750       0.54924063
N       -1.74007041       0.72511000       0.40736716
N       -0.84731178       0.93044399      -0.61850139
H        2.35928193      -0.57914975       0.03311374
7
Frame=14 idx=002515 GeodesicLength=0.975341475962686 rxn_smarts="[O:1]([c:2]1[n:3][o:4][n:5][n:6]1)[H:7]>>[O:1]([N:3]=[C:2]=[N:6][N:5]=[O:4])[H:7]"
O        1.73186393       0.14349013      -0.05876971
C        0.15246220       0.12006493      -0.52716879
N        0.32856925      -0.82676713       0.27755187
O       -1.97921838      -0.48682439       0.54815319
N       -1.72516118       0.72182526       0.40576593
N       -0.85559760       0.92068714      -0.63748681
H        2.34708177      -0.59247594      -0.00804568
7
Frame=15 idx=002515 GeodesicLength=1.0427785986877391 rxn_smarts="[O:1]([c:2]1[n:3][o:4][n:5][n:6]1)[H:7]>>[O:1]([N:3]=[C:2]=[N:6][N:5]=[O:4])[H:7]"
O        1.73267931       0.14901008      -0.01662080
C        0.16196341       0.12839137      -0.52679936
N        0.30576355      -0.81460018       0.28958968
O       -1.96267164      -0.49359113       0.54818487
N       -1.70916543       0.71961526       0.40495731
N       -0.86289763       0.91057296      -0.65522654
H        2.33432842      -0.59939837      -0.04408515
7
Frame=16 idx=002515 GeodesicLength=1.1104193936259679 rxn_smarts="[O:1]([c:2]1[n:3][o:4][n:5][n:6]1)[H:7]>>[O:1]([N:3]=[C:2]=[N:6][N:5]=[O:4])[H:7]"
O        1.73362742       0.15140094       0.02186142
C        0.17120606       0.13633047      -0.52607301
N        0.28317300      -0.80411374       0.29902638
O       -1.94675944      -0.49959368       0.54870195
N       -1.69294800       0.71799237       0.40442354
N       -0.86957714       0.90028625      -0.67172604
H        2.32127810      -0.60230261      -0.07621424
