15
Frame=0 idx=004849 GeodesicLength=0.0 rxn_smarts="[C:1]([C:2]([C@@:3]([C:4]([H:12])([H:13])[H:14])([O:5][H:15])[H:11])([H:9])[H:10])([H:6])([H:7])[H:8]>>[C:1]([C:2]([C:3]([C:4]([H:12])([H:13])[H:14])=[O:5])([H:9])[H:10])([H:6])([H:7])[H:8].[H:11][H:15]"
C        1.95504521       0.17240400       0.00712454
C        0.65229948      -0.60595795       0.02453486
C       -0.57477121       0.26666827       0.20334978
C       -1.89989009      -0.41936156      -0.03017889
O       -0.53282531       1.19740236       1.14774961
H        2.03095182       0.80240085       0.89256657
H        2.00948030       0.81528880      -0.87608406
H        2.81222752      -0.50084173      -0.02023502
H        0.54328858      -1.23290774      -0.86421531
H        0.62125824      -1.27022315       0.89673933
H       -0.47940626       1.03559085      -1.03461451
H       -1.91057616      -1.01643561      -0.94301408
H       -2.05628740      -1.07755033       0.82849712
H       -2.70592983       0.31111822      -0.04438356
H       -0.46486485       1.52240469      -0.18783632
15
Frame=1 idx=004849 GeodesicLength=0.08842270662889744 rxn_smarts="[C:1]([C:2]([C@@:3]([C:4]([H:12])([H:13])[H:14])([O:5][H:15])[H:11])([H:9])[H:10])([H:6])([H:7])[H:8]>>[C:1]([C:2]([C:3]([C:4]([H:12])([H:13])[H:14])=[O:5])([H:9])[H:10])([H:6])([H:7])[H:8].[H:11][H:15]"
C        1.95745275       0.16773702       0.01273775
C        0.65233832      -0.60678021       0.02478086
C       -0.57445855       0.26779880       0.19412983
C       -1.89942429      -0.42458898      -0.02429428
O       -0.53174570       1.20264287       1.13362762
H        2.03471362       0.79399424       0.90074241
H        2.01652907       0.81364447      -0.86775593
H        2.81248444      -0.50835514      -0.01531614
H        0.54517538      -1.23249197      -0.86521003
H        0.61841707      -1.27364667       0.89483185
H       -0.48517584       1.05105485      -1.04906725
H       -1.91663774      -1.01418002      -0.94200271
H       -2.04494449      -1.09113006       0.82969683
H       -2.71081759       0.30031671      -0.02609811
H       -0.47390645       1.55398408      -0.20080269
15
Frame=2 idx=004849 GeodesicLength=0.1767145845962222 rxn_smarts="[C:1]([C:2]([C@@:3]([C:4]([H:12])([H:13])[H:14])([O:5][H:15])[H:11])([H:9])[H:10])([H:6])([H:7])[H:8]>>[C:1]([C:2]([C:3]([C:4]([H:12])([H:13])[H:14])=[O:5])([H:9])[H:10])([H:6])([H:7])[H:8].[H:11][H:15]"
C        1.95981403       0.16299265       0.01836174
C        0.65246406      -0.60784970       0.02509706
C       -0.57409422       0.26853493       0.18487220
C       -1.89886039      -0.42989774      -0.01841341
O       -0.53059812       1.20795604       1.11896002
H        2.03834049       0.78547937       0.90893445
H        2.02334914       0.81197443      -0.85934973
H        2.81278655      -0.51580519      -0.01048499
H        0.54718528      -1.23232645      -0.86613065
H        0.61572091      -1.27722687       0.89304205
H       -0.49104829       1.06689267      -1.06327437
H       -1.92280534      -1.01200800      -0.94085835
H       -2.03370229      -1.10462183       0.83074762
H       -2.71524660       0.28954941      -0.00782769
H       -0.48330521       1.58635627      -0.21367596
15
Frame=3 idx=004849 GeodesicLength=0.26492813041702995 rxn_smarts="[C:1]([C:2]([C@@:3]([C:4]([H:12])([H:13])[H:14])([O:5][H:15])[H:11])([H:9])[H:10])([H:6])([H:7])[H:8]>>[C:1]([C:2]([C:3]([C:4]([H:12])([H:13])[H:14])=[O:5])([H:9])[H:10])([H:6])([H:7])[H:8].[H:11][H:15]"
C        1.96213185       0.15816305       0.02399471
C        0.65268272      -0.60918383       0.02548627
C       -0.57367357       0.26885029       0.17557476
C       -1.89820129      -0.43529909      -0.01253945
O       -0.52937946       1.21335377       1.10369117
H        2.04182876       0.77685849       0.91713455
H        2.02993791       0.81026729      -0.85087190
H        2.81314289      -0.52319436      -0.00573564
H        0.54932643      -1.23243540      -0.86696963
H        0.61317504      -1.28097261       0.89138127
H       -0.49702844       1.08314610      -1.07719370
H       -1.92907989      -1.00992981      -0.93958236
H       -2.02256999      -1.11804063       0.83165429
H       -2.71921677       0.27881596       0.01042136
H       -0.49307618       1.61960078      -0.22644569
15
Frame=4 idx=004849 GeodesicLength=0.3531239131434346 rxn_smarts="[C:1]([C:2]([C@@:3]([C:4]([H:12])([H:13])[H:14])([O:5][H:15])[H:11])([H:9])[H:10])([H:6])([H:7])[H:8]>>[C:1]([C:2]([C:3]([C:4]([H:12])([H:13])[H:14])=[O:5])([H:9])[H:10])([H:6])([H:7])[H:8].[H:11][H:15]"
C        1.96440886       0.15323983       0.02963458
C        0.65300068      -0.61080176       0.02595116
C       -0.57319220       0.26871467       0.16623410
C       -1.89745013      -0.44080790      -0.00667496
O       -0.52808822       1.21884792       1.08775737
H        2.04517323       0.76813576       0.92533309
H        2.03629313       0.80850929      -0.84233069
H        2.81356294      -0.53052500      -0.00105977
H        0.55160822      -1.23284606      -0.86771859
H        0.61078478      -1.28489355       0.88986166
H       -0.50312480       1.09986296      -1.09077491
H       -1.93546303      -1.00795745      -0.93817637
H       -2.01155711      -1.13140269       0.83242250
H       -2.72272820       0.26811497       0.02864256
H       -0.50322814       1.65380901      -0.23910175
15
Frame=5 idx=004849 GeodesicLength=0.4413410284509429 rxn_smarts="[C:1]([C:2]([C@@:3]([C:4]([H:12])([H:13])[H:14])([O:5][H:15])[H:11])([H:9])[H:10])([H:6])([H:7])[H:8]>>[C:1]([C:2]([C:3]([C:4]([H:12])([H:13])[H:14])=[O:5])([H:9])[H:10])([H:6])([H:7])[H:8].[H:11][H:15]"
C        1.96664824       0.14821446       0.03527794
C        0.65342447      -0.61272409       0.02649553
C       -0.57264476       0.26809835       0.15684670
C       -1.89660872      -0.44643900      -0.00082325
O       -0.52672167       1.22444748       1.07108909
H        2.04837005       0.75931650       0.93351801
H        2.04241103       0.80668512      -0.83373663
H        2.81405730      -0.53779881       0.00354996
H        0.55404073      -1.23358919      -0.86836608
H        0.60855699      -1.28899721       0.88849776
H       -0.50934685       1.11709139      -1.10396696
H       -1.94195262      -1.00610436      -0.93664328
H       -2.00067593      -1.14472047       0.83305855
H       -2.72578388       0.25744708       0.04682421
H       -0.51377438       1.68907275      -0.25162155
15
Frame=6 idx=004849 GeodesicLength=0.529602721648357 rxn_smarts="[C:1]([C:2]([C@@:3]([C:4]([H:12])([H:13])[H:14])([O:5][H:15])[H:11])([H:9])[H:10])([H:6])([H:7])[H:8]>>[C:1]([C:2]([C:3]([C:4]([H:12])([H:13])[H:14])=[O:5])([H:9])[H:10])([H:6])([H:7])[H:8].[H:11][H:15]"
C        1.96885282       0.14307762       0.04092331
C        0.65396054      -0.61497026       0.02712158
C       -0.57202589       0.26697369       0.14740092
C       -1.89568009      -0.45220601       0.00501146
O       -0.52527878       1.23015997       1.05361270
H        2.05141137       0.75040869       0.94167817
H        2.04829264       0.80477602      -0.82510070
H        2.81463518      -0.54502037       0.00810904
H        0.55663457      -1.23469555      -0.86890292
H        0.60649386      -1.29329109       0.88730377
H       -0.51570609       1.13488974      -1.11671937
H       -1.94855349      -1.00438664      -0.93498235
H       -1.98992956      -1.15801225       0.83356787
H       -2.72838061       0.24680955       0.06496493
H       -0.52472647       1.72548689      -0.26398839
15
Frame=7 idx=004849 GeodesicLength=0.6179287616711568 rxn_smarts="[C:1]([C:2]([C@@:3]([C:4]([H:12])([H:13])[H:14])([O:5][H:15])[H:11])([H:9])[H:10])([H:6])([H:7])[H:8]>>[C:1]([C:2]([C:3]([C:4]([H:12])([H:13])[H:14])=[O:5])([H:9])[H:10])([H:6])([H:7])[H:8].[H:11][H:15]"
C        1.97102459       0.13782085       0.04656737
C        0.65461417      -0.61756036       0.02783244
C       -0.57133173       0.26531023       0.13788712
C       -1.89466646      -0.45812656       0.01082567
O       -0.52376130       1.23599152       1.03524634
H        2.05428938       0.74142306       0.94979889
H        2.05393646       0.80276161      -0.81643742
H        2.81530537      -0.55219232       0.01263194
H        0.55940044      -1.23619906      -0.86931634
H        0.60459921      -1.29778039       0.88629610
H       -0.52222163       1.15331943      -1.12897418
H       -1.95526651      -1.00282359      -0.93319371
H       -1.97932579      -1.17129474       0.83395631
H       -2.73052013       0.23619847       0.08305580
H       -0.53607608       1.76315184      -0.27617634
15
Frame=8 idx=004849 GeodesicLength=0.7063303062481052 rxn_smarts="[C:1]([C:2]([C@@:3]([C:4]([H:12])([H:13])[H:14])([O:5][H:15])[H:11])([H:9])[H:10])([H:6])([H:7])[H:8]>>[C:1]([C:2]([C:3]([C:4]([H:12])([H:13])[H:14])=[O:5])([H:9])[H:10])([H:6])([H:7])[H:8].[H:11][H:15]"
C        1.97316582       0.13243513       0.05220777
C        0.65539113      -0.62051455       0.02863036
C       -0.57055698       0.26307924       0.12828809
C       -1.89356958      -0.46421822       0.01661595
O       -0.52217251       1.24194329       1.01590108
H        2.05699280       0.73237449       0.95786481
H        2.05934500       0.80061693      -0.80776371
H        2.81607658      -0.55931927       0.01714125
H        0.56235063      -1.23813587      -0.86959389
H        0.60287454      -1.30246946       0.88549160
H       -0.52891240       1.17244808      -1.14067847
H       -1.96209732      -1.00143277      -0.93127696
H       -1.96886628      -1.18458595       0.83423012
H       -2.73220095       0.22560833       0.10109607
H       -0.54782048       1.80217059      -0.28815406
15
Frame=9 idx=004849 GeodesicLength=0.7948093424620959 rxn_smarts="[C:1]([C:2]([C@@:3]([C:4]([H:12])([H:13])[H:14])([O:5][H:15])[H:11])([H:9])[H:10])([H:6])([H:7])[H:8]>>[C:1]([C:2]([C:3]([C:4]([H:12])([H:13])[H:14])=[O:5])([H:9])[H:10])([H:6])([H:7])[H:8].[H:11][H:15]"
C        1.97527807       0.12691255       0.05783986
C        0.65629689      -0.62385424       0.02952209
C       -0.56969661       0.26024850       0.11859694
C       -1.89238926      -0.47049781       0.02237713
O       -0.52051200       1.24801155       0.99549075
H        2.05951278       0.72327946       0.96585798
H        2.06451381       0.79831916      -0.79909967
H        2.81695807      -0.56640284       0.02165251
H        0.56549650      -1.24054412      -0.86971854
H        0.60132632      -1.30736306       0.88491177
H       -0.53580662       1.19233905      -1.15176383
H       -1.96904273      -1.00023398      -0.92923288
H       -1.95856218      -1.19790140       0.83439308
H       -2.73342067       0.21504246       0.11906966
H       -0.55995235       1.84264470      -0.29989686
15
Frame=10 idx=004849 GeodesicLength=0.8833351719336885 rxn_smarts="[C:1]([C:2]([C@@:3]([C:4]([H:12])([H:13])[H:14])([O:5][H:15])[H:11])([H:9])[H:10])([H:6])([H:7])[H:8]>>[C:1]([C:2]([C:3]([C:4]([H:12])([H:13])[H:14])=[O:5])([H:9])[H:10])([H:6])([H:7])[H:8].[H:11][H:15]"
C        1.97736282       0.12124517       0.06346027
C        0.65733605      -0.62759709       0.03050719
C       -0.56874551       0.25679726       0.10877332
C       -1.89112627      -0.47698296       0.02810294
O       -0.51878940       1.25418647       0.97391528
H        2.06183342       0.71416205       0.97375743
H        2.06945113       0.79583520      -0.79046950
H        2.81795641      -0.57344834       0.02619944
H        0.56885317      -1.24346778      -0.86967268
H        0.59994862      -1.31245424       0.88457747
H       -0.54293529       1.21307082      -1.16219117
H       -1.97611251      -0.99925243      -0.92705975
H       -1.94840572      -1.21125529       0.83445502
H       -2.73417616       0.20449345       0.13697789
H       -0.57245077       1.88466771      -0.31133315
15
Frame=11 idx=004849 GeodesicLength=0.9718744562015078 rxn_smarts="[C:1]([C:2]([C@@:3]([C:4]([H:12])([H:13])[H:14])([O:5][H:15])[H:11])([H:9])[H:10])([H:6])([H:7])[H:8]>>[C:1]([C:2]([C:3]([C:4]([H:12])([H:13])[H:14])=[O:5])([H:9])[H:10])([H:6])([H:7])[H:8].[H:11][H:15]"
C        1.97942103       0.11542647       0.06906422
C        0.65851190      -0.63175901       0.03158980
C       -0.56769848       0.25270459       0.09878934
C       -1.88977873      -0.48368735       0.03378492
O       -0.51701031       1.26045464       0.95107451
H        2.06394127       0.70504919       0.98154010
H        2.07416104       0.79313273      -0.78190084
H        2.81907741      -0.58046006       0.03081171
H        0.57243365      -1.24694963      -0.86943495
H        0.59873926      -1.31773593       0.88451253
H       -0.55034181       1.23471549      -1.17191758
H       -1.98330779      -0.99851362      -0.92475623
H       -1.93839665      -1.22465829       0.83442162
H       -2.73446286       0.19395766       0.15481010
H       -0.58528893       1.92832313      -0.32238924
15
Frame=12 idx=004849 GeodesicLength=1.0603995082821034 rxn_smarts="[C:1]([C:2]([C@@:3]([C:4]([H:12])([H:13])[H:14])([O:5][H:15])[H:11])([H:9])[H:10])([H:6])([H:7])[H:8]>>[C:1]([C:2]([C:3]([C:4]([H:12])([H:13])[H:14])=[O:5])([H:9])[H:10])([H:6])([H:7])[H:8].[H:11][H:15]"
C        1.98145251       0.10945228       0.07464659
C        0.65982767      -0.63635487       0.03277143
C       -0.56655041       0.24795116       0.08860072
C       -1.88834476      -0.49062754       0.03941571
O       -0.51518704       1.26678980       0.92686829
H        2.06581729       0.69597585       0.98918018
H        2.07865100       0.79017625      -0.77342665
H        2.82032602      -0.58744050       0.03552756
H        0.57625402      -1.25103660      -0.86898278
H        0.59769280      -1.32319547       0.88474194
H       -0.55807666       1.25734786      -1.18090775
H       -1.99063521      -0.99804652      -0.92231960
H       -1.92853050      -1.23811880       0.83430174
H       -2.73427411       0.18343704       0.17255711
H       -0.59842262       1.97369008      -0.33297449
15
Frame=13 idx=004849 GeodesicLength=1.1488854928798051 rxn_smarts="[C:1]([C:2]([C@@:3]([C:4]([H:12])([H:13])[H:14])([O:5][H:15])[H:11])([H:9])[H:10])([H:6])([H:7])[H:8]>>[C:1]([C:2]([C:3]([C:4]([H:12])([H:13])[H:14])=[O:5])([H:9])[H:10])([H:6])([H:7])[H:8].[H:11][H:15]"
C        1.98345517       0.10332168       0.08019960
C        0.66128313      -0.64139422       0.03405720
C       -0.56529888       0.24252151       0.07816732
C       -1.88682008      -0.49781578       0.04498320
O       -0.51333196       1.27316019       0.90121018
H        2.06744421       0.68698238       0.99664755
H        2.08292531       0.78693000      -0.76508535
H        2.82170408      -0.59438968       0.04038252
H        0.58032761      -1.25577459      -0.86828748
H        0.59680298      -1.32881383       0.88529458
H       -0.56620593       1.28103502      -1.18913875
H       -1.99809490      -0.99788263      -0.91974803
H       -1.91880660      -1.25164131       0.83410185
H       -2.73360511       0.17293042       0.19019880
H       -0.61177902       2.02083083      -0.34298322
15
Frame=14 idx=004849 GeodesicLength=1.2372955164316497 rxn_smarts="[C:1]([C:2]([C@@:3]([C:4]([H:12])([H:13])[H:14])([O:5][H:15])[H:11])([H:9])[H:10])([H:6])([H:7])[H:8]>>[C:1]([C:2]([C:3]([C:4]([H:12])([H:13])[H:14])=[O:5])([H:9])[H:10])([H:6])([H:7])[H:8].[H:11][H:15]"
C        1.98542603       0.09703724       0.08571727
C        0.66287725      -0.64688183       0.03544755
C       -0.56394071       0.23640842       0.06742750
C       -1.88520085      -0.50526232       0.05047496
O       -0.51146456       1.27952350       0.87400322
H        2.06879773       0.67811926       1.00391086
H        2.08699724       0.78335431      -0.75691989
H        2.82321085      -0.60130734       0.04542688
H        0.58467044      -1.26121018      -0.86732139
H        0.59605656      -1.33456324       0.88619828
H       -0.57481051       1.30584362      -1.19661016
H       -2.00569536      -0.99805666      -0.91703644
H       -1.90921458      -1.26522759       0.83382914
H       -2.73244665       0.16244068       0.20772535
H       -0.62526286       2.06978212      -0.35227314
15
Frame=15 idx=004849 GeodesicLength=1.325607287824963 rxn_smarts="[C:1]([C:2]([C@@:3]([C:4]([H:12])([H:13])[H:14])([O:5][H:15])[H:11])([H:9])[H:10])([H:6])([H:7])[H:8]>>[C:1]([C:2]([C:3]([C:4]([H:12])([H:13])[H:14])=[O:5])([H:9])[H:10])([H:6])([H:7])[H:8].[H:11][H:15]"
C        1.98736025       0.09060614       0.09119029
C        0.66460592      -0.65281601       0.03694587
C       -0.56247443       0.22961054       0.05631944
C       -1.88348054      -0.51297320       0.05587504
O       -0.50960487       1.28582713       0.84516849
H        2.06985545       0.66944338       1.01093397
H        2.09087694       0.77941082      -0.74897919
H        2.82484278      -0.60818934       0.05070739
H        0.58929657      -1.26738905      -0.86604985
H        0.59543956      -1.34040684       0.88748473
H       -0.58398660       1.33182238      -1.20334494
H       -2.01343806      -0.99860449      -0.91418214
H       -1.89974838      -1.27886976       0.83349190
H       -2.73079138       0.15197409       0.22511071
H       -0.63875321       2.12055421      -0.36067171
15
Frame=16 idx=004849 GeodesicLength=1.4138216831123218 rxn_smarts="[C:1]([C:2]([C@@:3]([C:4]([H:12])([H:13])[H:14])([O:5][H:15])[H:11])([H:9])[H:10])([H:6])([H:7])[H:8]>>[C:1]([C:2]([C:3]([C:4]([H:12])([H:13])[H:14])=[O:5])([H:9])[H:10])([H:6])([H:7])[H:8].[H:11][H:15]"
C        1.98924952       0.08404196       0.09660971
C        0.66646159      -0.65918810       0.03855475
C       -0.56090143       0.22213065       0.04477660
C       -1.88165290      -0.52095264       0.06116619
O       -0.50778068       1.29200960       0.81463499
H        2.07058991       0.66102147       1.01767949
H        2.09457593       0.77506285      -0.74131656
H        2.82659176      -0.61502700       0.05627723
H        0.59421872      -1.27435257      -0.86443744
H        0.59493451      -1.34630106       0.88918514
H       -0.59385048       1.35900790      -1.20939010
H       -2.02132765      -0.99956173      -0.91118172
H       -1.89039893      -1.29256137       0.83309628
H       -2.72862986       0.14153719       0.24233260
H       -0.65208002       2.17313285      -0.36798715
