9
Frame=0 idx=002670 GeodesicLength=0.0 rxn_smarts="[C:1](#[C:2][C:3]([C:4]#[C:5][H:9])([H:7])[H:8])[H:6]>>[C:1](#[C:2][C:3]([C:5](=[C:4])[H:9])([H:7])[H:8])[H:6]"
C        2.06515522      -0.76463687       0.09799172
C        1.05092067      -0.13918944      -0.00642936
C       -0.17616812       0.62619579      -0.10736060
C       -1.24713323      -0.22027924      -1.17232169
C       -1.80062760      -0.27740977      -0.05275926
H        2.96803385      -1.32296125       0.17482120
H       -0.46642898       0.96757676       0.89570117
H       -0.05778548       1.53102937      -0.69618903
H       -2.33596629      -0.40032539       0.86654585
9
Frame=1 idx=002670 GeodesicLength=0.03871026880216967 rxn_smarts="[C:1](#[C:2][C:3]([C:4]#[C:5][H:9])([H:7])[H:8])[H:6]>>[C:1](#[C:2][C:3]([C:5](=[C:4])[H:9])([H:7])[H:8])[H:6]"
C        2.05503129      -0.76998991       0.11172531
C        1.04334615      -0.14164118       0.00000777
C       -0.17492103       0.63801251      -0.11278063
C       -1.26981041      -0.19783162      -1.17469629
C       -1.81112000      -0.25668262      -0.05071294
H        2.95683859      -1.33102245       0.18251884
H       -0.45571483       1.00409322       0.88406588
H       -0.03895290       1.53290226      -0.71393932
H       -2.30469686      -0.47784021       0.87381137
9
Frame=2 idx=002670 GeodesicLength=0.07661494408470032 rxn_smarts="[C:1](#[C:2][C:3]([C:4]#[C:5][H:9])([H:7])[H:8])[H:6]>>[C:1](#[C:2][C:3]([C:5](=[C:4])[H:9])([H:7])[H:8])[H:6]"
C        2.04507939      -0.77796844       0.12451148
C        1.03622049      -0.14616861       0.00682711
C       -0.17330375       0.64728080      -0.11633199
C       -1.29329394      -0.17698338      -1.17379402
C       -1.82029344      -0.23930094      -0.04469015
H        2.95167070      -1.33213158       0.18699758
H       -0.44297832       1.03783150       0.87396578
H       -0.02078053       1.53159504      -0.72989716
H       -2.28232060      -0.54415440       0.87241137
9
Frame=3 idx=002670 GeodesicLength=0.11475517942686712 rxn_smarts="[C:1](#[C:2][C:3]([C:4]#[C:5][H:9])([H:7])[H:8])[H:6]>>[C:1](#[C:2][C:3]([C:5](=[C:4])[H:9])([H:7])[H:8])[H:6]"
C        2.03668538      -0.78471594       0.13136419
C        1.03033869      -0.14960722       0.00995359
C       -0.17164320       0.65610335      -0.11960684
C       -1.31864374      -0.15540080      -1.17106897
C       -1.82793245      -0.22518942      -0.03557854
H        2.94593122      -1.33403416       0.19807255
H       -0.42773195       1.06925509       0.86486801
H       -0.00519854       1.53037784      -0.74478353
H       -2.26180542      -0.60678874       0.86677954
9
Frame=4 idx=002670 GeodesicLength=0.1528601630079654 rxn_smarts="[C:1](#[C:2][C:3]([C:4]#[C:5][H:9])([H:7])[H:8])[H:6]>>[C:1](#[C:2][C:3]([C:5](=[C:4])[H:9])([H:7])[H:8])[H:6]"
C        2.02964417      -0.78994492       0.13799441
C        1.02548710      -0.15204965       0.01301760
C       -0.16990198       0.66439096      -0.12215277
C       -1.34408578      -0.13462748      -1.16654254
C       -1.83412458      -0.21404319      -0.02442649
H        2.94018575      -1.33670763       0.20813884
H       -0.41160010       1.09984110       0.85610492
H        0.00888364       1.52829100      -0.75920994
H       -2.24448821      -0.66515019       0.85707598
9
Frame=5 idx=002670 GeodesicLength=0.19100096523701737 rxn_smarts="[C:1](#[C:2][C:3]([C:4]#[C:5][H:9])([H:7])[H:8])[H:6]>>[C:1](#[C:2][C:3]([C:5](=[C:4])[H:9])([H:7])[H:8])[H:6]"
C        2.02229243      -0.79630458       0.13895450
C        1.02115656      -0.15412053       0.01164178
C       -0.16825493       0.67266660      -0.12504798
C       -1.37220141      -0.11139800      -1.16041788
C       -1.83930411      -0.20468232      -0.01089327
H        2.93396724      -1.33871480       0.22659804
H       -0.39298610       1.12870617       0.84762132
H        0.02090217       1.52676105      -0.77316237
H       -2.22557187      -0.72291358       0.84470587
9
Frame=6 idx=002670 GeodesicLength=0.22876927403112388 rxn_smarts="[C:1](#[C:2][C:3]([C:4]#[C:5][H:9])([H:7])[H:8])[H:6]>>[C:1](#[C:2][C:3]([C:5](=[C:4])[H:9])([H:7])[H:8])[H:6]"
C        2.01603661      -0.80492799       0.13940426
C        1.01683874      -0.15965914       0.01235526
C       -0.16601123       0.67803419      -0.12633306
C       -1.39975549      -0.08989847      -1.15264646
C       -1.84457832      -0.19665184       0.00340420
H        2.93500742      -1.33245684       0.24064270
H       -0.37312216       1.15480568       0.84005776
H        0.03381680       1.52175269      -0.78572510
H       -2.21823237      -0.77099829       0.82884044
9
Frame=7 idx=002670 GeodesicLength=0.2661749836142948 rxn_smarts="[C:1](#[C:2][C:3]([C:4]#[C:5][H:9])([H:7])[H:8])[H:6]>>[C:1](#[C:2][C:3]([C:5](=[C:4])[H:9])([H:7])[H:8])[H:6]"
C        2.01116721      -0.81013657       0.13897919
C        1.01387083      -0.16197475       0.01158332
C       -0.16405198       0.68440932      -0.12778321
C       -1.42746551      -0.06807081      -1.14349403
C       -1.84786129      -0.19160891       0.01888016
H        2.93129069      -1.33213891       0.25714304
H       -0.35309765       1.18113469       0.83197784
H        0.04409500       1.51781888      -0.79850481
H       -2.20794731      -0.81943296       0.81121851
9
Frame=8 idx=002670 GeodesicLength=0.30355203838162603 rxn_smarts="[C:1](#[C:2][C:3]([C:4]#[C:5][H:9])([H:7])[H:8])[H:6]>>[C:1](#[C:2][C:3]([C:5](=[C:4])[H:9])([H:7])[H:8])[H:6]"
C        2.00756496      -0.81274073       0.14630964
C        1.01175209      -0.16291864       0.01571379
C       -0.16200796       0.69040493      -0.12804654
C       -1.45272920      -0.04918100      -1.13342798
C       -1.85018143      -0.18885943       0.03412328
H        2.92848475      -1.33378873       0.26249569
H       -0.33473313       1.20865691       0.82314750
H        0.05438917       1.51200936      -0.81155474
H       -2.20253924      -0.86358267       0.79123935
9
Frame=9 idx=002670 GeodesicLength=0.34084606735350526 rxn_smarts="[C:1](#[C:2][C:3]([C:4]#[C:5][H:9])([H:7])[H:8])[H:6]>>[C:1](#[C:2][C:3]([C:5](=[C:4])[H:9])([H:7])[H:8])[H:6]"
C        2.00491630      -0.81444385       0.15538361
C        1.01027531      -0.16353802       0.02120999
C       -0.15982321       0.69584694      -0.12765257
C       -1.47740565      -0.03114981      -1.12223890
C       -1.85169983      -0.18779698       0.04976614
H        2.92686328      -1.33521111       0.26458978
H       -0.31631964       1.23588399       0.81395961
H        0.06425124       1.50494582      -0.82441789
H       -2.20105780      -0.90453699       0.76940024
9
Frame=10 idx=002670 GeodesicLength=0.37811755147191245 rxn_smarts="[C:1](#[C:2][C:3]([C:4]#[C:5][H:9])([H:7])[H:8])[H:6]>>[C:1](#[C:2][C:3]([C:5](=[C:4])[H:9])([H:7])[H:8])[H:6]"
C        2.00315549      -0.81539458       0.16454069
C        1.00948838      -0.16369939       0.02692505
C       -0.15753999       0.70092538      -0.12684960
C       -1.50199967      -0.01331095      -1.10997188
C       -1.85234583      -0.18849703       0.06579531
H        2.92571502      -1.33668098       0.26595376
H       -0.29755279       1.26253856       0.80446638
H        0.07335672       1.49715826      -0.83703094
H       -2.20227733      -0.94303926       0.74617124
9
Frame=11 idx=002670 GeodesicLength=0.41538488099858384 rxn_smarts="[C:1](#[C:2][C:3]([C:4]#[C:5][H:9])([H:7])[H:8])[H:6]>>[C:1](#[C:2][C:3]([C:5](=[C:4])[H:9])([H:7])[H:8])[H:6]"
C        2.00185513      -0.81624038       0.17178398
C        1.00937441      -0.16334390       0.03126153
C       -0.15521988       0.70588962      -0.12597521
C       -1.52733483       0.00538407      -1.09642534
C       -1.85200204      -0.19098041       0.08237705
H        2.92442196      -1.33819757       0.26987203
H       -0.27794497       1.28832259       0.79472560
H        0.08128517       1.48928091      -0.84941814
H       -2.20443494      -0.98011493       0.72179852
9
Frame=12 idx=002670 GeodesicLength=0.4527038971445726 rxn_smarts="[C:1](#[C:2][C:3]([C:4]#[C:5][H:9])([H:7])[H:8])[H:6]>>[C:1](#[C:2][C:3]([C:5](=[C:4])[H:9])([H:7])[H:8])[H:6]"
C        2.00072945      -0.81992918       0.17232134
C        1.00931587      -0.16524235       0.03247066
C       -0.15259658       0.70950684      -0.12497868
C       -1.55447419       0.02608284      -1.08114132
C       -1.85143257      -0.19433791       0.09973878
H        2.92664448      -1.33386499       0.28082725
H       -0.25583544       1.31121207       0.78546078
H        0.08852230       1.48060939      -0.86094248
H       -2.21087332      -1.01403671       0.69624367
9
Frame=13 idx=002670 GeodesicLength=0.48998370810466396 rxn_smarts="[C:1](#[C:2][C:3]([C:4]#[C:5][H:9])([H:7])[H:8])[H:6]>>[C:1](#[C:2][C:3]([C:5](=[C:4])[H:9])([H:7])[H:8])[H:6]"
C        2.00075515      -0.82138301       0.17513916
C        1.01023545      -0.16544276       0.03476952
C       -0.15001108       0.71333579      -0.12360004
C       -1.58082805       0.04606720      -1.06486417
C       -1.84961533      -0.20000229       0.11673765
H        2.92763841      -1.33242240       0.28900405
H       -0.23441561       1.33443363       0.77549435
H        0.09474769       1.47162183      -0.87251603
H       -2.21850662      -1.04620800       0.66983551
9
Frame=14 idx=002670 GeodesicLength=0.5272504046431417 rxn_smarts="[C:1](#[C:2][C:3]([C:4]#[C:5][H:9])([H:7])[H:8])[H:6]>>[C:1](#[C:2][C:3]([C:5](=[C:4])[H:9])([H:7])[H:8])[H:6]"
C        2.00203806      -0.82063501       0.18282271
C        1.01194352      -0.16450488       0.04031955
C       -0.14738297       0.71689310      -0.12138873
C       -1.60544947       0.06421473      -1.04817970
C       -1.84701123      -0.20766608       0.13268988
H        2.92918542      -1.33262819       0.29015606
H       -0.21435987       1.35817094       0.76472620
H        0.10084913       1.46127574      -0.88393491
H       -2.22981258      -1.07512036       0.64278895
9
Frame=15 idx=002670 GeodesicLength=0.5645911405492902 rxn_smarts="[C:1](#[C:2][C:3]([C:4]#[C:5][H:9])([H:7])[H:8])[H:6]>>[C:1](#[C:2][C:3]([C:5](=[C:4])[H:9])([H:7])[H:8])[H:6]"
C        2.00439312      -0.81903270       0.19026860
C        1.01435878      -0.16318217       0.04604198
C       -0.14466423       0.72008221      -0.11877377
C       -1.62985204       0.08223313      -1.03047912
C       -1.84356191      -0.21723937       0.14814050
H        2.93127525      -1.33287181       0.29094294
H       -0.19424969       1.38121785       0.75361143
H        0.10622908       1.45029751      -0.89497916
H       -2.24392835      -1.10150465       0.61522660
9
Frame=16 idx=002670 GeodesicLength=0.6020367152599544 rxn_smarts="[C:1](#[C:2][C:3]([C:4]#[C:5][H:9])([H:7])[H:8])[H:6]>>[C:1](#[C:2][C:3]([C:5](=[C:4])[H:9])([H:7])[H:8])[H:6]"
C        2.00775610      -0.81647083       0.19765064
C        1.01753062      -0.16126111       0.05182909
C       -0.14187694       0.72303972      -0.11580782
C       -1.65410923       0.10025268      -1.01168903
C       -1.83913845      -0.22889140       0.16292896
H        2.93354301      -1.33358538       0.29145491
H       -0.17417897       1.40371020       0.74207914
H        0.11080892       1.43882248      -0.90570857
H       -2.26033508      -1.12561636       0.58726268
