14
Frame=0 idx=006379 GeodesicLength=0.0 rxn_smarts="[C:1]([n:2]1[c:3]([H:11])[c:4]([C:5]([H:12])([H:13])[H:14])[n:6][n:7]1)([H:8])([H:9])[H:10]>>[C:1]([C@:3]1([H:11])[N:2]=[N:7][N:6]=[C:4]1[C:5]([H:12])([H:13])[H:14])([H:8])([H:9])[H:10]"
C        1.87732486      -0.00415590      -0.38558174
N        1.16036578      -0.15794362       1.31762918
C        0.30191443       0.62648082       0.54397148
C       -0.81408967      -0.16016156       0.26578911
C       -2.05119642       0.15645382      -0.50131745
N       -0.58629184      -1.34817513       0.82359480
N        0.59059945      -1.34982108       1.42033582
H        1.52676816      -0.92111137      -0.84367491
H        2.87524616      -0.08526810       0.02541356
H        1.81120528       0.84888026      -1.05592005
H        0.42831676       1.69602904       0.48946666
H       -1.82903324       0.36324917      -1.55059208
H       -2.72928795      -0.69421641      -0.45715332
H       -2.56184172       1.02976011      -0.09196105
14
Frame=1 idx=006379 GeodesicLength=0.05042341914715085 rxn_smarts="[C:1]([n:2]1[c:3]([H:11])[c:4]([C:5]([H:12])([H:13])[H:14])[n:6][n:7]1)([H:8])([H:9])[H:10]>>[C:1]([C@:3]1([H:11])[N:2]=[N:7][N:6]=[C:4]1[C:5]([H:12])([H:13])[H:14])([H:8])([H:9])[H:10]"
C        1.88334092       0.01162090      -0.38305089
N        1.15709970      -0.18566169       1.30984690
C        0.30095313       0.61343305       0.54939955
C       -0.82006687      -0.16780099       0.26712293
C       -2.05338407       0.15884272      -0.50099797
N       -0.59583985      -1.36237071       0.80998108
N        0.58594973      -1.37421319       1.40288964
H        1.56972082      -0.91473188      -0.84977647
H        2.88274248      -0.03413468       0.03094057
H        1.80188680       0.85536049      -1.06386024
H        0.42132759       1.68504059       0.52974049
H       -1.84141712       0.27478340      -1.56605928
H       -2.77857696      -0.64501065      -0.38364049
H       -2.51373629       1.08484265      -0.15253581
14
Frame=2 idx=006379 GeodesicLength=0.10110337554862639 rxn_smarts="[C:1]([n:2]1[c:3]([H:11])[c:4]([C:5]([H:12])([H:13])[H:14])[n:6][n:7]1)([H:8])([H:9])[H:10]>>[C:1]([C@:3]1([H:11])[N:2]=[N:7][N:6]=[C:4]1[C:5]([H:12])([H:13])[H:14])([H:8])([H:9])[H:10]"
C        1.89056485       0.02705955      -0.37970600
N        1.15320940      -0.21302911       1.30095732
C        0.30008999       0.60020232       0.55279211
C       -0.82561629      -0.17583198       0.26594556
C       -2.05677549       0.16149221      -0.50020600
N       -0.60565388      -1.37644572       0.79480537
N        0.58064978      -1.39817458       1.38447417
H        1.61623043      -0.90820822      -0.85418446
H        2.88928108       0.01806993       0.03950223
H        1.79485795       0.86039675      -1.07185674
H        0.41414859       1.67275202       0.56789175
H       -1.86309878       0.18762921      -1.57452718
H       -2.82351155      -0.58857981      -0.31087948
H       -2.46437607       1.13266742      -0.21500867
14
Frame=3 idx=006379 GeodesicLength=0.15189958902347075 rxn_smarts="[C:1]([n:2]1[c:3]([H:11])[c:4]([C:5]([H:12])([H:13])[H:14])[n:6][n:7]1)([H:8])([H:9])[H:10]>>[C:1]([C@:3]1([H:11])[N:2]=[N:7][N:6]=[C:4]1[C:5]([H:12])([H:13])[H:14])([H:8])([H:9])[H:10]"
C        1.89773784       0.04236869      -0.37626803
N        1.14941377      -0.24064655       1.29096946
C        0.29932851       0.58686942       0.55569600
C       -0.83118935      -0.18377786       0.26446478
C       -2.06032953       0.16428496      -0.49936084
N       -0.61619295      -1.39005717       0.78002686
N        0.57522931      -1.42222415       1.36503168
H        1.66432564      -0.90091528      -0.85758831
H        2.89394941       0.07105372       0.04914455
H        1.78830923       0.86456784      -1.08008518
H        0.40690903       1.65922101       0.60576499
H       -1.89096064       0.10131678      -1.57609737
H       -2.86289579      -0.52536782      -0.24035398
H       -2.41363448       1.17330640      -0.28134460
14
Frame=4 idx=006379 GeodesicLength=0.20310429087603463 rxn_smarts="[C:1]([n:2]1[c:3]([H:11])[c:4]([C:5]([H:12])([H:13])[H:14])[n:6][n:7]1)([H:8])([H:9])[H:10]>>[C:1]([C@:3]1([H:11])[N:2]=[N:7][N:6]=[C:4]1[C:5]([H:12])([H:13])[H:14])([H:8])([H:9])[H:10]"
C        1.90651479       0.05720068      -0.37182060
N        1.14482903      -0.26757867       1.27983400
C        0.29861709       0.57336067       0.55593842
C       -0.83608312      -0.19243301       0.25946428
C       -2.06537647       0.16737096      -0.49792573
N       -0.62692957      -1.40354693       0.76362426
N        0.56917340      -1.44559380       1.34468778
H        1.71665659      -0.89349788      -0.85855229
H        2.89761093       0.12483025       0.06222635
H        1.78495733       0.86696676      -1.08842104
H        0.39912140       1.64444834       0.64052757
H       -1.92870749       0.01896633      -1.57075055
H       -2.89684386      -0.45652135      -0.17124023
H       -2.36354006       1.20602766      -0.34759222
14
Frame=5 idx=006379 GeodesicLength=0.254587280564946 rxn_smarts="[C:1]([n:2]1[c:3]([H:11])[c:4]([C:5]([H:12])([H:13])[H:14])[n:6][n:7]1)([H:8])([H:9])[H:10]>>[C:1]([C@:3]1([H:11])[N:2]=[N:7][N:6]=[C:4]1[C:5]([H:12])([H:13])[H:14])([H:8])([H:9])[H:10]"
C        1.91627490       0.07167359      -0.36669700
N        1.13979919      -0.29413512       1.26754758
C        0.29793001       0.55969375       0.55424135
C       -0.84052578      -0.20161862       0.25195879
C       -2.07139931       0.17068250      -0.49609249
N       -0.63805874      -1.41681232       0.74652565
N        0.56278181      -1.46858343       1.32336278
H        1.77222309      -0.88551888      -0.85729671
H        2.89973924       0.17914533       0.07773075
H        1.78404869       0.86793073      -1.09688803
H        0.39075795       1.62846636       0.67302314
H       -1.97450020      -0.05941001      -1.55862426
H       -2.92467859      -0.38260354      -0.10421462
H       -2.31439225       1.23108968      -0.41457693
14
Frame=6 idx=006379 GeodesicLength=0.30605236241673806 rxn_smarts="[C:1]([n:2]1[c:3]([H:11])[c:4]([C:5]([H:12])([H:13])[H:14])[n:6][n:7]1)([H:8])([H:9])[H:10]>>[C:1]([C@:3]1([H:11])[N:2]=[N:7][N:6]=[C:4]1[C:5]([H:12])([H:13])[H:14])([H:8])([H:9])[H:10]"
C        1.92577444       0.08604234      -0.36159769
N        1.13498988      -0.32097664       1.25407743
C        0.29724796       0.54587090       0.55216568
C       -0.84502349      -0.21091983       0.24424303
C       -2.07735338       0.17412160      -0.49425973
N       -0.65006656      -1.42960142       0.73069125
N        0.55654493      -1.49178220       1.30087569
H        1.82904780      -0.87628474      -0.85467931
H        2.89949014       0.23379914       0.09377163
H        1.78370196       0.86814716      -1.10556818
H        0.38201928       1.61121872       0.70514955
H       -2.02492383      -0.13451518      -1.53970986
H       -2.94592966      -0.30371999      -0.04097331
H       -2.26551947       1.24860014      -0.48418618
14
Frame=7 idx=006379 GeodesicLength=0.35757410503768194 rxn_smarts="[C:1]([n:2]1[c:3]([H:11])[c:4]([C:5]([H:12])([H:13])[H:14])[n:6][n:7]1)([H:8])([H:9])[H:10]>>[C:1]([C@:3]1([H:11])[N:2]=[N:7][N:6]=[C:4]1[C:5]([H:12])([H:13])[H:14])([H:8])([H:9])[H:10]"
C        1.93625472       0.09997987      -0.35579966
N        1.12971088      -0.34724838       1.23943981
C        0.29652550       0.53192723       0.54793169
C       -0.84908090      -0.22086039       0.23385764
C       -2.08427198       0.17776238      -0.49196154
N       -0.66233964      -1.44222440       0.71420853
N        0.55005090      -1.51446048       1.27750082
H        1.88902118      -0.86628704      -0.84934470
H        2.89748098       0.28859712       0.11201637
H        1.78617811       0.86683264      -1.11438711
H        0.37250377       1.59286662       0.73447808
H       -2.08231552      -0.20393958      -1.51417664
H       -2.96052458      -0.22142281       0.01939827
H       -2.21919340       1.25847721      -0.55316156
14
Frame=8 idx=006379 GeodesicLength=0.40882151933992517 rxn_smarts="[C:1]([n:2]1[c:3]([H:11])[c:4]([C:5]([H:12])([H:13])[H:14])[n:6][n:7]1)([H:8])([H:9])[H:10]>>[C:1]([C@:3]1([H:11])[N:2]=[N:7][N:6]=[C:4]1[C:5]([H:12])([H:13])[H:14])([H:8])([H:9])[H:10]"
C        1.94670444       0.11364487      -0.34988327
N        1.12449202      -0.37343818       1.22362267
C        0.29575523       0.51788887       0.54278618
C       -0.85314087      -0.23107007       0.22275237
C       -2.09130202       0.18152915      -0.48953952
N       -0.67524481      -1.45446067       0.69867398
N        0.54365611      -1.53703277       1.25317689
H        1.95041103      -0.85498432      -0.84201471
H        2.89309173       0.34322463       0.13086557
H        1.78998172       0.86452916      -1.12339952
H        0.36245696       1.57339630       0.76250325
H       -2.14349058      -0.26799512      -1.48225137
H       -2.96833104      -0.13616507       0.07522070
H       -2.17503992       1.26093324      -0.62251321
14
Frame=9 idx=006379 GeodesicLength=0.4596877251216572 rxn_smarts="[C:1]([n:2]1[c:3]([H:11])[c:4]([C:5]([H:12])([H:13])[H:14])[n:6][n:7]1)([H:8])([H:9])[H:10]>>[C:1]([C@:3]1([H:11])[N:2]=[N:7][N:6]=[C:4]1[C:5]([H:12])([H:13])[H:14])([H:8])([H:9])[H:10]"
C        1.95694378       0.12702147      -0.34396050
N        1.11941364      -0.39956016       1.20662271
C        0.29492548       0.50378307       0.53689470
C       -0.85734668      -0.24146832       0.21139126
C       -2.09831410       0.18540823      -0.48699834
N       -0.68875264      -1.46630660       0.68431194
N        0.53741202      -1.55950366       1.22795421
H        2.01283692      -0.84223488      -0.83268954
H        2.88619760       0.39749720       0.14992292
H        1.79493272       0.86127641      -1.13263743
H        0.35196861       1.55285350       0.78932809
H       -2.20719868      -0.32619587      -1.44424253
H       -2.96956384      -0.04878059       0.12580335
H       -2.13345484       1.25621021      -0.69170082
14
Frame=10 idx=006379 GeodesicLength=0.5101150939890926 rxn_smarts="[C:1]([n:2]1[c:3]([H:11])[c:4]([C:5]([H:12])([H:13])[H:14])[n:6][n:7]1)([H:8])([H:9])[H:10]>>[C:1]([C@:3]1([H:11])[N:2]=[N:7][N:6]=[C:4]1[C:5]([H:12])([H:13])[H:14])([H:8])([H:9])[H:10]"
C        1.96682246       0.14009939      -0.33813123
N        1.11454675      -0.42564345       1.18843365
C        0.29403648       0.48963978       0.53042863
C       -0.86183654      -0.25195517       0.20023540
C       -2.10519931       0.18939663      -0.48434896
N       -0.70281503      -1.47776413       0.67126660
N        0.53134584      -1.58188671       1.20185879
H        2.07594101      -0.82789506      -0.82138495
H        2.87672294       0.45124200       0.16882450
H        1.80086849       0.85713066      -1.14211080
H        0.34117287       1.53128134       0.81510615
H       -2.27228463      -0.37824835      -1.40053567
H       -2.96457894       0.03997411       0.17059208
H       -2.09474241       1.24462896      -0.76023419
14
Frame=11 idx=006379 GeodesicLength=0.5601162444729029 rxn_smarts="[C:1]([n:2]1[c:3]([H:11])[c:4]([C:5]([H:12])([H:13])[H:14])[n:6][n:7]1)([H:8])([H:9])[H:10]>>[C:1]([C@:3]1([H:11])[N:2]=[N:7][N:6]=[C:4]1[C:5]([H:12])([H:13])[H:14])([H:8])([H:9])[H:10]"
C        1.97623780       0.15289439      -0.33246311
N        1.10994370      -0.45174234       1.16903325
C        0.29309007       0.47547343       0.52354620
C       -0.86672590      -0.26244980       0.18967355
C       -2.11188637       0.19348792      -0.48159963
N       -0.71737379      -1.48885795       0.65960254
N        0.52546937      -1.60422323       1.17485659
H        2.13941512      -0.81178699      -0.80813434
H        2.86464121       0.50431560       0.18729337
H        1.80767562       0.85219961      -1.15178100
H        0.33021260       1.50869691       0.84002910
H       -2.33786038      -0.42406510      -1.35149153
H       -2.95379698       0.12955985       0.20923442
H       -2.05904207       1.22649769      -0.82779941
14
Frame=12 idx=006379 GeodesicLength=0.6096377281417371 rxn_smarts="[C:1]([n:2]1[c:3]([H:11])[c:4]([C:5]([H:12])([H:13])[H:14])[n:6][n:7]1)([H:8])([H:9])[H:10]>>[C:1]([C@:3]1([H:11])[N:2]=[N:7][N:6]=[C:4]1[C:5]([H:12])([H:13])[H:14])([H:8])([H:9])[H:10]"
C        1.98463436       0.16546360      -0.32733823
N        1.10591812      -0.47816496       1.14838894
C        0.29213419       0.46132433       0.51711137
C       -0.87233160      -0.27261387       0.18118916
C       -2.11790729       0.19770761      -0.47897630
N       -0.73257964      -1.49943872       0.65026909
N        0.51989892      -1.62673303       1.14688332
H        2.20225936      -0.79364562      -0.79352845
H        2.84976000       0.55655340       0.20437501
H        1.81432760       0.84675532      -1.16174184
H        0.31952177       1.48505671       0.86521295
H       -2.40181960      -0.46382011      -1.29783933
H       -2.93798827       0.21947772       0.24038234
H       -2.02582791       1.20207762      -0.89438800
14
Frame=13 idx=006379 GeodesicLength=0.6584518914229942 rxn_smarts="[C:1]([n:2]1[c:3]([H:11])[c:4]([C:5]([H:12])([H:13])[H:14])[n:6][n:7]1)([H:8])([H:9])[H:10]>>[C:1]([C@:3]1([H:11])[N:2]=[N:7][N:6]=[C:4]1[C:5]([H:12])([H:13])[H:14])([H:8])([H:9])[H:10]"
C        1.99300189       0.17743799      -0.32221104
N        1.10190791      -0.50393686       1.12667495
C        0.29115702       0.44742261       0.50955821
C       -0.87825408      -0.28269371       0.17281749
C       -2.12412609       0.20191678      -0.47605893
N       -0.74773326      -1.50969103       0.64135192
N        0.51421713      -1.64849952       1.11877733
H        2.26533589      -0.77400293      -0.77639378
H        2.83283358       0.60738940       0.22108296
H        1.82289599       0.84011725      -1.17189489
H        0.30888350       1.46086891       0.88835754
H       -2.46517255      -0.49623093      -1.24064644
H       -2.91758689       0.30719919       0.26566465
H       -1.99736005       1.17270287      -0.95707998
14
Frame=14 idx=006379 GeodesicLength=0.7071572743730526 rxn_smarts="[C:1]([n:2]1[c:3]([H:11])[c:4]([C:5]([H:12])([H:13])[H:14])[n:6][n:7]1)([H:8])([H:9])[H:10]>>[C:1]([C@:3]1([H:11])[N:2]=[N:7][N:6]=[C:4]1[C:5]([H:12])([H:13])[H:14])([H:8])([H:9])[H:10]"
C        2.00053357       0.18927015      -0.31750701
N        1.09837950      -0.53023758       1.10352285
C        0.29020268       0.43348752       0.50247354
C       -0.88495774      -0.29233556       0.16661400
C       -2.12981757       0.20637523      -0.47315098
N       -0.76335773      -1.51960539       0.63409806
N        0.50872167      -1.67064277       1.08913889
H        2.32802451      -0.75200334      -0.75749144
H        2.81318030       0.65760925       0.23646565
H        1.83150213       0.83298302      -1.18223887
H        0.29877681       1.43548417       0.91209542
H       -2.52675956      -0.52309427      -1.17899397
H       -2.89301067       0.39516488       0.28384446
H       -1.97141790       1.13754469      -1.01887060
14
Frame=15 idx=006379 GeodesicLength=0.7550435745357552 rxn_smarts="[C:1]([n:2]1[c:3]([H:11])[c:4]([C:5]([H:12])([H:13])[H:14])[n:6][n:7]1)([H:8])([H:9])[H:10]>>[C:1]([C@:3]1([H:11])[N:2]=[N:7][N:6]=[C:4]1[C:5]([H:12])([H:13])[H:14])([H:8])([H:9])[H:10]"
C        2.00743142       0.20052974      -0.31329777
N        1.09519199      -0.55613904       1.07926792
C        0.28928415       0.41989804       0.49528897
C       -0.89237199      -0.30143425       0.16248664
C       -2.13527445       0.21076910      -0.47007301
N       -0.77897971      -1.52906720       0.62825322
N        0.50315102      -1.69215505       1.05959904
H        2.38947119      -0.72825980      -0.73684824
H        2.79148129       0.70611555       0.25023603
H        1.84089627       0.82489793      -1.19293561
H        0.28942405       1.40961929       0.93500721
H       -2.58475639      -0.54298692      -1.11602910
H       -2.86578526       0.47962932       0.29513188
H       -1.94916357       1.09858329      -1.07608719
14
Frame=16 idx=006379 GeodesicLength=0.8032478210299542 rxn_smarts="[C:1]([n:2]1[c:3]([H:11])[c:4]([C:5]([H:12])([H:13])[H:14])[n:6][n:7]1)([H:8])([H:9])[H:10]>>[C:1]([C@:3]1([H:11])[N:2]=[N:7][N:6]=[C:4]1[C:5]([H:12])([H:13])[H:14])([H:8])([H:9])[H:10]"
C        2.01427254       0.21176477      -0.30890396
N        1.09206600      -0.58242383       1.05329349
C        0.28834433       0.40618271       0.48767236
C       -0.90027294      -0.31037461       0.15903479
C       -2.14078339       0.21542349      -0.46672285
N       -0.79466330      -1.53855505       0.62231228
N        0.49755903      -1.71398058       1.02788250
H        2.45129550      -0.70180182      -0.71335862
H        2.76744383       0.75407208       0.26370145
H        1.85184685       0.81643180      -1.20328813
H        0.28038919       1.38242664       0.95764451
H       -2.64301109      -0.55759736      -1.04736984
H       -2.83407102       0.56487143       0.30074143
H       -1.93041554       1.05356032      -1.13263941
