11
Frame=0 idx=003112 GeodesicLength=0.0 rxn_smarts="[C:1]([c:2]1[c:3]([H:10])[n:4][c:5]([H:11])[o:6]1)([H:7])([H:8])[H:9]>>[C:1]([c:2]1[c:3]([H:10])[n:4]([H:11])[c-:5][o+:6]1)([H:7])([H:8])[H:9]"
C       -1.63351201      -0.37542994      -0.08000655
C       -0.17979716      -0.10997332      -0.00251492
C        0.55568277       0.93416521       0.41057845
N        1.89453802       0.54175670       0.38192906
C        1.94590110      -0.72200496      -0.11544921
O        0.66305384      -1.10328731      -0.38755514
H       -1.90184372      -1.20275221       0.57907452
H       -2.19670082       0.50689182       0.21826220
H       -1.91718323      -0.65197336      -1.09648941
H        0.24158023       1.90011351       0.76740103
H        2.52828094       0.28249386      -0.67523006
11
Frame=1 idx=003112 GeodesicLength=0.030713666388339 rxn_smarts="[C:1]([c:2]1[c:3]([H:10])[n:4][c:5]([H:11])[o:6]1)([H:7])([H:8])[H:9]>>[C:1]([c:2]1[c:3]([H:10])[n:4]([H:11])[c-:5][o+:6]1)([H:7])([H:8])[H:9]"
C       -1.63566573      -0.37661778      -0.07812343
C       -0.18223063      -0.10776470      -0.00675353
C        0.55404542       0.93748782       0.40209750
N        1.89147661       0.54123210       0.38048857
C        1.94212953      -0.72156381      -0.11004796
O        0.66221797      -1.09919336      -0.39556933
H       -1.89945539      -1.20748599       0.57835260
H       -2.19911009       0.50312946       0.22728714
H       -1.92404082      -0.64871056      -1.09452111
H        0.24037531       1.90153999       0.76442005
H        2.55025783       0.27794684      -0.66763050
11
Frame=2 idx=003112 GeodesicLength=0.06141831901489067 rxn_smarts="[C:1]([c:2]1[c:3]([H:10])[n:4][c:5]([H:11])[o:6]1)([H:7])([H:8])[H:9]>>[C:1]([c:2]1[c:3]([H:10])[n:4]([H:11])[c-:5][o+:6]1)([H:7])([H:8])[H:9]"
C       -1.63780858      -0.37781670      -0.07622602
C       -0.18468871      -0.10561007      -0.01081321
C        0.55239120       0.94072368       0.39383903
N        1.88841476       0.54083651       0.37871584
C        1.93827329      -0.72100113      -0.10495046
O        0.66138330      -1.09509036      -0.40348896
H       -1.89714018      -1.21224713       0.57753003
H       -2.20144216       0.49933155       0.23633090
H       -1.93082677      -0.64538862      -1.09253338
H        0.23917252       1.90300106       0.76127822
H        2.57227133       0.27326122      -0.65968199
11
Frame=3 idx=003112 GeodesicLength=0.09211089819260979 rxn_smarts="[C:1]([c:2]1[c:3]([H:10])[n:4][c:5]([H:11])[o:6]1)([H:7])([H:8])[H:9]>>[C:1]([c:2]1[c:3]([H:10])[n:4]([H:11])[c-:5][o+:6]1)([H:7])([H:8])[H:9]"
C       -1.63993553      -0.37901658      -0.07434201
C       -0.18716043      -0.10354264      -0.01461289
C        0.55072147       0.94383848       0.38590133
N        1.88538233       0.54061080       0.37652164
C        1.93436947      -0.72029072      -0.10020149
O        0.66055310      -1.09104749      -0.41114965
H       -1.89497488      -1.21697382       0.57661323
H       -2.20369371       0.49554666       0.24525556
H       -1.93746111      -0.64205395      -1.09056076
H        0.23797376       1.90445304       0.75811396
H        2.59422553       0.26847621      -0.65153891
11
Frame=4 idx=003112 GeodesicLength=0.12280448102103393 rxn_smarts="[C:1]([c:2]1[c:3]([H:10])[n:4][c:5]([H:11])[o:6]1)([H:7])([H:8])[H:9]>>[C:1]([c:2]1[c:3]([H:10])[n:4]([H:11])[c-:5][o+:6]1)([H:7])([H:8])[H:9]"
C       -1.64204523      -0.38020704      -0.07249821
C       -0.18963539      -0.10159589      -0.01807109
C        0.54903556       0.94680347       0.37837086
N        1.88241009       0.54059602       0.37382014
C        1.93046104      -0.71940884      -0.09583357
O        0.65973184      -1.08713490      -0.41839250
H       -1.89303785      -1.22160697       0.57561170
H       -2.20587088       0.49182463       0.25392668
H       -1.94386718      -0.63875033      -1.08864131
H        0.23677757       1.90584995       0.75507138
H        2.61604043       0.26362990      -0.64336409
11
Frame=5 idx=003112 GeodesicLength=0.15346260523402916 rxn_smarts="[C:1]([c:2]1[c:3]([H:10])[n:4][c:5]([H:11])[o:6]1)([H:7])([H:8])[H:9]>>[C:1]([c:2]1[c:3]([H:10])[n:4]([H:11])[c-:5][o+:6]1)([H:7])([H:8])[H:9]"
C       -1.64413338      -0.38138033      -0.07071717
C       -0.19210206      -0.09980204      -0.02111499
C        0.54733277       0.94959409       0.37131825
N        1.87952348       0.54082482       0.37054248
C        1.92658219      -0.71833400      -0.09187144
O        0.65891483      -1.08341267      -0.42508531
H       -1.89139562      -1.22609790       0.57453057
H       -2.20797378       0.48820650       0.26223047
H       -1.94997622      -0.63551348      -1.08680627
H        0.23559299       1.90715169       0.75226471
H        2.63763479       0.25876332      -0.63529131
11
Frame=6 idx=003112 GeodesicLength=0.18406936533212845 rxn_smarts="[C:1]([c:2]1[c:3]([H:10])[n:4][c:5]([H:11])[o:6]1)([H:7])([H:8])[H:9]>>[C:1]([c:2]1[c:3]([H:10])[n:4]([H:11])[c-:5][o+:6]1)([H:7])([H:8])[H:9]"
C       -1.64620239      -0.38251955      -0.06903981
C       -0.19454493      -0.09821963      -0.02359686
C        0.54561010       0.95217970       0.36484587
N        1.87678299       0.54136102       0.36655790
C        1.92280952      -0.71703449      -0.08834277
O        0.65811340      -1.07999338      -0.43097421
H       -1.89018087      -1.23036390       0.57337816
H       -2.21002451       0.48477135       0.26996590
H       -1.95566343      -0.63239690      -1.08512622
H        0.23441097       1.90827786       0.74992682
H        2.65888916       0.25393792      -0.62759477
11
Frame=7 idx=003112 GeodesicLength=0.21455489709932624 rxn_smarts="[C:1]([c:2]1[c:3]([H:10])[n:4][c:5]([H:11])[o:6]1)([H:7])([H:8])[H:9]>>[C:1]([c:2]1[c:3]([H:10])[n:4]([H:11])[c-:5][o+:6]1)([H:7])([H:8])[H:9]"
C       -1.64824498      -0.38360477      -0.06751824
C       -0.19693850      -0.09694121      -0.02528319
C        0.54387549       0.95449142       0.35915523
N        1.87420402       0.54233001       0.36160847
C        1.91921416      -0.71545186      -0.08528344
O        0.65734245      -1.07703083      -0.43570385
H       -1.88957751      -1.23431946       0.57212711
H       -2.21203451       0.48161305       0.27689178
H       -1.96073621      -0.62943437      -1.08370203
H        0.23323581       1.90913868       0.74832092
H        2.67965977       0.24920934      -0.62061275
11
Frame=8 idx=003112 GeodesicLength=0.24505208614846466 rxn_smarts="[C:1]([c:2]1[c:3]([H:10])[n:4][c:5]([H:11])[o:6]1)([H:7])([H:8])[H:9]>>[C:1]([c:2]1[c:3]([H:10])[n:4]([H:11])[c-:5][o+:6]1)([H:7])([H:8])[H:9]"
C       -1.65028371      -0.38465936      -0.06608892
C       -0.19930995      -0.09586684      -0.02643647
C        0.54211177       0.95660911       0.35400948
N        1.87175441       0.54360522       0.35595654
C        1.91573699      -0.71365387      -0.08259415
O        0.65657500      -1.07435669      -0.43970289
H       -1.88938784      -1.23807339       0.57081875
H       -2.21403062       0.47862876       0.28328716
H       -1.96542323      -0.62657942      -1.08242959
H        0.23206505       1.90983371       0.74716825
H        2.70019215       0.24451278      -0.61398816
11
Frame=9 idx=003112 GeodesicLength=0.2755355177276162 rxn_smarts="[C:1]([c:2]1[c:3]([H:10])[n:4][c:5]([H:11])[o:6]1)([H:7])([H:8])[H:9]>>[C:1]([c:2]1[c:3]([H:10])[n:4]([H:11])[c-:5][o+:6]1)([H:7])([H:8])[H:9]"
C       -1.65233183      -0.38570193      -0.06470192
C       -0.20168159      -0.09491060      -0.02727969
C        0.54030874       0.95860003       0.34922747
N        1.86937821       0.54510378       0.34972430
C        1.91232335      -0.71169192      -0.08022503
O        0.65579458      -1.07183749      -0.44331553
H       -1.88944246      -1.24170791       0.56949741
H       -2.21602818       0.47573953       0.28937686
H       -1.96990804      -0.62380568      -1.08122317
H        0.23089759       1.91044089       0.74627234
H        2.72068963       0.23977130      -0.60735303
11
Frame=10 idx=003112 GeodesicLength=0.30601695661006934 rxn_smarts="[C:1]([c:2]1[c:3]([H:10])[n:4][c:5]([H:11])[o:6]1)([H:7])([H:8])[H:9]>>[C:1]([c:2]1[c:3]([H:10])[n:4]([H:11])[c-:5][o+:6]1)([H:7])([H:8])[H:9]"
C       -1.65439701      -0.38674965      -0.06331497
C       -0.20407042      -0.09401247      -0.02796867
C        0.53845918       0.96051090       0.34467687
N        1.86703942       0.54676316       0.34301087
C        1.90892522      -0.70960117      -0.07814075
O        0.65498376      -1.06936483      -0.44679406
H       -1.88961158      -1.24530658       0.56816360
H       -2.21803023       0.47286295       0.29536808
H       -1.97433183      -0.62105642      -1.08001601
H        0.22972948       1.91103791       0.74543323
H        2.74130402       0.23491621      -0.60041818
11
Frame=11 idx=003112 GeodesicLength=0.33646899301909283 rxn_smarts="[C:1]([c:2]1[c:3]([H:10])[n:4][c:5]([H:11])[o:6]1)([H:7])([H:8])[H:9]>>[C:1]([c:2]1[c:3]([H:10])[n:4]([H:11])[c-:5][o+:6]1)([H:7])([H:8])[H:9]"
C       -1.65646936      -0.38777590      -0.06199836
C       -0.20644617      -0.09328825      -0.02820246
C        0.53656999       0.96227385       0.34055282
N        1.86477983       0.54874581       0.33551619
C        1.90563207      -0.70730851      -0.07635094
O        0.65416884      -1.06714311      -0.44965237
H       -1.89013158      -1.24877080       0.56675937
H       -2.22004401       0.47011193       0.30096817
H       -1.97844660      -0.61835692      -1.07894424
H        0.22857274       1.91148859       0.74500249
H        2.76181425       0.23002332      -0.59365066
11
Frame=12 idx=003112 GeodesicLength=0.36690300343642973 rxn_smarts="[C:1]([c:2]1[c:3]([H:10])[n:4][c:5]([H:11])[o:6]1)([H:7])([H:8])[H:9]>>[C:1]([c:2]1[c:3]([H:10])[n:4]([H:11])[c-:5][o+:6]1)([H:7])([H:8])[H:9]"
C       -1.65855949      -0.38879462      -0.06071288
C       -0.20882934      -0.09264984      -0.02821237
C        0.53463097       0.96396010       0.33666931
N        1.86256351       0.55097430       0.32734546
C        1.90239249      -0.70485701      -0.07483036
O        0.65333272      -1.06504744      -0.45220401
H       -1.89084195      -1.25213189       0.56536774
H       -2.22207735       0.46743594       0.30632219
H       -1.98242176      -0.61574078      -1.07791579
H        0.22741318       1.91182923       0.74488997
H        2.78239703       0.22502201      -0.58671927
11
Frame=13 idx=003112 GeodesicLength=0.39732943951987276 rxn_smarts="[C:1]([c:2]1[c:3]([H:10])[n:4][c:5]([H:11])[o:6]1)([H:7])([H:8])[H:9]>>[C:1]([c:2]1[c:3]([H:10])[n:4]([H:11])[c-:5][o+:6]1)([H:7])([H:8])[H:9]"
C       -1.66067253      -0.38981567      -0.05943131
C       -0.21123152      -0.09205969      -0.02809957
C        0.53263772       0.96560358       0.33292490
N        1.86035798       0.55342871       0.31851448
C        1.89917333      -0.70226326      -0.07355578
O        0.65246626      -1.06301775      -0.45460072
H       -1.89166239      -1.25544592       0.56398740
H       -2.22412931       0.46478340       0.31157012
H       -1.98634684      -0.61316846      -1.07688992
H        0.22625365       1.91209557       0.74499140
H        2.80315365       0.21985949      -0.57941101
11
Frame=14 idx=003112 GeodesicLength=0.4277538667012134 rxn_smarts="[C:1]([c:2]1[c:3]([H:10])[n:4][c:5]([H:11])[o:6]1)([H:7])([H:8])[H:9]>>[C:1]([c:2]1[c:3]([H:10])[n:4]([H:11])[c-:5][o+:6]1)([H:7])([H:8])[H:9]"
C       -1.66281357      -0.39085146      -0.05812419
C       -0.21366573      -0.09147854      -0.02795621
C        0.53058468       0.96724212       0.32920837
N        1.85813441       0.55610428       0.30900691
C        1.89593699      -0.69953575      -0.07248691
O        0.65156148      -1.06098970      -0.45698634
H       -1.89250681      -1.25878885       0.56258868
H       -2.22619689       0.46208383       0.31688290
H       -1.99031507      -0.61056897      -1.07582532
H        0.22509637       1.91232601       0.74518543
H        2.82418413       0.21445704      -0.57149332
11
Frame=15 idx=003112 GeodesicLength=0.4581623338147722 rxn_smarts="[C:1]([c:2]1[c:3]([H:10])[n:4][c:5]([H:11])[o:6]1)([H:7])([H:8])[H:9]>>[C:1]([c:2]1[c:3]([H:10])[n:4]([H:11])[c-:5][o+:6]1)([H:7])([H:8])[H:9]"
C       -1.66497682      -0.39187575      -0.05685553
C       -0.21610721      -0.09099630      -0.02756454
C        0.52847861       0.96880360       0.32572372
N        1.85593001       0.55908363       0.29860069
C        1.89276739      -0.69662039      -0.07170390
O        0.65063029      -1.05912265      -0.45899898
H       -1.89357420      -1.26199504       0.56122919
H       -2.22829708       0.45948739       0.32188449
H       -1.99411917      -0.60808933      -1.07481505
H        0.22396156       1.91237970       0.74584449
H        2.84530663       0.20894516      -0.56334460
11
Frame=16 idx=003112 GeodesicLength=0.48856722043949785 rxn_smarts="[C:1]([c:2]1[c:3]([H:10])[n:4][c:5]([H:11])[o:6]1)([H:7])([H:8])[H:9]>>[C:1]([c:2]1[c:3]([H:10])[n:4]([H:11])[c-:5][o+:6]1)([H:7])([H:8])[H:9]"
C       -1.66716810      -0.39289728      -0.05560124
C       -0.21856908      -0.09056766      -0.02704302
C        0.52631297       0.97033187       0.32234804
N        1.85370975       0.56236814       0.28725064
C        1.88962975      -0.69352442      -0.07117969
O        0.64966468      -1.05736519      -0.46077490
H       -1.89478050      -1.26511183       0.55991738
H       -2.23042890       0.45694900       0.32670204
H       -1.99785403      -0.60570405      -1.07381585
H        0.22285359       1.91226599       0.74692363
H        2.86662987       0.20325543      -0.55472704
