16
Frame=0 idx=006832 GeodesicLength=0.0 rxn_smarts="[C:1]([C@@:2]1([H:11])[C:3]([H:12])([H:13])[C:4]([H:14])([H:15])/[C:5]1=[N:6]\[O:7][H:16])([H:8])([H:9])[H:10]>>[C:1]([C@@:2]1([H:11])[C:3]([H:12])([H:13])[C:4]([H:14])([H:15])[C@@:5]1([N:6])[O:7][H:16])([H:8])([H:9])[H:10]"
C       -1.30416425      -1.30550955      -0.04417723
C       -0.44729944      -0.20219687      -0.62940921
C       -0.62023651       1.26614441      -0.17062562
C        0.91534499       1.40568547      -0.06197436
C        1.01178193      -0.12260475      -0.18282907
N        1.98700608      -1.02173914      -0.19676063
O        1.75875263      -0.60700614       1.30158931
H       -2.31869430      -1.27201461      -0.44398426
H       -1.37566184      -1.21161540       1.04284169
H       -0.87744335      -2.28243729      -0.27935163
H       -0.43107519      -0.27465364      -1.72363595
H       -1.13075276       1.93842977      -0.85790933
H       -1.10775877       1.32172649       0.80390963
H        1.34427170       1.88988825       0.81206633
H        1.35512193       1.84270038      -0.96229373
H        1.24080716      -1.36479731       1.59254408
16
Frame=1 idx=006832 GeodesicLength=0.02199620928169565 rxn_smarts="[C:1]([C@@:2]1([H:11])[C:3]([H:12])([H:13])[C:4]([H:14])([H:15])/[C:5]1=[N:6]\[O:7][H:16])([H:8])([H:9])[H:10]>>[C:1]([C@@:2]1([H:11])[C:3]([H:12])([H:13])[C:4]([H:14])([H:15])[C@@:5]1([N:6])[O:7][H:16])([H:8])([H:9])[H:10]"
C       -1.30654531      -1.30420368      -0.04369009
C       -0.44771291      -0.20281311      -0.62946148
C       -0.62164018       1.26671757      -0.17410754
C        0.91380957       1.40636810      -0.06107363
C        1.01019773      -0.12078362      -0.18003560
N        1.98389071      -1.02000131      -0.19757751
O        1.76664703      -0.61119261       1.30002072
H       -2.32048118      -1.26963982      -0.44507933
H       -1.37980033      -1.20876212       1.04305346
H       -0.88163723      -2.28235983      -0.27725498
H       -0.43150332      -0.27600803      -1.72351508
H       -1.12969300       1.93764424      -0.86457111
H       -1.11238185       1.32473930       0.79865449
H        1.33833384       1.88961450       0.81576560
H        1.35752000       1.84555036      -0.95823108
H        1.26099643      -1.37486994       1.59710314
16
Frame=2 idx=006832 GeodesicLength=0.04397999097271846 rxn_smarts="[C:1]([C@@:2]1([H:11])[C:3]([H:12])([H:13])[C:4]([H:14])([H:15])/[C:5]1=[N:6]\[O:7][H:16])([H:8])([H:9])[H:10]>>[C:1]([C@@:2]1([H:11])[C:3]([H:12])([H:13])[C:4]([H:14])([H:15])[C@@:5]1([N:6])[O:7][H:16])([H:8])([H:9])[H:10]"
C       -1.30897929      -1.30287221      -0.04320100
C       -0.44814533      -0.20342928      -0.62949934
C       -0.62305360       1.26729755      -0.17762321
C        0.91224819       1.40704535      -0.06013750
C        1.00856941      -0.11897619      -0.17715895
N        1.98073675      -1.01826138      -0.19832737
O        1.77451966      -0.61538444       1.29844591
H       -2.32229436      -1.26725594      -0.44623073
H       -1.38405082      -1.20584328       1.04325457
H       -0.88587560      -2.28226161      -0.27508949
H       -0.43190749      -0.27738960      -1.72337692
H       -1.12858896       1.93685084      -0.87129390
H       -1.11705077       1.32778571       0.79332564
H        1.33232907       1.88932537       0.81949432
H        1.35992330       1.84837709      -0.95409270
H        1.28161985      -1.38500798       1.60151066
16
Frame=3 idx=006832 GeodesicLength=0.06593688157829367 rxn_smarts="[C:1]([C@@:2]1([H:11])[C:3]([H:12])([H:13])[C:4]([H:14])([H:15])/[C:5]1=[N:6]\[O:7][H:16])([H:8])([H:9])[H:10]>>[C:1]([C@@:2]1([H:11])[C:3]([H:12])([H:13])[C:4]([H:14])([H:15])[C@@:5]1([N:6])[O:7][H:16])([H:8])([H:9])[H:10]"
C       -1.31146452      -1.30151866      -0.04271804
C       -0.44859640      -0.20404406      -0.62952319
C       -0.62447365       1.26788204      -0.18116060
C        0.91066522       1.40771678      -0.05917659
C        1.00689780      -0.11718396      -0.17420012
N        1.97754007      -1.01652636      -0.19899167
O        1.78235367      -0.61957459       1.29687692
H       -2.32413149      -1.26486714      -0.44744722
H       -1.38841333      -1.20286940       1.04343692
H       -0.89015360      -2.28214330      -0.27286842
H       -0.43228801      -0.27879086      -1.72322221
H       -1.12744850       1.93605139      -0.87805243
H       -1.12174679       1.33085511       0.78794292
H        1.32627549       1.88902747       0.82323087
H        1.36232521       1.85117235      -0.94989788
H        1.30265885      -1.39518681       1.60577072
16
Frame=4 idx=006832 GeodesicLength=0.08785175825577468 rxn_smarts="[C:1]([C@@:2]1([H:11])[C:3]([H:12])([H:13])[C:4]([H:14])([H:15])/[C:5]1=[N:6]\[O:7][H:16])([H:8])([H:9])[H:10]>>[C:1]([C@@:2]1([H:11])[C:3]([H:12])([H:13])[C:4]([H:14])([H:15])[C@@:5]1([N:6])[O:7][H:16])([H:8])([H:9])[H:10]"
C       -1.31399896      -1.30014721      -0.04225044
C       -0.44906569      -0.20465591      -0.62953366
C       -0.62589709       1.26846862      -0.18470603
C        0.90906586       1.40838217      -0.05820339
C        1.00518422      -0.11540838      -0.17116059
N        1.97429631      -1.01480441      -0.19954963
O        1.79013033      -0.62375512       1.29532780
H       -2.32599034      -1.26247739      -0.44873773
H       -1.39288640      -1.19985350       1.04359155
H       -0.89446619      -2.28200597      -0.27060836
H       -0.43264524      -0.28020309      -1.72305201
H       -1.12628149       1.93524823      -0.88481821
H       -1.12644907       1.33393555       0.78252938
H        1.32019409       1.88872901       0.82695055
H        1.36471859       1.85392720      -0.94566944
H        1.32409107      -1.40537980       1.60989021
16
Frame=5 idx=006832 GeodesicLength=0.10970681386881889 rxn_smarts="[C:1]([C@@:2]1([H:11])[C:3]([H:12])([H:13])[C:4]([H:14])([H:15])/[C:5]1=[N:6]\[O:7][H:16])([H:8])([H:9])[H:10]>>[C:1]([C@@:2]1([H:11])[C:3]([H:12])([H:13])[C:4]([H:14])([H:15])[C@@:5]1([N:6])[O:7][H:16])([H:8])([H:9])[H:10]"
C       -1.31657994      -1.29876248      -0.04180836
C       -0.44955249      -0.20526321      -0.62953162
C       -0.62732046       1.26905437      -0.18824432
C        0.90745598       1.40904075      -0.05723157
C        1.00343041      -0.11365116      -0.16804253
N        1.97100027      -1.01310522      -0.19997885
O        1.79782926      -0.62791782       1.29381428
H       -2.32786841      -1.26009000      -0.45011091
H       -1.39746643      -1.19681107       1.04370915
H       -0.89880809      -2.28185068      -0.26832924
H       -0.43297969      -0.28161631      -1.72286793
H       -1.12509924       1.93444381      -0.89156016
H       -1.13113493       1.33701345       0.77711103
H        1.31410800       1.88843850       0.83062687
H        1.36709595       1.85663140      -0.94143280
H        1.34588980      -1.41555432       1.61387696
16
Frame=6 idx=006832 GeodesicLength=0.13148145518794646 rxn_smarts="[C:1]([C@@:2]1([H:11])[C:3]([H:12])([H:13])[C:4]([H:14])([H:15])/[C:5]1=[N:6]\[O:7][H:16])([H:8])([H:9])[H:10]>>[C:1]([C@@:2]1([H:11])[C:3]([H:12])([H:13])[C:4]([H:14])([H:15])[C@@:5]1([N:6])[O:7][H:16])([H:8])([H:9])[H:10]"
C       -1.31920733      -1.29737418      -0.04140488
C       -0.45005622      -0.20586378      -0.62951827
C       -0.62874120       1.26963790      -0.19175572
C        0.90584578       1.40969368      -0.05628006
C        1.00164185      -0.11191549      -0.16484837
N        1.96765015      -1.01144422      -0.20025063
O        1.80543086      -0.63205552       1.29235759
H       -2.32976800      -1.25771075      -0.45157855
H       -1.40215374      -1.19376914       1.04377872
H       -0.90317474      -2.28168408      -0.26605773
H       -0.43329142      -0.28301470      -1.72267282
H       -1.12392003       1.93364714      -0.89823852
H       -1.13577891       1.34007139       0.77172292
H        1.30805085       1.88816841       0.83422459
H        1.36945201       1.85927611      -0.93722365
H        1.36802010      -1.42566276       1.61774539
16
Frame=7 idx=006832 GeodesicLength=0.15315444986666213 rxn_smarts="[C:1]([C@@:2]1([H:11])[C:3]([H:12])([H:13])[C:4]([H:14])([H:15])/[C:5]1=[N:6]\[O:7][H:16])([H:8])([H:9])[H:10]>>[C:1]([C@@:2]1([H:11])[C:3]([H:12])([H:13])[C:4]([H:14])([H:15])[C@@:5]1([N:6])[O:7][H:16])([H:8])([H:9])[H:10]"
C       -1.32186915      -1.29598289      -0.04106070
C       -0.45057546      -0.20645623      -0.62949366
C       -0.63014818       1.27020781      -0.19520970
C        0.90423967       1.41033371      -0.05536837
C        0.99981082      -0.11020318      -0.16158354
N        1.96422673      -1.00982873      -0.20035855
O        1.81292328      -0.63614892       1.29095909
H       -2.33166585      -1.25534915      -0.45316908
H       -1.40694892      -1.19073022       1.04377425
H       -0.90755075      -2.28149837      -0.26382046
H       -0.43358640      -0.28438756      -1.72246452
H       -1.12275649       1.93284727      -0.90479161
H       -1.14033094       1.34308569       0.76641155
H        1.30205628       1.88792874       0.83770282
H        1.37176133       1.86183516      -0.93307800
H        1.39041402      -1.43565312       1.62155046
16
Frame=8 idx=006832 GeodesicLength=0.17473725819476085 rxn_smarts="[C:1]([C@@:2]1([H:11])[C:3]([H:12])([H:13])[C:4]([H:14])([H:15])/[C:5]1=[N:6]\[O:7][H:16])([H:8])([H:9])[H:10]>>[C:1]([C@@:2]1([H:11])[C:3]([H:12])([H:13])[C:4]([H:14])([H:15])[C@@:5]1([N:6])[O:7][H:16])([H:8])([H:9])[H:10]"
C       -1.32457797      -1.29459075      -0.04076052
C       -0.45111097      -0.20704264      -0.62945695
C       -0.63155111       1.27077297      -0.19862949
C        0.90263751       1.41096595      -0.05448209
C        0.99794579      -0.10851356      -0.15824199
N        1.96074900      -1.00825555      -0.20029838
O        1.82030988      -0.64021584       1.28962949
H       -2.33358634      -1.25299475      -0.45485728
H       -1.41185346      -1.18770036       1.04371640
H       -0.91195208      -2.28130281      -0.26160031
H       -0.43385855      -0.28574167      -1.72224495
H       -1.12159969       1.93205627      -0.91126865
H       -1.14483314       1.34607357       0.76114311
H        1.29610126       1.88771617       0.84109235
H        1.37404868       1.86432783      -0.92897232
H        1.41313119      -1.44555483       1.62523158
16
Frame=9 idx=006832 GeodesicLength=0.19625775255800865 rxn_smarts="[C:1]([C@@:2]1([H:11])[C:3]([H:12])([H:13])[C:4]([H:14])([H:15])/[C:5]1=[N:6]\[O:7][H:16])([H:8])([H:9])[H:10]>>[C:1]([C@@:2]1([H:11])[C:3]([H:12])([H:13])[C:4]([H:14])([H:15])[C@@:5]1([N:6])[O:7][H:16])([H:8])([H:9])[H:10]"
C       -1.32733843      -1.29319071      -0.04049986
C       -0.45166543      -0.20762478      -0.62940641
C       -0.63295139       1.27133491      -0.20202545
C        0.90103167       1.41158747      -0.05360893
C        0.99603730      -0.10684763      -0.15481944
N        1.95721098      -1.00672013      -0.20008368
O        1.82759396      -0.64426545       1.28835911
H       -2.33552537      -1.25064512      -0.45665193
H       -1.41688113      -1.18465689       1.04360569
H       -0.91638415      -2.28109324      -0.25937704
H       -0.43410922      -0.28708570      -1.72201076
H       -1.12043769       1.93127014      -0.91769058
H       -1.14930098       1.34904815       0.75589734
H        1.29016656       1.88752313       0.84441416
H        1.37631613       1.86675333      -0.92488543
H        1.43623718      -1.45538747       1.62878321
16
Frame=10 idx=006832 GeodesicLength=0.21772970528135 rxn_smarts="[C:1]([C@@:2]1([H:11])[C:3]([H:12])([H:13])[C:4]([H:14])([H:15])/[C:5]1=[N:6]\[O:7][H:16])([H:8])([H:9])[H:10]>>[C:1]([C@@:2]1([H:11])[C:3]([H:12])([H:13])[C:4]([H:14])([H:15])[C@@:5]1([N:6])[O:7][H:16])([H:8])([H:9])[H:10]"
C       -1.33015602      -1.29177814      -0.04027163
C       -0.45223967      -0.20820538      -0.62933949
C       -0.63435130       1.27189384      -0.20541117
C        0.89941745       1.41219627      -0.05273539
C        0.99408245      -0.10520538      -0.15130938
N        1.95361594      -1.00521485      -0.19972298
O        1.83478325      -0.64830830       1.28714565
H       -2.33748869      -1.24829130      -0.45854506
H       -1.42203733      -1.18158897       1.04344751
H       -0.92085804      -2.28086684      -0.25713979
H       -0.43433671      -0.28843091      -1.72175871
H       -1.11925808       1.93048450      -0.92408546
H       -1.15375319       1.35202008       0.75065058
H        1.28423224       1.88734382       0.84769072
H        1.37856932       1.86911562      -0.92079535
H        1.45977838      -1.46516405       1.63217994
16
Frame=11 idx=006832 GeodesicLength=0.2391261907827822 rxn_smarts="[C:1]([C@@:2]1([H:11])[C:3]([H:12])([H:13])[C:4]([H:14])([H:15])/[C:5]1=[N:6]\[O:7][H:16])([H:8])([H:9])[H:10]>>[C:1]([C@@:2]1([H:11])[C:3]([H:12])([H:13])[C:4]([H:14])([H:15])[C@@:5]1([N:6])[O:7][H:16])([H:8])([H:9])[H:10]"
C       -1.33302346      -1.29035690      -0.04008357
C       -0.45283123      -0.20878203      -0.62925814
C       -0.63574674       1.27244679      -0.20877096
C        0.89780156       1.41279186      -0.05187594
C        0.99208461      -0.10358626      -0.14771678
N        1.94995916      -1.00374918      -0.19920195
O        1.84186238      -0.65233803       1.28600091
H       -2.33947032      -1.24593978      -0.46053869
H       -1.42730890      -1.17851000       1.04323561
H       -0.92536575      -2.28062404      -0.25490908
H       -0.43454053      -0.28976747      -1.72149146
H       -1.11807556       1.92969794      -0.93042340
H       -1.15816536       1.35497512       0.74543077
H        1.27832102       1.88718551       0.85089769
H        1.38080306       1.87140831      -0.91672628
H        1.48369607      -1.47485185       1.63543126
16
Frame=12 idx=006832 GeodesicLength=0.26046932892928915 rxn_smarts="[C:1]([C@@:2]1([H:11])[C:3]([H:12])([H:13])[C:4]([H:14])([H:15])/[C:5]1=[N:6]\[O:7][H:16])([H:8])([H:9])[H:10]>>[C:1]([C@@:2]1([H:11])[C:3]([H:12])([H:13])[C:4]([H:14])([H:15])[C@@:5]1([N:6])[O:7][H:16])([H:8])([H:9])[H:10]"
C       -1.33594960      -1.28892371      -0.03992863
C       -0.45344241      -0.20935804      -0.62916169
C       -0.63714068       1.27299681      -0.21212073
C        0.89617931       1.41337300      -0.05101402
C        0.99003968      -0.10199186      -0.14403665
N        1.94623960      -1.00232206      -0.19853206
O        1.84883963      -0.65636830       1.28491743
H       -2.34147834      -1.24358538      -0.46262746
H       -1.43270781      -1.17540382       1.04297484
H       -0.92992073      -2.28036655      -0.25266708
H       -0.43471783      -0.29110626      -1.72120746
H       -1.11687702       1.92891014      -0.93673446
H       -1.16256399       1.35792693       0.74020905
H        1.27240884       1.88704064       0.85406386
H        1.38303097       1.87363731      -0.91264901
H        1.50806039      -1.48445884       1.63851407
16
Frame=13 idx=006832 GeodesicLength=0.2817741945061142 rxn_smarts="[C:1]([C@@:2]1([H:11])[C:3]([H:12])([H:13])[C:4]([H:14])([H:15])/[C:5]1=[N:6]\[O:7][H:16])([H:8])([H:9])[H:10]>>[C:1]([C@@:2]1([H:11])[C:3]([H:12])([H:13])[C:4]([H:14])([H:15])[C@@:5]1([N:6])[O:7][H:16])([H:8])([H:9])[H:10]"
C       -1.33894150      -1.28747355      -0.03979772
C       -0.45407386      -0.20993662      -0.62904780
C       -0.63853599       1.27354627      -0.21547567
C        0.89454453       1.41393875      -0.05013437
C        0.98794427      -0.10042337      -0.14026248
N        1.94246074      -1.00092950      -0.19772568
O        1.85572400      -0.66041265       1.28389011
H       -2.34351776      -1.24121899      -0.46480638
H       -1.43824561      -1.17225613       1.04267318
H       -0.93453527      -2.28009387      -0.25039702
H       -0.43486454      -0.29245868      -1.72090453
H       -1.11564862       1.92811714      -0.94305189
H       -1.16697257       1.36088850       0.73495899
H        1.26647228       1.88690208       0.85721611
H        1.38526021       1.87581041      -0.90853759
H        1.53292970      -1.49399979       1.64140273
16
Frame=14 idx=006832 GeodesicLength=0.30306218504686727 rxn_smarts="[C:1]([C@@:2]1([H:11])[C:3]([H:12])([H:13])[C:4]([H:14])([H:15])/[C:5]1=[N:6]\[O:7][H:16])([H:8])([H:9])[H:10]>>[C:1]([C@@:2]1([H:11])[C:3]([H:12])([H:13])[C:4]([H:14])([H:15])[C@@:5]1([N:6])[O:7][H:16])([H:8])([H:9])[H:10]"
C       -1.34200574      -1.28599568      -0.03968029
C       -0.45472774      -0.21052104      -0.62891471
C       -0.63993511       1.27409419      -0.21885714
C        0.89288820       1.41448447      -0.04921618
C        0.98579104      -0.09887930      -0.13638519
N        1.93862549      -0.99955234      -0.19679415
O        1.86251518      -0.66448542       1.28291355
H       -2.34559256      -1.23883229      -0.46706914
H       -1.44393084      -1.16903901       1.04233733
H       -0.93922102      -2.27979804      -0.24806750
H       -0.43497875      -0.29384157      -1.72057830
H       -1.11437176       1.92730920      -0.94941635
H       -1.17141535       1.36387292       0.72964172
H        1.26048156       1.88675317       0.86038887
H        1.38749877       1.87793067      -0.90435296
H        1.55837863      -1.50349994       1.64405044
16
Frame=15 idx=006832 GeodesicLength=0.32430765803162154 rxn_smarts="[C:1]([C@@:2]1([H:11])[C:3]([H:12])([H:13])[C:4]([H:14])([H:15])/[C:5]1=[N:6]\[O:7][H:16])([H:8])([H:9])[H:10]>>[C:1]([C@@:2]1([H:11])[C:3]([H:12])([H:13])[C:4]([H:14])([H:15])[C@@:5]1([N:6])[O:7][H:16])([H:8])([H:9])[H:10]"
C       -1.34514184      -1.28450084      -0.03959839
C       -0.45540413      -0.21110828      -0.62876240
C       -0.64133253       1.27463625      -0.22223288
C        0.89122294       1.41500659      -0.04828456
C        0.98358334      -0.09736703      -0.13240848
N        1.93471842      -0.99822425      -0.19570792
O        1.86920486      -0.66857084       1.28200598
H       -2.34770166      -1.23642969      -0.46943747
H       -1.44975788      -1.16579262       1.04194779
H       -0.94397531      -2.27948398      -0.24572802
H       -0.43506417      -0.29523197      -1.72023038
H       -1.11306792       1.92649370      -0.95576763
H       -1.17585419       1.36685700       0.72431057
H        1.25447999       1.88660987       0.86353433
H        1.38973656       1.87997910      -0.90014313
H        1.58435349      -1.51287300       1.64650259
16
Frame=16 idx=006832 GeodesicLength=0.34553214655159137 rxn_smarts="[C:1]([C@@:2]1([H:11])[C:3]([H:12])([H:13])[C:4]([H:14])([H:15])/[C:5]1=[N:6]\[O:7][H:16])([H:8])([H:9])[H:10]>>[C:1]([C@@:2]1([H:11])[C:3]([H:12])([H:13])[C:4]([H:14])([H:15])[C@@:5]1([N:6])[O:7][H:16])([H:8])([H:9])[H:10]"
C       -1.34835905      -1.28298196      -0.03953643
C       -0.45610498      -0.21170273      -0.62858875
C       -0.64273163       1.27517725      -0.22562854
C        0.88953979       1.41550519      -0.04731553
C        0.98131492      -0.09588626      -0.12832410
N        1.93074459      -0.99693181      -0.19448591
O        1.87579777      -0.67268994       1.28115868
H       -2.34985141      -1.23400776      -0.47190124
H       -1.45574314      -1.16248829       1.04151785
H       -0.94881102      -2.27915152      -0.24334210
H       -0.43511615      -0.29665118      -1.71985827
H       -1.11171198       1.92566717      -0.96215726
H       -1.18032381       1.36986539       0.71892121
H        1.24842756       1.88645964       0.86669654
H        1.39198931       1.88196914      -0.89586342
H        1.61093923      -1.52215231       1.64870728
