21
Frame=0 idx=007724 GeodesicLength=0.0 rxn_smarts="[C:1]([C:2]([C:3]([C:4]([C:5]([O:6][C:7]([H:19])([H:20])[H:21])([H:17])[H:18])([H:15])[H:16])([H:13])[H:14])([H:11])[H:12])([H:8])([H:9])[H:10]>>[C:1]([C:2]([C:3]1([H:13])[C:4]([H:15])([H:16])[C:5]1([H:17])[H:18])([H:11])[H:12])([H:8])([H:9])[H:10].[O:6]([C:7]([H:19])([H:20])[H:21])[H:14]"
C       -2.29930012       0.99573324      -0.23604463
C       -1.75161213      -0.23489365       0.47298796
C       -0.45590905      -0.72076498      -0.15528587
C        0.22189471      -1.88844012       0.62027392
C        1.27860894      -0.92940684       0.84257571
O        1.31232518       1.20876462       0.13217140
C        2.21149289       1.37410934      -0.89603601
H       -3.22026262       1.34562685       0.23321325
H       -2.52147726       0.77881285      -1.28380118
H       -1.56852776       1.80603114      -0.20841153
H       -1.56566983       0.00618923       1.52457985
H       -2.49236635      -1.04352818       0.46764309
H       -0.53017938      -0.99268475      -1.20784877
H        0.27446764       0.25737179      -0.16203132
H        0.47370152      -2.73597934      -0.00917442
H       -0.34264864      -2.18865731       1.49942244
H        1.33051058      -0.35950204       1.75703201
H        2.17843648      -0.95389758       0.24476266
H        3.25822389       1.25465489      -0.56241900
H        2.14870248       2.37450773      -1.35059800
H        2.05958893       0.64595304      -1.72301166
21
Frame=1 idx=007724 GeodesicLength=0.16285297593646234 rxn_smarts="[C:1]([C:2]([C:3]([C:4]([C:5]([O:6][C:7]([H:19])([H:20])[H:21])([H:17])[H:18])([H:15])[H:16])([H:13])[H:14])([H:11])[H:12])([H:8])([H:9])[H:10]>>[C:1]([C:2]([C:3]1([H:13])[C:4]([H:15])([H:16])[C:5]1([H:17])[H:18])([H:11])[H:12])([H:8])([H:9])[H:10].[O:6]([C:7]([H:19])([H:20])[H:21])[H:14]"
C       -2.32484432       0.99106876      -0.20841395
C       -1.77477915      -0.25047153       0.47930743
C       -0.47112945      -0.71909962      -0.14451583
C        0.20465998      -1.89220077       0.61907906
C        1.27356545      -0.94160326       0.82342418
O        1.34677393       1.22034429       0.09884601
C        2.26939938       1.37997021      -0.90957632
H       -3.25674514       1.31952940       0.25481735
H       -2.52838237       0.79808207      -1.26459181
H       -1.60381908       1.80847021      -0.14894513
H       -1.60390531      -0.03084641       1.53813059
H       -2.51143928      -1.06235595       0.44941505
H       -0.54549992      -0.98227572      -1.19970782
H        0.25904426       0.28408478      -0.17426896
H        0.43905060      -2.74232413      -0.01373172
H       -0.34146619      -2.19160800       1.50989159
H        1.30318840      -0.29356949       1.68062227
H        2.19270193      -0.99159342       0.25774813
H        3.30551063       1.35073867      -0.52763258
H        2.16862358       2.34762882      -1.42371792
H        2.19949206       0.59803109      -1.69617961
21
Frame=2 idx=007724 GeodesicLength=0.32455887548573337 rxn_smarts="[C:1]([C:2]([C:3]([C:4]([C:5]([O:6][C:7]([H:19])([H:20])[H:21])([H:17])[H:18])([H:15])[H:16])([H:13])[H:14])([H:11])[H:12])([H:8])([H:9])[H:10]>>[C:1]([C:2]([C:3]1([H:13])[C:4]([H:15])([H:16])[C:5]1([H:17])[H:18])([H:11])[H:12])([H:8])([H:9])[H:10].[O:6]([C:7]([H:19])([H:20])[H:21])[H:14]"
C       -2.35117376       0.98620005      -0.17995198
C       -1.79819690      -0.26584981       0.48591988
C       -0.48704301      -0.71709279      -0.13404949
C        0.18721307      -1.89538394       0.61743639
C        1.26707043      -0.95235280       0.80480612
O        1.38024654       1.23195487       0.06200001
C        2.32912215       1.38566589      -0.92303921
H       -3.29327847       1.29354217       0.27720773
H       -2.53704767       0.81749789      -1.24350809
H       -1.64014607       1.80958259      -0.08924165
H       -1.64116744      -0.06786399       1.55114627
H       -2.53052523      -1.08043414       0.43191196
H       -0.56204841      -0.97176298      -1.19169156
H        0.24238548       0.31171616      -0.18840289
H        0.40516619      -2.74742014      -0.01878948
H       -0.34039632      -2.19480937       1.51917853
H        1.27868202      -0.23388389       1.59945524
H        2.20577563      -1.02903185       0.27561062
H        3.34545196       1.45283245      -0.49661894
H        2.19404104       2.31243361      -1.50029125
H        2.34586874       0.55446002      -1.65908819
21
Frame=3 idx=007724 GeodesicLength=0.48493582858626133 rxn_smarts="[C:1]([C:2]([C:3]([C:4]([C:5]([O:6][C:7]([H:19])([H:20])[H:21])([H:17])[H:18])([H:15])[H:16])([H:13])[H:14])([H:11])[H:12])([H:8])([H:9])[H:10]>>[C:1]([C:2]([C:3]1([H:13])[C:4]([H:15])([H:16])[C:5]1([H:17])[H:18])([H:11])[H:12])([H:8])([H:9])[H:10].[O:6]([C:7]([H:19])([H:20])[H:21])[H:14]"
C       -2.37818244       0.98108292      -0.15076412
C       -1.82169574      -0.28088877       0.49298728
C       -0.50371507      -0.71492622      -0.12399918
C        0.16948462      -1.89817810       0.61521909
C        1.25941579      -0.96207101       0.78597754
O        1.41268053       1.24329095       0.02147788
C        2.39064173       1.39149936      -0.93596186
H       -3.32960546       1.26788501       0.30052106
H       -2.54774201       0.83662457      -1.22058964
H       -1.67722948       1.80933838      -0.02995257
H       -1.67692694      -0.10435290       1.56372776
H       -2.54961030      -1.09757177       0.41578217
H       -0.58013047      -0.96141502      -1.18387980
H        0.22438983       0.34004059      -0.20485373
H        0.37162406      -2.75165269      -0.02440730
H       -0.33931443      -2.19816557       1.52737739
H        1.25714406      -0.18041045       1.51345760
H        2.21745318      -1.06625370       0.29777087
H        3.37697149       1.56065505      -0.47035988
H        2.22617469       2.26840115      -1.57928601
H        2.49817234       0.51706821      -1.61024457
21
Frame=4 idx=007724 GeodesicLength=0.6437947074285969 rxn_smarts="[C:1]([C:2]([C:3]([C:4]([C:5]([O:6][C:7]([H:19])([H:20])[H:21])([H:17])[H:18])([H:15])[H:16])([H:13])[H:14])([H:11])[H:12])([H:8])([H:9])[H:10]>>[C:1]([C:2]([C:3]1([H:13])[C:4]([H:15])([H:16])[C:5]1([H:17])[H:18])([H:11])[H:12])([H:8])([H:9])[H:10].[O:6]([C:7]([H:19])([H:20])[H:21])[H:14]"
C       -2.40574098       0.97570055      -0.12091582
C       -1.84510856      -0.29548265       0.50065253
C       -0.52115119      -0.71272946      -0.11446309
C        0.15146332      -1.90073960       0.61227679
C        1.25085878      -0.97111649       0.76629856
O        1.44407205       1.25410926      -0.02289768
C        2.45388053       1.39772302      -0.94791243
H       -3.36549276       1.24273557       0.32494170
H       -2.56064123       0.85511658      -1.19590505
H       -1.71476627       1.80779295       0.02842638
H       -1.71075403      -0.13991649       1.57601954
H       -2.56867378      -1.11366205       0.40153761
H       -0.59993196      -0.95138353      -1.17635750
H        0.20495280       0.36891022      -0.22392409
H        0.33812860      -2.75530888      -0.03069635
H       -0.33806117      -2.20163599       1.53449016
H        1.23864948      -0.13312850       1.42241035
H        2.22754259      -1.10314648       0.32384232
H        3.39909578       1.67343743      -0.45019083
H        2.26648533       2.21494844      -1.65952781
H        2.65519267       0.48777608      -1.54810529
21
Frame=5 idx=007724 GeodesicLength=0.8009067383019834 rxn_smarts="[C:1]([C:2]([C:3]([C:4]([C:5]([O:6][C:7]([H:19])([H:20])[H:21])([H:17])[H:18])([H:15])[H:16])([H:13])[H:14])([H:11])[H:12])([H:8])([H:9])[H:10]>>[C:1]([C:2]([C:3]1([H:13])[C:4]([H:15])([H:16])[C:5]1([H:17])[H:18])([H:11])[H:12])([H:8])([H:9])[H:10].[O:6]([C:7]([H:19])([H:20])[H:21])[H:14]"
C       -2.43364406       0.97006071      -0.09049657
C       -1.86824878      -0.30954614       0.50902491
C       -0.53927656      -0.71061085      -0.10549169
C        0.13318549      -1.90321521       0.60850975
C        1.24165653      -0.97983729       0.74525198
O        1.47449928       1.26417872      -0.07124787
C        2.51861470       1.40456029      -0.95851555
H       -3.40069818       1.21823807       0.35055958
H       -2.57571543       0.87271248      -1.16960461
H       -1.75239469       1.80506522       0.08551647
H       -1.74231051      -0.17423251       1.58817368
H       -2.58766768      -1.12864613       0.38954760
H       -0.62148244      -0.94176046      -1.16917305
H        0.18400557       0.39821904      -0.24575819
H        0.30446960      -2.75863970      -0.03771292
H       -0.33646532      -2.20519804       1.54052119
H        1.22322746      -0.09212467       1.32601775
H        2.23586249      -1.13945410       0.35359820
H        3.41114108       1.78971665      -0.43783270
H        2.31653056       2.15179429      -1.73932157
H        2.81471088       0.46871963      -1.47156638
21
Frame=6 idx=007724 GeodesicLength=0.9559774335694847 rxn_smarts="[C:1]([C:2]([C:3]([C:4]([C:5]([O:6][C:7]([H:19])([H:20])[H:21])([H:17])[H:18])([H:15])[H:16])([H:13])[H:14])([H:11])[H:12])([H:8])([H:9])[H:10]>>[C:1]([C:2]([C:3]1([H:13])[C:4]([H:15])([H:16])[C:5]1([H:17])[H:18])([H:11])[H:12])([H:8])([H:9])[H:10].[O:6]([C:7]([H:19])([H:20])[H:21])[H:14]"
C       -2.46158213       0.96416188      -0.05975788
C       -1.89085577      -0.32296429       0.51820002
C       -0.55791128      -0.70869437      -0.09706485
C        0.11471829      -1.90577988       0.60393174
C        1.23211131      -0.98866308       0.72240806
O        1.50410445       1.27331178      -0.12343442
C        2.58436379       1.41233221      -0.96738611
H       -3.43487827       1.19458899       0.37728189
H       -2.59280740       0.88901634      -1.14201283
H       -1.78964524       1.80131131       0.14068676
H       -1.77122443      -0.20685533       1.60033113
H       -2.60646784      -1.14246357       0.38021031
H       -0.64463854      -0.93264752      -1.16230603
H        0.16157921       0.42785139      -0.27031632
H        0.27042438      -2.76195070      -0.04535115
H       -0.33434574      -2.20880065       1.54558054
H        1.21095815      -0.05771403       1.22391413
H        2.24223298      -1.17485350       0.38679582
H        3.41308073       1.90703031      -0.43504968
H        2.37769780       2.07962619      -1.81610534
H        2.97308552       0.46215652      -1.38055580
21
Frame=7 idx=007724 GeodesicLength=1.1089726487274407 rxn_smarts="[C:1]([C:2]([C:3]([C:4]([C:5]([O:6][C:7]([H:19])([H:20])[H:21])([H:17])[H:18])([H:15])[H:16])([H:13])[H:14])([H:11])[H:12])([H:8])([H:9])[H:10]>>[C:1]([C:2]([C:3]1([H:13])[C:4]([H:15])([H:16])[C:5]1([H:17])[H:18])([H:11])[H:12])([H:8])([H:9])[H:10].[O:6]([C:7]([H:19])([H:20])[H:21])[H:14]"
C       -2.48927560       0.95805306      -0.02876084
C       -1.91271669      -0.33568008       0.52827948
C       -0.57693088      -0.70711786      -0.08921068
C        0.09612190      -1.90858896       0.59852298
C        1.22241047      -0.99792892       0.69736740
O        1.53300448       1.28125644      -0.17972172
C        2.65077472       1.42129482      -0.97423766
H       -3.46776219       1.17191483       0.40519346
H       -2.61172046       0.90387444      -1.11330260
H       -1.82610337       1.79672803       0.19372492
H       -1.79720651      -0.23754072       1.61266593
H       -2.62500386      -1.15510618       0.37383241
H       -0.66939843      -0.92421970      -1.15576012
H        0.13766032       0.45763698      -0.29777893
H        0.23583797      -2.76550178      -0.05352873
H       -0.33152284      -2.21242756       1.54971589
H        1.20167878      -0.03016197       1.11535732
H        2.24646748      -1.20881852       0.42362325
H        3.40538570       2.02308268      -0.44315600
H        2.45133218       1.99934598      -1.88738399
H        3.12696683       0.46990498      -1.27544178
21
Frame=8 idx=007724 GeodesicLength=1.2598817883776303 rxn_smarts="[C:1]([C:2]([C:3]([C:4]([C:5]([O:6][C:7]([H:19])([H:20])[H:21])([H:17])[H:18])([H:15])[H:16])([H:13])[H:14])([H:11])[H:12])([H:8])([H:9])[H:10]>>[C:1]([C:2]([C:3]1([H:13])[C:4]([H:15])([H:16])[C:5]1([H:17])[H:18])([H:11])[H:12])([H:8])([H:9])[H:10].[O:6]([C:7]([H:19])([H:20])[H:21])[H:14]"
C       -2.51634035       0.95184319       0.00244181
C       -1.93358759      -0.34764614       0.53930515
C       -0.59613534      -0.70600305      -0.08193474
C        0.07746323      -1.91183010       0.59226721
C        1.21270665      -1.00800969       0.66991926
O        1.56144664       1.28772663      -0.24018727
C        2.71731318       1.43170537      -0.97884458
H       -3.49900043       1.15038626       0.43432893
H       -2.63206389       0.91728927      -1.08365101
H       -1.86125502       1.79153920       0.24455021
H       -1.82002705      -0.26615144       1.62530424
H       -2.64316776      -1.16655652       0.37052974
H       -0.69560134      -0.91655567      -1.14953397
H        0.11232836       0.48742810      -0.32812541
H        0.20063069      -2.76952855      -0.06220058
H       -0.32790093      -2.21617206       1.55290081
H        1.19518353      -0.00997294       0.99939271
H        2.24831812      -1.24062573       0.46479969
H        3.38909625       2.13551849      -0.46341280
H        2.53804648       1.91224586      -1.95050619
H        3.27254654       0.49336951      -1.15734323
21
Frame=9 idx=007724 GeodesicLength=1.4086160408525297 rxn_smarts="[C:1]([C:2]([C:3]([C:4]([C:5]([O:6][C:7]([H:19])([H:20])[H:21])([H:17])[H:18])([H:15])[H:16])([H:13])[H:14])([H:11])[H:12])([H:8])([H:9])[H:10]>>[C:1]([C:2]([C:3]1([H:13])[C:4]([H:15])([H:16])[C:5]1([H:17])[H:18])([H:11])[H:12])([H:8])([H:9])[H:10].[O:6]([C:7]([H:19])([H:20])[H:21])[H:14]"
C       -2.54242020       0.94554700       0.03361861
C       -1.95317982      -0.35878633       0.55137828
C       -0.61530977      -0.70553564      -0.07518696
C        0.05883756      -1.91565502       0.58537544
C        1.20318714      -1.01926058       0.63977535
O        1.58961093       1.29244258      -0.30507601
C        2.78329184       1.44394422      -0.98111324
H       -3.52826654       1.13012059       0.46452181
H       -2.65349305       0.92895789      -1.05339769
H       -1.89465465       1.78594586       0.29272038
H       -1.83934322      -0.29229632       1.63839693
H       -2.66078379      -1.17682391       0.37068930
H       -0.72310928      -0.90994696      -1.14353116
H        0.08567061       0.51699526      -0.36137128
H        0.16467220      -2.77436187      -0.07091834
H       -0.32326960      -2.21988733       1.55543006
H        1.19137886       0.00203943       0.87445683
H        2.24739858      -1.26925715       0.51140045
H        3.36653838       2.24063905      -0.49528841
H        2.63823229       1.82212960      -2.00215243
H        3.40501152       0.53304965      -1.02972792
21
Frame=10 idx=007724 GeodesicLength=1.5551063507642793 rxn_smarts="[C:1]([C:2]([C:3]([C:4]([C:5]([O:6][C:7]([H:19])([H:20])[H:21])([H:17])[H:18])([H:15])[H:16])([H:13])[H:14])([H:11])[H:12])([H:8])([H:9])[H:10]>>[C:1]([C:2]([C:3]1([H:13])[C:4]([H:15])([H:16])[C:5]1([H:17])[H:18])([H:11])[H:12])([H:8])([H:9])[H:10].[O:6]([C:7]([H:19])([H:20])[H:21])[H:14]"
C       -2.56686490       0.93938846       0.06436928
C       -1.97106556      -0.36880743       0.56468643
C       -0.63420958      -0.70605566      -0.06885444
C        0.04005311      -1.92054715       0.57813696
C        1.19406724      -1.03282430       0.60633136
O        1.61801408       1.29479445      -0.37373511
C        2.84787541       1.45869083      -0.98060348
H       -3.55490402       1.11166710       0.49541643
H       -2.67540541       0.93857859      -1.02304913
H       -1.92546647       1.78034615       0.33741233
H       -1.85455727      -0.31514928       1.65215385
H       -2.67768838      -1.18562073       0.37501791
H       -0.75181339      -0.90477393      -1.13759307
H        0.05812849       0.54581429      -0.39723242
H        0.12706267      -2.78078952      -0.07902838
H       -0.31759597      -2.22345526       1.55779339
H        1.19047361       0.00366858       0.73816424
H        2.24292623      -1.29398514       0.56362647
H        3.33924054       2.33740472      -0.53800420
H        2.75026801       1.73223620      -2.03967748
H        3.52146158       0.58941903      -0.89533092
21
Frame=11 idx=007724 GeodesicLength=1.699502676583028 rxn_smarts="[C:1]([C:2]([C:3]([C:4]([C:5]([O:6][C:7]([H:19])([H:20])[H:21])([H:17])[H:18])([H:15])[H:16])([H:13])[H:14])([H:11])[H:12])([H:8])([H:9])[H:10]>>[C:1]([C:2]([C:3]1([H:13])[C:4]([H:15])([H:16])[C:5]1([H:17])[H:18])([H:11])[H:12])([H:8])([H:9])[H:10].[O:6]([C:7]([H:19])([H:20])[H:21])[H:14]"
C       -2.58841939       0.93410821       0.09481134
C       -1.98662552      -0.37719795       0.57971757
C       -0.65297035      -0.70851258      -0.06328025
C        0.02053477      -1.92759044       0.57041101
C        1.18528510      -1.05074430       0.56789325
O        1.64697337       1.29351151      -0.44588950
C        2.91039659       1.47720245      -0.97588689
H       -3.57732685       1.09666931       0.52770596
H       -2.69713511       0.94638206      -0.99254479
H       -1.95172706       1.77537552       0.37797607
H       -1.86420906      -0.33356136       1.66700366
H       -2.69405115      -1.19210754       0.38507876
H       -0.78273103      -0.90229325      -1.13186369
H        0.03018545       0.57230190      -0.43673681
H        0.08607125      -2.79033361      -0.08607974
H       -0.31089037      -2.22707557       1.56020986
H        1.19241176      -0.00913694       0.58514572
H        2.23359054      -1.31385889       0.62099472
H        3.30491153       2.42884220      -0.59283039
H        2.87367015       1.64171038      -2.06078922
H        3.62205535       0.66630890      -0.75104664
21
Frame=12 idx=007724 GeodesicLength=1.8407021777462693 rxn_smarts="[C:1]([C:2]([C:3]([C:4]([C:5]([O:6][C:7]([H:19])([H:20])[H:21])([H:17])[H:18])([H:15])[H:16])([H:13])[H:14])([H:11])[H:12])([H:8])([H:9])[H:10]>>[C:1]([C:2]([C:3]1([H:13])[C:4]([H:15])([H:16])[C:5]1([H:17])[H:18])([H:11])[H:12])([H:8])([H:9])[H:10].[O:6]([C:7]([H:19])([H:20])[H:21])[H:14]"
C       -2.60676844       0.92974181       0.12496322
C       -1.99915466      -0.38391538       0.59623562
C       -0.67063346      -0.71217984      -0.05845979
C        0.00079748      -1.93663690       0.56154501
C        1.17710987      -1.07304981       0.52464609
O        1.67737511       1.29141288      -0.51513269
C        2.96883370       1.49952801      -0.96611209
H       -3.59560402       1.08434361       0.56098929
H       -2.71771761       0.95278912      -0.96202174
H       -1.97369668       1.77139932       0.41520119
H       -1.86785527      -0.34781878       1.68277709
H       -2.70883192      -1.19649444       0.40016555
H       -0.81436036      -0.90061190      -1.12654847
H        0.00296035       0.59785155      -0.47705134
H        0.04229709      -2.80235849      -0.09308612
H       -0.30279301      -2.23125296       1.56161375
H        1.19811199      -0.04109231       0.40768005
H        2.21744663      -1.32467071       0.68692199
H        3.26860356       2.51206258      -0.66378058
H        3.00368675       1.54788941      -2.06220568
H        3.70019291       0.76306328      -0.59834037
21
Frame=13 idx=007724 GeodesicLength=1.9757448145083294 rxn_smarts="[C:1]([C:2]([C:3]([C:4]([C:5]([O:6][C:7]([H:19])([H:20])[H:21])([H:17])[H:18])([H:15])[H:16])([H:13])[H:14])([H:11])[H:12])([H:8])([H:9])[H:10]>>[C:1]([C:2]([C:3]1([H:13])[C:4]([H:15])([H:16])[C:5]1([H:17])[H:18])([H:11])[H:12])([H:8])([H:9])[H:10].[O:6]([C:7]([H:19])([H:20])[H:21])[H:14]"
C       -2.61954391       0.92770681       0.15556484
C       -2.00640723      -0.38675895       0.61756573
C       -0.68931217      -0.72054046      -0.05665166
C       -0.01990971      -1.94913629       0.55184834
C        1.16894399      -1.10263287       0.46643896
O        1.70749572       1.28150619      -0.58845032
C        3.02290801       1.52883155      -0.94522269
H       -3.60531376       1.07935809       0.59956433
H       -2.73923521       0.95526595      -0.93041760
H       -1.98657846       1.77007479       0.44412716
H       -1.85741913      -0.35098790       1.70184819
H       -2.72229405      -1.19612074       0.43107224
H       -0.85469667      -0.90749554      -1.12217390
H       -0.02441508       0.61582366      -0.52741192
H       -0.00894827      -2.82140551      -0.09535075
H       -0.28938992      -2.23207330       1.56492221
H        1.20740220      -0.10934718       0.17380452
H        2.18923802      -1.31793407       0.75902018
H        3.22180918       2.58902387      -0.74129360
H        3.15345340       1.45768902      -2.03268342
H        3.75221305       0.88915289      -0.42612083
21
Frame=14 idx=007724 GeodesicLength=2.092867336871918 rxn_smarts="[C:1]([C:2]([C:3]([C:4]([C:5]([O:6][C:7]([H:19])([H:20])[H:21])([H:17])[H:18])([H:15])[H:16])([H:13])[H:14])([H:11])[H:12])([H:8])([H:9])[H:10]>>[C:1]([C:2]([C:3]1([H:13])[C:4]([H:15])([H:16])[C:5]1([H:17])[H:18])([H:11])[H:12])([H:8])([H:9])[H:10].[O:6]([C:7]([H:19])([H:20])[H:21])[H:14]"
C       -2.62560525       0.92858417       0.18386266
C       -2.00581577      -0.38421189       0.64204364
C       -0.70729170      -0.73114550      -0.06025608
C       -0.03614258      -1.96019657       0.53965323
C        1.16143496      -1.12987871       0.38629941
O        1.74245138       1.25981634      -0.61591147
C        3.06554659       1.55964015      -0.90227061
H       -3.60531436       1.08165710       0.64067517
H       -2.76057128       0.95343914      -0.90042225
H       -1.99051042       1.77316392       0.46113177
H       -1.82916142      -0.34018874       1.72185789
H       -2.73052045      -1.19047504       0.47771554
H       -0.90221837      -0.91965879      -1.12073982
H       -0.04606290       0.62804633      -0.58188171
H       -0.06176233      -2.84329812      -0.09225501
H       -0.26156752      -2.22263371       1.56879691
H        1.21434231      -0.23204609      -0.12831830
H        2.14582134      -1.27957173       0.81380007
H        3.16679194       2.65008401      -0.84166278
H        3.28922086       1.34859755      -1.95546285
H        3.77693498       1.05027618      -0.23665539
21
Frame=15 idx=007724 GeodesicLength=2.2181365948738043 rxn_smarts="[C:1]([C:2]([C:3]([C:4]([C:5]([O:6][C:7]([H:19])([H:20])[H:21])([H:17])[H:18])([H:15])[H:16])([H:13])[H:14])([H:11])[H:12])([H:8])([H:9])[H:10]>>[C:1]([C:2]([C:3]1([H:13])[C:4]([H:15])([H:16])[C:5]1([H:17])[H:18])([H:11])[H:12])([H:8])([H:9])[H:10].[O:6]([C:7]([H:19])([H:20])[H:21])[H:14]"
C       -2.63598687       0.92577972       0.21503257
C       -2.00910238      -0.38856958       0.65919002
C       -0.72207158      -0.73296099      -0.06425708
C       -0.03881671      -1.95805066       0.52347978
C        1.15278516      -1.12087733       0.32082110
O        1.78564899       1.20902321      -0.64564426
C        3.10700132       1.56626764      -0.87377293
H       -3.61333712       1.07201877       0.67913968
H       -2.77836310       0.95969383      -0.86809267
H       -2.00294691       1.77120085       0.49461315
H       -1.81535640      -0.34876758       1.73622440
H       -2.73603137      -1.19382657       0.50055825
H       -0.93641346      -0.91601470      -1.12207500
H       -0.06360648       0.65479746      -0.61677897
H       -0.08055567      -2.84556568      -0.10124134
H       -0.22656451      -2.21234088       1.56205889
H        1.19865676      -0.33061579      -0.35311804
H        2.08722458      -1.19916889       0.86564775
H        3.12877006       2.65977841      -0.94258579
H        3.41984834       1.24578318      -1.87483348
H        3.77921735       1.18241558      -0.09436602
21
Frame=16 idx=007724 GeodesicLength=2.3487633729548354 rxn_smarts="[C:1]([C:2]([C:3]([C:4]([C:5]([O:6][C:7]([H:19])([H:20])[H:21])([H:17])[H:18])([H:15])[H:16])([H:13])[H:14])([H:11])[H:12])([H:8])([H:9])[H:10]>>[C:1]([C:2]([C:3]1([H:13])[C:4]([H:15])([H:16])[C:5]1([H:17])[H:18])([H:11])[H:12])([H:8])([H:9])[H:10].[O:6]([C:7]([H:19])([H:20])[H:21])[H:14]"
C       -2.64913414       0.91972837       0.24473573
C       -2.01777856      -0.39936077       0.66834255
C       -0.73271987      -0.72912232      -0.06428984
C       -0.03631720      -1.95056893       0.50845733
C        1.14466344      -1.09572269       0.27790504
O        1.83448910       1.15727626      -0.66228981
C        3.14814158       1.56163772      -0.86153863
H       -3.62936975       1.05272430       0.70679189
H       -2.78716972       0.97352754      -0.83818446
H       -2.02258506       1.76406777       0.54189969
H       -1.82077934      -0.37517788       1.74523488
H       -2.74223518      -1.20413886       0.49737974
H       -0.95267574      -0.89810371      -1.12337271
H       -0.07480702       0.69451025      -0.62910443
H       -0.08086900      -2.83682009      -0.11776054
H       -0.19634054      -2.20690389       1.55102144
H        1.17375682      -0.39715447      -0.49738462
H        2.02493995      -1.11474097       0.91307205
H        3.11185201       2.63994949      -1.04884676
H        3.52387911       1.15126701      -1.80605540
H        3.78105913       1.29312587      -0.00601313
