10
Frame=0 idx=003941 GeodesicLength=0.0 rxn_smarts="[O:1]=[C:2]([N:3]([C:4]([C:5]#[N:6])([H:9])[H:10])[H:8])[H:7]>>[O:1]=[C:5]1[C:4]([H:9])([H:10])[N:3]([H:8])[C:2]([H:7])=[N:6]1"
O       -0.53934526       1.45608849      -0.47746499
C       -0.77432062       0.10941109      -0.79712053
N       -0.66266202      -0.57835262       0.51521109
C        0.66481662       0.04832415       0.92662299
C        0.70091486       0.70825108      -0.44327248
N        0.70869716      -0.04557133      -1.47437385
H       -1.59020619      -0.16405004      -1.45804160
H       -0.50834899      -1.56943799       0.36088949
H        0.54245141       0.71282803       1.77549319
H        1.45800303      -0.67749086       1.07205669
10
Frame=1 idx=003941 GeodesicLength=0.13798558160028512 rxn_smarts="[O:1]=[C:2]([N:3]([C:4]([C:5]#[N:6])([H:9])[H:10])[H:8])[H:7]>>[O:1]=[C:5]1[C:4]([H:9])([H:10])[N:3]([H:8])[C:2]([H:7])=[N:6]1"
O       -0.53422274       1.47689134      -0.47472223
C       -0.78555398       0.10678651      -0.79346518
N       -0.65677011      -0.58297917       0.50756708
C        0.66444351       0.04404380       0.92204243
C        0.72225584       0.71055979      -0.44438252
N        0.72213224      -0.03860834      -1.47958681
H       -1.60586357      -0.17711036      -1.44547447
H       -0.51725757      -1.57658549       0.36103610
H        0.53076140       0.71314977       1.76604142
H        1.46007499      -0.67614786       1.08094417
10
Frame=2 idx=003941 GeodesicLength=0.2759274103026805 rxn_smarts="[O:1]=[C:2]([N:3]([C:4]([C:5]#[N:6])([H:9])[H:10])[H:8])[H:7]>>[O:1]=[C:5]1[C:4]([H:9])([H:10])[N:3]([H:8])[C:2]([H:7])=[N:6]1"
O       -0.52902475       1.49805859      -0.47168158
C       -0.79719655       0.10397702      -0.78984941
N       -0.65073987      -0.58776955       0.49960415
C        0.66407632       0.03979484       0.91721359
C        0.74414967       0.71276773      -0.44537183
N        0.73591087      -0.03137241      -1.48484913
H       -1.62182260      -0.19047865      -1.43271280
H       -0.52634953      -1.58371745       0.36132730
H        0.51908733       0.71338022       1.75624640
H        1.46190913      -0.67464035       1.09007330
10
Frame=3 idx=003941 GeodesicLength=0.41384027983107574 rxn_smarts="[O:1]=[C:2]([N:3]([C:4]([C:5]#[N:6])([H:9])[H:10])[H:8])[H:7]>>[O:1]=[C:5]1[C:4]([H:9])([H:10])[N:3]([H:8])[C:2]([H:7])=[N:6]1"
O       -0.52373347       1.51961415      -0.46832121
C       -0.80927224       0.10096874      -0.78627569
N       -0.64456055      -0.59272838       0.49128977
C        0.66371677       0.03557563       0.91211839
C        0.76663843       0.71487047      -0.44623165
N        0.75004951      -0.02383391      -1.49016401
H       -1.63810573      -0.20419478      -1.41973502
H       -0.53563794      -1.59082393       0.36178327
H        0.50742276       0.71351545       1.74608957
H        1.46348246      -0.67296344       1.09944659
10
Frame=4 idx=003941 GeodesicLength=0.5517471466678022 rxn_smarts="[O:1]=[C:2]([N:3]([C:4]([C:5]#[N:6])([H:9])[H:10])[H:8])[H:7]>>[O:1]=[C:5]1[C:4]([H:9])([H:10])[N:3]([H:8])[C:2]([H:7])=[N:6]1"
O       -0.51832973       1.54158313      -0.46461810
C       -0.82180731       0.09774327      -0.78274696
N       -0.63821916      -0.59786268       0.48258603
C        0.66336698       0.03138576       0.90673597
C        0.78976859       0.71686134      -0.44695136
N        0.76456591      -0.01595899      -1.49553510
H       -1.65473814      -0.21829709      -1.40651581
H       -0.54513563      -1.59789389       0.36242841
H        0.49575938       0.71355115       1.73554791
H        1.46476910      -0.67111200       1.10906901
10
Frame=5 idx=003941 GeodesicLength=0.6896520606131967 rxn_smarts="[O:1]=[C:2]([N:3]([C:4]([C:5]#[N:6])([H:9])[H:10])[H:8])[H:7]>>[O:1]=[C:5]1[C:4]([H:9])([H:10])[N:3]([H:8])[C:2]([H:7])=[N:6]1"
O       -0.51280201       1.56398782      -0.46054835
C       -0.83482819       0.09428319      -0.77926228
N       -0.63169773      -0.60317908       0.47345465
C        0.66303230       0.02722328       0.90104234
C        0.81358674       0.71872884      -0.44751858
N        0.77947723      -0.00770961      -1.50096715
H       -1.67174016      -0.23282391      -1.39303960
H       -0.55486144      -1.60491239       0.36329605
H        0.48409162       0.71348271       1.72460059
H        1.46574163      -0.66908084       1.11894233
10
Frame=6 idx=003941 GeodesicLength=0.827569723841421 rxn_smarts="[O:1]=[C:2]([N:3]([C:4]([C:5]#[N:6])([H:9])[H:10])[H:8])[H:7]>>[O:1]=[C:5]1[C:4]([H:9])([H:10])[N:3]([H:8])[C:2]([H:7])=[N:6]1"
O       -0.50712472       1.58685498      -0.45608403
C       -0.84836425       0.09056596      -0.77582636
N       -0.62498058      -0.60868794       0.46384673
C        0.66271445       0.02308632       0.89501142
C        0.83814572       0.72046567      -0.44792023
N        0.79480465       0.00095831      -1.50646308
H       -1.68913728      -0.24782128      -1.37927214
H       -0.56483500      -1.61186371       0.36442114
H        0.47240821       0.71330405       1.71321761
H        1.46636880      -0.66686236       1.12906894
10
Frame=7 idx=003941 GeodesicLength=0.9655072509548334 rxn_smarts="[O:1]=[C:2]([N:3]([C:4]([C:5]#[N:6])([H:9])[H:10])[H:8])[H:7]>>[O:1]=[C:5]1[C:4]([H:9])([H:10])[N:3]([H:8])[C:2]([H:7])=[N:6]1"
O       -0.50128155       1.61020996      -0.45119313
C       -0.86244538       0.08656497      -0.77243843
N       -0.61804671      -0.61439937       0.45371194
C        0.66241826       0.01897124       0.88861383
C        0.86349902       0.72206119      -0.44814087
N        0.81056817       0.01009551      -1.51202666
H       -1.70694880      -0.26333579      -1.36519590
H       -0.57508320      -1.61872504       0.36585382
H        0.46070321       0.71300970       1.70136920
H        1.46661699      -0.66445236       1.13944619
10
Frame=8 idx=003941 GeodesicLength=1.1034809577313482 rxn_smarts="[O:1]=[C:2]([N:3]([C:4]([C:5]#[N:6])([H:9])[H:10])[H:8])[H:7]>>[O:1]=[C:5]1[C:4]([H:9])([H:10])[N:3]([H:8])[C:2]([H:7])=[N:6]1"
O       -0.49525167       1.63408017      -0.44584322
C       -0.87710384       0.08224851      -0.76910241
N       -0.61087211      -0.62032890       0.44298774
C        0.66214782       0.01487600       0.88181539
C        0.88970875       0.72350108      -0.44816132
N        0.82679202       0.01976222      -1.51766101
H       -1.72519769      -0.27941506      -1.35077701
H       -0.58563652      -1.62547085       0.36765195
H        0.44896495       0.71258988       1.68901677
H        1.46644829      -0.66184305       1.15007312
10
Frame=9 idx=003941 GeodesicLength=1.2414967232271688 rxn_smarts="[O:1]=[C:2]([N:3]([C:4]([C:5]#[N:6])([H:9])[H:10])[H:8])[H:7]>>[O:1]=[C:5]1[C:4]([H:9])([H:10])[N:3]([H:8])[C:2]([H:7])=[N:6]1"
O       -0.48901864       1.65849577      -0.43998748
C       -0.89236458       0.07757281      -0.76581542
N       -0.60342406      -0.62648640       0.43160432
C        0.66191330       0.01078952       0.87457107
C        0.91683019       0.72477562      -0.44795847
N        0.84350300       0.03003449      -1.52337355
H       -1.74389140      -0.29612837      -1.33600636
H       -0.59655604      -1.63205175       0.36991047
H        0.43718438       0.71203066       1.67612996
H        1.46582384      -0.65903235       1.16092547
10
Frame=10 idx=003941 GeodesicLength=1.3795502679911533 rxn_smarts="[O:1]=[C:2]([N:3]([C:4]([C:5]#[N:6])([H:9])[H:10])[H:8])[H:7]>>[O:1]=[C:5]1[C:4]([H:9])([H:10])[N:3]([H:8])[C:2]([H:7])=[N:6]1"
O       -0.48256226       1.68347884      -0.43359425
C       -0.90826829       0.07250997      -0.76258299
N       -0.59566880      -0.63290427       0.41947762
C        0.66171962       0.00671284       0.86684251
C        0.94494193       0.72585731      -0.44751167
N        0.86073093       0.04098826      -1.52916404
H       -1.76306385      -0.31351801      -1.32083322
H       -0.60786876      -1.63843422       0.37270051
H        0.42534329       0.71131985       1.66265194
H        1.46469620      -0.65601058       1.17201359
10
Frame=11 idx=003941 GeodesicLength=1.517629328351925 rxn_smarts="[O:1]=[C:2]([N:3]([C:4]([C:5]#[N:6])([H:9])[H:10])[H:8])[H:7]>>[O:1]=[C:5]1[C:4]([H:9])([H:10])[N:3]([H:8])[C:2]([H:7])=[N:6]1"
O       -0.47586781       1.70905632      -0.42661446
C       -0.92484855       0.06701845      -0.75940407
N       -0.58756245      -0.63960820       0.40651118
C        0.66157679       0.00263784       0.85857843
C        0.97411397       0.72672460      -0.44679488
N        0.87850968       0.05272166      -1.53503682
H       -1.78272292      -0.33165561      -1.30523257
H       -0.61964201      -1.64455499       0.37614417
H        0.41342928       0.71043504       1.64853182
H        1.46301402      -0.65277511       1.18331720
10
Frame=12 idx=003941 GeodesicLength=1.6557355906053688 rxn_smarts="[O:1]=[C:2]([N:3]([C:4]([C:5]#[N:6])([H:9])[H:10])[H:8])[H:7]>>[O:1]=[C:5]1[C:4]([H:9])([H:10])[N:3]([H:8])[C:2]([H:7])=[N:6]1"
O       -0.46891937       1.73525471      -0.41899258
C       -0.94214067       0.06104350      -0.75628333
N       -0.57905126      -0.64663879       0.39258579
C        0.66149773      -0.00144870       0.84971860
C        1.00442699       0.72735571      -0.44577944
N        0.89688215       0.06535090      -1.54099459
H       -1.80288250      -0.35061222      -1.28916787
H       -0.63195660      -1.65033189       0.38039096
H        0.40141854       0.70935185       1.63370684
H        1.46072499      -0.64932506       1.19481564
10
Frame=13 idx=003941 GeodesicLength=1.7938342940835323 rxn_smarts="[O:1]=[C:2]([N:3]([C:4]([C:5]#[N:6])([H:9])[H:10])[H:8])[H:7]>>[O:1]=[C:5]1[C:4]([H:9])([H:10])[N:3]([H:8])[C:2]([H:7])=[N:6]1"
O       -0.46170834       1.76209828      -0.41065888
C       -0.96017578       0.05452497      -0.75322063
N       -0.57007110      -0.65404267       0.37756578
C        0.66149759      -0.00556048       0.84019504
C        1.03595585       0.72772932      -0.44443393
N        0.91588813       0.07901026      -1.54704000
H       -1.82353649      -0.37047729      -1.27262876
H       -0.64491755      -1.65564303       0.38564035
H        0.38929740       0.70802597       1.61810861
H        1.45777030      -0.64566533       1.20647243
10
Frame=14 idx=003941 GeodesicLength=1.9319182860638782 rxn_smarts="[O:1]=[C:2]([N:3]([C:4]([C:5]#[N:6])([H:9])[H:10])[H:8])[H:7]>>[O:1]=[C:5]1[C:4]([H:9])([H:10])[N:3]([H:8])[C:2]([H:7])=[N:6]1"
O       -0.45423238       1.78960839      -0.40153037
C       -0.97897936       0.04738517      -0.75023097
N       -0.56053237      -0.66188982       0.36126471
C        0.66159772      -0.00972294       0.82991918
C        1.06879490       0.72781880      -0.44271354
N        0.93558909       0.09388380      -1.55317080
H       -1.84467867      -0.39136113      -1.25558164
H       -0.65868294      -1.66031494       0.39216411
H        0.37703349       0.70639642       1.60164601
H        1.45409053      -0.64180377       1.21823331
10
Frame=15 idx=003941 GeodesicLength=2.069928685533711 rxn_smarts="[O:1]=[C:2]([N:3]([C:4]([C:5]#[N:6])([H:9])[H:10])[H:8])[H:7]>>[O:1]=[C:5]1[C:4]([H:9])([H:10])[N:3]([H:8])[C:2]([H:7])=[N:6]1"
O       -0.44650832       1.81779263      -0.39150277
C       -0.99856511       0.03953074      -0.74733117
N       -0.55031987      -0.67027397       0.34345743
C        0.66182478      -0.01397514       0.81878717
C        1.10302735       0.72760196      -0.44057243
N        0.95604953       0.11018662      -1.55938606
H       -1.86627325      -0.41338794      -1.23802196
H       -0.67345607      -1.66408540       0.40032838
H        0.36459409       0.70437090       1.58422194
H        1.44962687      -0.63776040       1.23001948
10
Frame=16 idx=003941 GeodesicLength=2.2078666191744203 rxn_smarts="[O:1]=[C:2]([N:3]([C:4]([C:5]#[N:6])([H:9])[H:10])[H:8])[H:7]>>[O:1]=[C:5]1[C:4]([H:9])([H:10])[N:3]([H:8])[C:2]([H:7])=[N:6]1"
O       -0.43857635       1.84665632      -0.38042954
C       -1.01893782       0.03083586      -0.74454997
N       -0.53926060      -0.67934230       0.32383152
C        0.66222096      -0.01837698       0.80665939
C        1.13875428       0.72706022      -0.43796312
N        0.97737254       0.12821819      -1.56570150
H       -1.88826186      -0.43672421      -1.21996537
H       -0.68956081      -1.66657158       0.41067645
H        0.35192009       0.70181607       1.56573077
H        1.44432957      -0.63357158       1.24171139
