17
Frame=0 idx=010115 GeodesicLength=0.0 rxn_smarts="[C:1]([C@@:2]1([H:11])[C:3]([H:12])([H:13])[C@:4]1([C:5]([C:6](=[O:7])[H:17])([H:15])[H:16])[H:14])([H:8])([H:9])[H:10]>>[C:1]([C@@:2]1([H:11])[C:3]([H:12])([H:13])[C@:4]1([O:7][C:6](=[C:5]([H:15])[H:16])[H:17])[H:14])([H:8])([H:9])[H:10]"
C       -1.83664270      -0.25456349       0.28096984
C       -1.02384940       0.82138734      -0.37769403
C       -0.07969110       1.67039666       0.47325104
C        0.44441089       0.78288979      -0.54984851
C        0.92366973      -1.56696577      -0.37799697
C        1.98131617      -1.04165674       0.33856606
O        2.25347068       0.18128675       0.31352872
H       -2.77547023       0.14707932       0.66767159
H       -1.28014006      -0.70564045       1.10255653
H       -2.06836205      -1.04412843      -0.43747949
H       -1.52713845       1.31068518      -1.21017234
H        0.02533769       2.74159401       0.34514531
H        0.00557197       1.33189688       1.49985460
H        0.95591406       1.10322497      -1.44175614
H        0.83723298      -1.23172081      -1.40475945
H        0.53601798      -2.55838168      -0.17122179
H        2.62835178      -1.68738357       0.94938504
17
Frame=1 idx=010115 GeodesicLength=0.052614539083363304 rxn_smarts="[C:1]([C@@:2]1([H:11])[C:3]([H:12])([H:13])[C@:4]1([C:5]([C:6](=[O:7])[H:17])([H:15])[H:16])[H:14])([H:8])([H:9])[H:10]>>[C:1]([C@@:2]1([H:11])[C:3]([H:12])([H:13])[C@:4]1([O:7][C:6](=[C:5]([H:15])[H:16])[H:17])[H:14])([H:8])([H:9])[H:10]"
C       -1.84207389      -0.25265282       0.28617750
C       -1.02031597       0.81474155      -0.37620231
C       -0.08225902       1.66813611       0.47404242
C        0.45051968       0.76818836      -0.53760531
C        0.92639135      -1.55323058      -0.39087182
C        1.99848695      -1.04312152       0.31868031
O        2.25213106       0.18529401       0.32649973
H       -2.78021894       0.15618548       0.66684899
H       -1.29160887      -0.70197110       1.11288949
H       -2.07565418      -1.04566139      -0.42786918
H       -1.51795399       1.30199909      -1.21298131
H        0.02126349       2.73801437       0.33524513
H       -0.00404550       1.34088430       1.50482373
H        0.95877609       1.09331283      -1.43049530
H        0.84756610      -1.23777492      -1.42460375
H        0.53483204      -2.54073134      -0.17243158
H        2.62416361      -1.69161243       0.94785326
17
Frame=2 idx=010115 GeodesicLength=0.1048279377121 rxn_smarts="[C:1]([C@@:2]1([H:11])[C:3]([H:12])([H:13])[C@:4]1([C:5]([C:6](=[O:7])[H:17])([H:15])[H:16])[H:14])([H:8])([H:9])[H:10]>>[C:1]([C@@:2]1([H:11])[C:3]([H:12])([H:13])[C@:4]1([O:7][C:6](=[C:5]([H:15])[H:16])[H:17])[H:14])([H:8])([H:9])[H:10]"
C       -1.84744216      -0.25065445       0.29119722
C       -1.01675265       0.80814064      -0.37474743
C       -0.08494042       1.66608811       0.47471950
C        0.45656334       0.75374586      -0.52515684
C        0.92929277      -1.53975580      -0.40329739
C        2.01445933      -1.04419381       0.30040092
O        2.25010577       0.18854552       0.34030220
H       -2.78497168       0.16527056       0.66554758
H       -1.30316246      -0.69797448       1.12317506
H       -2.08266015      -1.04719003      -0.41837524
H       -1.50866135       1.29316403      -1.21591662
H        0.01710501       2.73452033       0.32512719
H       -0.01397449       1.35029603       1.50956338
H        0.96191431       1.08341180      -1.41888919
H        0.85738277      -1.24378211      -1.44337710
H        0.53386123      -2.52320671      -0.17329594
H        2.62188082      -1.69642548       0.94302270
17
Frame=3 idx=010115 GeodesicLength=0.1566503418530166 rxn_smarts="[C:1]([C@@:2]1([H:11])[C:3]([H:12])([H:13])[C@:4]1([C:5]([C:6](=[O:7])[H:17])([H:15])[H:16])[H:14])([H:8])([H:9])[H:10]>>[C:1]([C@@:2]1([H:11])[C:3]([H:12])([H:13])[C@:4]1([O:7][C:6](=[C:5]([H:15])[H:16])[H:17])[H:14])([H:8])([H:9])[H:10]"
C       -1.85285922      -0.24852062       0.29595135
C       -1.01320123       0.80162059      -0.37335333
C       -0.08774700       1.66421859       0.47530427
C        0.46250736       0.73954506      -0.51249874
C        0.93225390      -1.52655867      -0.41505714
C        2.02908961      -1.04481644       0.28404539
O        2.24745206       0.19112400       0.35492931
H       -2.78986909       0.17439024       0.66361125
H       -1.31499628      -0.69358703       1.13339782
H       -2.08944081      -1.04867515      -0.40908426
H       -1.49926854       1.28427186      -1.21899370
H        0.01291957       2.73107366       0.31485757
H       -0.02423957       1.36005218       1.51408019
H        0.96531093       1.07348883      -1.40694303
H        0.86674049      -1.24981546      -1.46094617
H        0.53306613      -2.50587381      -0.17362397
H        2.62228166      -1.70193783       0.93432319
17
Frame=4 idx=010115 GeodesicLength=0.20815947005621097 rxn_smarts="[C:1]([C@@:2]1([H:11])[C:3]([H:12])([H:13])[C@:4]1([C:5]([C:6](=[O:7])[H:17])([H:15])[H:16])[H:14])([H:8])([H:9])[H:10]>>[C:1]([C@@:2]1([H:11])[C:3]([H:12])([H:13])[C@:4]1([O:7][C:6](=[C:5]([H:15])[H:16])[H:17])[H:14])([H:8])([H:9])[H:10]"
C       -1.85817544      -0.24634745       0.30059342
C       -1.00963456       0.79513626      -0.37194823
C       -0.09057383       1.66248899       0.47577687
C        0.46835877       0.72561038      -0.49976231
C        0.93533461      -1.51360300      -0.42664026
C        2.04273335      -1.04505001       0.26880812
O        2.24430987       0.19309025       0.37000676
H       -2.79470707       0.18341233       0.66135975
H       -1.32681700      -0.68893799       1.14359169
H       -2.09595462      -1.05018445      -0.39984072
H       -1.48987473       1.27528447      -1.22206040
H        0.00873755       2.72764864       0.30444351
H       -0.03458822       1.37007833       1.51832828
H        0.96883607       1.06369280      -1.39482795
H        0.87561323      -1.25573626      -1.47779935
H        0.53251849      -2.48871588      -0.17393605
H        2.62388353      -1.70786742       0.92390688
17
Frame=5 idx=010115 GeodesicLength=0.25937727129755844 rxn_smarts="[C:1]([C@@:2]1([H:11])[C:3]([H:12])([H:13])[C@:4]1([C:5]([C:6](=[O:7])[H:17])([H:15])[H:16])[H:14])([H:8])([H:9])[H:10]>>[C:1]([C@@:2]1([H:11])[C:3]([H:12])([H:13])[C@:4]1([O:7][C:6](=[C:5]([H:15])[H:16])[H:17])[H:14])([H:8])([H:9])[H:10]"
C       -1.86345167      -0.24410199       0.30506506
C       -1.00606784       0.78870631      -0.37053662
C       -0.09341099       1.66083986       0.47616704
C        0.47409856       0.71190139      -0.48694851
C        0.93846051      -1.50089812      -0.43788557
C        2.05529522      -1.04492571       0.25492541
O        2.24073446       0.19448212       0.38545173
H       -2.79955282       0.19238476       0.65869388
H       -1.33874815      -0.68399954       1.15372255
H       -2.10223537      -1.05167789      -0.39071206
H       -1.48047457       1.26628325      -1.22509037
H        0.00462305       2.72418191       0.29396486
H       -0.04500976       1.38026182       1.52231294
H        0.97245959       1.05396655      -1.38255256
H        0.88409920      -1.26162375      -1.49382459
H        0.53218951      -2.47176629      -0.17411215
H        2.62699107      -1.71401468       0.91135895
17
Frame=6 idx=010115 GeodesicLength=0.3103626500571275 rxn_smarts="[C:1]([C@@:2]1([H:11])[C:3]([H:12])([H:13])[C@:4]1([C:5]([C:6](=[O:7])[H:17])([H:15])[H:16])[H:14])([H:8])([H:9])[H:10]>>[C:1]([C@@:2]1([H:11])[C:3]([H:12])([H:13])[C@:4]1([O:7][C:6](=[C:5]([H:15])[H:16])[H:17])[H:14])([H:8])([H:9])[H:10]"
C       -1.86860588      -0.24185597       0.30946154
C       -1.00248742       0.78229862      -0.36907459
C       -0.09617955       1.65922778       0.47647499
C        0.47973668       0.69842637      -0.47415688
C        0.94170593      -1.48839005      -0.44909447
C        2.06713905      -1.04445211       0.24180064
O        2.23685990       0.19536756       0.40096315
H       -2.80429213       0.20121435       0.65581965
H       -1.35061183      -0.67887630       1.16380965
H       -2.10827827      -1.05320298      -0.38161020
H       -1.47114140       1.25725962      -1.22798552
H        0.00060784       2.72064607       0.28345492
H       -0.05531826       1.39051522       1.52602225
H        0.97608329       1.04441441      -1.37025237
H        0.89216172      -1.26739137      -1.50935700
H        0.53214851      -2.45498969      -0.17444294
H        2.63047181      -1.72021153       0.89816716
17
Frame=7 idx=010115 GeodesicLength=0.3611962746705161 rxn_smarts="[C:1]([C@@:2]1([H:11])[C:3]([H:12])([H:13])[C@:4]1([C:5]([C:6](=[O:7])[H:17])([H:15])[H:16])[H:14])([H:8])([H:9])[H:10]>>[C:1]([C@@:2]1([H:11])[C:3]([H:12])([H:13])[C@:4]1([O:7][C:6](=[C:5]([H:15])[H:16])[H:17])[H:14])([H:8])([H:9])[H:10]"
C       -1.87366000      -0.23959080       0.31379632
C       -0.99888921       0.77589918      -0.36756156
C       -0.09890145       1.65765938       0.47670420
C        0.48528452       0.68516150      -0.46134353
C        0.94505332      -1.47607151      -0.46027498
C        2.07840482      -1.04370102       0.22925911
O        2.23264590       0.19573926       0.41665496
H       -2.80894618       0.20994276       0.65271955
H       -1.36244673      -0.67353916       1.17387565
H       -2.11410352      -1.05475775      -0.37249830
H       -1.46183675       1.24816350      -1.23078418
H       -0.00333760       2.71704182       0.27288707
H       -0.06556729       1.40088029       1.52947018
H        0.97973557       1.03502961      -1.35786648
H        0.89978847      -1.27303819      -1.52442761
H        0.53237965      -2.43837359      -0.17491604
H        2.63439650      -1.72644528       0.88430563
17
Frame=8 idx=010115 GeodesicLength=0.41185126286698376 rxn_smarts="[C:1]([C@@:2]1([H:11])[C:3]([H:12])([H:13])[C@:4]1([C:5]([C:6](=[O:7])[H:17])([H:15])[H:16])[H:14])([H:8])([H:9])[H:10]>>[C:1]([C@@:2]1([H:11])[C:3]([H:12])([H:13])[C@:4]1([O:7][C:6](=[C:5]([H:15])[H:16])[H:17])[H:14])([H:8])([H:9])[H:10]"
C       -1.87860284      -0.23732664       0.31807404
C       -0.99528271       0.76951320      -0.36598862
C       -0.10153830       1.65608994       0.47686135
C        0.49072903       0.67209910      -0.44857845
C        0.94848181      -1.46391323      -0.47142615
C        2.08900834      -1.04265568       0.21744166
O        2.22820053       0.19564797       0.43230442
H       -2.81349707       0.21853490       0.64943500
H       -1.37423125      -0.66801557       1.18391036
H       -2.11971268      -1.05634660      -0.36338511
H       -1.45261126       1.23905505      -1.23342555
H       -0.00716077       2.71333255       0.26231630
H       -0.07565513       1.41125048       1.53264623
H        0.98335628       1.02582197      -1.34548671
H        0.90712312      -1.27856888      -1.53907477
H        0.53286560      -2.42193032      -0.17561870
H        2.63852729      -1.73258825       0.86999471
17
Frame=9 idx=010115 GeodesicLength=0.46238895074985514 rxn_smarts="[C:1]([C@@:2]1([H:11])[C:3]([H:12])([H:13])[C@:4]1([C:5]([C:6](=[O:7])[H:17])([H:15])[H:16])[H:14])([H:8])([H:9])[H:10]>>[C:1]([C@@:2]1([H:11])[C:3]([H:12])([H:13])[C@:4]1([O:7][C:6](=[C:5]([H:15])[H:16])[H:17])[H:14])([H:8])([H:9])[H:10]"
C       -1.88343581      -0.23506370       0.32231759
C       -0.99166316       0.76312575      -0.36435042
C       -0.10409699       1.65452469       0.47694669
C        0.49608377       0.65922848      -0.43584084
C        0.95199694      -1.45189674      -0.48259745
C        2.09915279      -1.04135884       0.20607451
O        2.22350227       0.19509929       0.44798209
H       -2.81794721       0.22699987       0.64597134
H       -1.38596217      -0.66229324       1.19393625
H       -2.12511156      -1.05798375      -0.35422645
H       -1.44345013       1.22989004      -1.23592834
H       -0.01088886       2.70952193       0.25172220
H       -0.08560013       1.42165517       1.53555737
H        0.98695632       1.01681004      -1.33308136
H        0.91411194      -1.28395877      -1.55337070
H        0.53361539      -2.40563178      -0.17656297
H        2.64273659      -1.73866844       0.85545048
17
Frame=10 idx=010115 GeodesicLength=0.5128467594515435 rxn_smarts="[C:1]([C@@:2]1([H:11])[C:3]([H:12])([H:13])[C@:4]1([C:5]([C:6](=[O:7])[H:17])([H:15])[H:16])[H:14])([H:8])([H:9])[H:10]>>[C:1]([C@@:2]1([H:11])[C:3]([H:12])([H:13])[C@:4]1([O:7][C:6](=[C:5]([H:15])[H:16])[H:17])[H:14])([H:8])([H:9])[H:10]"
C       -1.88816221      -0.23280023       0.32655941
C       -0.98803027       0.75671977      -0.36264021
C       -0.10658720       1.65297375       0.47695675
C        0.50135218       0.64653705      -0.42311931
C        0.95561190      -1.43999316      -0.49384361
C        2.10890571      -1.03983910       0.19506211
O        2.21855546       0.19406279       0.46371396
H       -2.82229209       0.23535407       0.64235667
H       -1.39763961      -0.65636475       1.20398473
H       -2.13031641      -1.05967961      -0.34497090
H       -1.43434544       1.22062318      -1.23830784
H       -0.01454987       2.70561987       0.24107484
H       -0.09541651       1.43213344       1.53821035
H        0.99054726       1.00801250      -1.32062923
H        0.92080670      -1.28920080      -1.56739166
H        0.53462138      -2.38946660      -0.17782269
H        2.64693902      -1.74469218       0.84080664
17
Frame=11 idx=010115 GeodesicLength=0.5633035244014183 rxn_smarts="[C:1]([C@@:2]1([H:11])[C:3]([H:12])([H:13])[C@:4]1([C:5]([C:6](=[O:7])[H:17])([H:15])[H:16])[H:14])([H:8])([H:9])[H:10]>>[C:1]([C@@:2]1([H:11])[C:3]([H:12])([H:13])[C@:4]1([O:7][C:6](=[C:5]([H:15])[H:16])[H:17])[H:14])([H:8])([H:9])[H:10]"
C       -1.89288883      -0.23045725       0.33075177
C       -0.98438121       0.75029562      -0.36088792
C       -0.10908020       1.65147172       0.47688500
C        0.50654941       0.63397831      -0.41027397
C        0.95925936      -1.42824893      -0.50492452
C        2.11819852      -1.03816930       0.18469062
O        2.21317935       0.19247788       0.47992885
H       -2.82665846       0.24372831       0.63841580
H       -1.40945790      -0.65009885       1.21407257
H       -2.13539246      -1.06140012      -0.33562048
H       -1.42518093       1.21119173      -1.24068337
H       -0.01818756       2.70163797       0.23028921
H       -0.10531654       1.44280254       1.54061781
H        0.99425836       0.99933398      -1.30793985
H        0.92724432      -1.29434601      -1.58092137
H        0.53580308      -2.37347745      -0.17913734
H        2.65205170      -1.75072014       0.82473717
17
Frame=12 idx=010115 GeodesicLength=0.6136787091479516 rxn_smarts="[C:1]([C@@:2]1([H:11])[C:3]([H:12])([H:13])[C@:4]1([C:5]([C:6](=[O:7])[H:17])([H:15])[H:16])[H:14])([H:8])([H:9])[H:10]>>[C:1]([C@@:2]1([H:11])[C:3]([H:12])([H:13])[C@:4]1([O:7][C:6](=[C:5]([H:15])[H:16])[H:17])[H:14])([H:8])([H:9])[H:10]"
C       -1.89748365      -0.22813644       0.33496968
C       -0.98072625       0.74384583      -0.35905035
C       -0.11146759       1.64993209       0.47674278
C        0.51164813       0.62158601      -0.39751686
C        0.96300810      -1.41655179      -0.51615161
C        2.12720236      -1.03625256       0.17451170
O        2.20763655       0.19044407       0.49600225
H       -2.83087819       0.25195276       0.63439127
H       -1.42117260      -0.64365740       1.22418245
H       -2.14027319      -1.06318438      -0.32614274
H       -1.41611787       1.20168421      -1.24288583
H       -0.02172735       2.69751773       0.21949497
H       -0.11497966       1.45344266       1.54275634
H        0.99788849       0.99091299      -1.29528512
H        0.93343989      -1.29931043      -1.59429144
H        0.53727718      -2.35760223      -0.18088889
H        2.65672567      -1.75662310       0.80916140
17
Frame=13 idx=010115 GeodesicLength=0.6640601453363483 rxn_smarts="[C:1]([C@@:2]1([H:11])[C:3]([H:12])([H:13])[C@:4]1([C:5]([C:6](=[O:7])[H:17])([H:15])[H:16])[H:14])([H:8])([H:9])[H:10]>>[C:1]([C@@:2]1([H:11])[C:3]([H:12])([H:13])[C@:4]1([O:7][C:6](=[C:5]([H:15])[H:16])[H:17])[H:14])([H:8])([H:9])[H:10]"
C       -1.90205308      -0.22576220       0.33916721
C       -0.97706333       0.73736920      -0.35715390
C       -0.11381856       1.64839976       0.47653295
C        0.51666909       0.60931404      -0.38470550
C        0.96679970      -1.40496166      -0.52730876
C        2.13581746      -1.03420183       0.16479945
O        2.20175137       0.18789762       0.51234142
H       -2.83507486       0.26015801       0.63010807
H       -1.43298167      -0.63691202       1.23433127
H       -2.14502666      -1.06500834      -0.31653804
H       -1.40704260       1.19203353      -1.24503126
H       -0.02520245       2.69328554       0.20862044
H       -0.12461071       1.46418878       1.54465256
H        1.00158255       0.98265356      -1.28247045
H        0.93941284      -1.30416790      -1.60730831
H        0.53896002      -2.34189746      -0.18284215
H        2.66188092      -1.76238864       0.79280501
17
Frame=14 idx=010115 GeodesicLength=0.7143994347564615 rxn_smarts="[C:1]([C@@:2]1([H:11])[C:3]([H:12])([H:13])[C@:4]1([C:5]([C:6](=[O:7])[H:17])([H:15])[H:16])[H:14])([H:8])([H:9])[H:10]>>[C:1]([C@@:2]1([H:11])[C:3]([H:12])([H:13])[C@:4]1([O:7][C:6](=[C:5]([H:15])[H:16])[H:17])[H:14])([H:8])([H:9])[H:10]"
C       -1.90654819      -0.22338499       0.34335894
C       -0.97340273       0.73087497      -0.35518256
C       -0.11607197       1.64681562       0.47626837
C        0.52159943       0.59717620      -0.37196252
C        0.97065051      -1.39341760      -0.53849644
C        2.14417068      -1.03192943       0.15535606
O        2.19567990       0.18492279       0.52861403
H       -2.83919695       0.26824968       0.62565751
H       -1.44478741      -0.62993941       1.24449420
H       -2.14962085      -1.06688830      -0.30682274
H       -1.39804619       1.18232818      -1.24702446
H       -0.02856168       2.68890317       0.19775945
H       -0.13404211       1.47488405       1.54629989
H        1.00522434       0.97461348      -1.26966052
H        0.94517317      -1.30889339      -1.62008225
H        0.54090049      -2.32633018      -0.18510406
H        2.66687957      -1.76798483       0.77652710
17
Frame=15 idx=010115 GeodesicLength=0.7646882017803368 rxn_smarts="[C:1]([C@@:2]1([H:11])[C:3]([H:12])([H:13])[C@:4]1([C:5]([C:6](=[O:7])[H:17])([H:15])[H:16])[H:14])([H:8])([H:9])[H:10]>>[C:1]([C@@:2]1([H:11])[C:3]([H:12])([H:13])[C@:4]1([O:7][C:6](=[C:5]([H:15])[H:16])[H:17])[H:14])([H:8])([H:9])[H:10]"
C       -1.91097810      -0.22100456       0.34751352
C       -0.96975166       0.72437951      -0.35314104
C       -0.11821481       1.64515391       0.47597042
C        0.52643424       0.58516194      -0.35931263
C        0.97453239      -1.38191574      -0.54965566
C        2.15223719      -1.02944773       0.14622727
O        2.18946700       0.18157215       0.54472590
H       -2.84325407       0.27621897       0.62100844
H       -1.45661582      -0.62274787       1.25463763
H       -2.15405641      -1.06881114      -0.29704309
H       -1.38914166       1.17262867      -1.24884695
H       -0.03177635       2.68435503       0.18697361
H       -0.14323839       1.48545851       1.54771658
H        1.00878799       0.96677766      -1.25688943
H        0.95071264      -1.31353510      -1.63257067
H        0.54308478      -2.31091192      -0.18761120
H        2.67177104      -1.77333231       0.76029730
17
Frame=16 idx=010115 GeodesicLength=0.8149142368463798 rxn_smarts="[C:1]([C@@:2]1([H:11])[C:3]([H:12])([H:13])[C@:4]1([C:5]([C:6](=[O:7])[H:17])([H:15])[H:16])[H:14])([H:8])([H:9])[H:10]>>[C:1]([C@@:2]1([H:11])[C:3]([H:12])([H:13])[C@:4]1([O:7][C:6](=[C:5]([H:15])[H:16])[H:17])[H:14])([H:8])([H:9])[H:10]"
C       -1.91534392      -0.21862869       0.35160572
C       -0.96611642       0.71789870      -0.35103354
C       -0.12023109       1.64339036       0.47565964
C        0.53117098       0.57326582      -0.34679087
C        0.97842430      -1.37044832      -0.56075042
C        2.16002448      -1.02675913       0.13741347
O        2.18317354       0.17791121       0.56056402
H       -2.84724753       0.28404514       0.61615075
H       -1.46847355      -0.61535886       1.26472720
H       -2.15833201      -1.07076825      -0.28724395
H       -1.38034930       1.16299715      -1.25047669
H       -0.03482117       2.67963107       0.17632623
H       -0.15215508       1.49583863       1.54892299
H        1.01224147       0.95914104      -1.24420652
H        0.95601574      -1.31813511      -1.64474924
H        0.54550471      -2.29564792      -0.19031492
H        2.67651484      -1.77837286       0.74419613
