13
Frame=0 idx=000307 GeodesicLength=0.0 rxn_smarts="[C:1]([C@:2]1([H:9])[O:3][C@@:4]1([C:5]([H:11])([H:12])[H:13])[H:10])([H:6])([H:7])[H:8]>>[C:1]([C-:2]=[O+:3][C:4]([C:5]([H:11])([H:12])[H:13])([H:9])[H:10])([H:6])([H:7])[H:8]"
C       -1.69906555       0.39824793       0.07494790
C       -1.03800634      -0.90808433       0.43639578
O       -0.21254526      -1.35120520      -0.63851232
C        0.76927864      -0.77697776       0.17345411
C        1.46642034       0.45054026      -0.33742539
H       -1.89776215       0.99867630       0.96362339
H       -2.67341011       0.07820278      -0.30941241
H       -1.22244846       0.99566882      -0.70694049
H        0.10958510      -0.60174649       1.18660617
H        1.43217219      -1.54667926       0.57553946
H        0.77309397       1.25879209      -0.56138358
H        2.19113127       0.80124232       0.39900397
H        2.00155640       0.20332252      -1.25589664
13
Frame=1 idx=000307 GeodesicLength=0.061122192027425824 rxn_smarts="[C:1]([C@:2]1([H:9])[O:3][C@@:4]1([C:5]([H:11])([H:12])[H:13])[H:10])([H:6])([H:7])[H:8]>>[C:1]([C-:2]=[O+:3][C:4]([C:5]([H:11])([H:12])[H:13])([H:9])[H:10])([H:6])([H:7])[H:8]"
C       -1.71419308       0.39845034       0.07051473
C       -1.03199385      -0.89484547       0.43408529
O       -0.21274925      -1.33886632      -0.63857170
C        0.77469240      -0.77471828       0.17724801
C        1.47736784       0.44906873      -0.33562634
H       -1.90754140       1.00456610       0.95665572
H       -2.69040157       0.06868191      -0.30014149
H       -1.24783948       0.99414037      -0.71877030
H        0.11202110      -0.61216587       1.20546946
H        1.43754073      -1.55240685       0.56335874
H        0.78775059       1.26117316      -0.55749592
H        2.20586924       0.79610265       0.39887076
H        2.00947673       0.20081953      -1.25559696
13
Frame=2 idx=000307 GeodesicLength=0.122236821171858 rxn_smarts="[C:1]([C@:2]1([H:9])[O:3][C@@:4]1([C:5]([H:11])([H:12])[H:13])[H:10])([H:6])([H:7])[H:8]>>[C:1]([C-:2]=[O+:3][C:4]([C:5]([H:11])([H:12])[H:13])([H:9])[H:10])([H:6])([H:7])[H:8]"
C       -1.72959909       0.39859388       0.06593822
C       -1.02575789      -0.88086023       0.43189084
O       -0.21295717      -1.32608012      -0.63861701
C        0.78023920      -0.77239081       0.18100088
C        1.48860789       0.44763748      -0.33364231
H       -1.91712374       1.01114966       0.94905719
H       -2.70762153       0.05859450      -0.28990511
H       -1.27430033       0.99191901      -0.73147778
H        0.11433515      -0.62342356       1.22432431
H        1.44271343      -1.55809417       0.55084123
H        0.80291360       1.26382205      -0.55309646
H        2.22103599       0.79061237       0.39892932
H        2.01751449       0.19851994      -1.25524331
13
Frame=3 idx=000307 GeodesicLength=0.18335404304481226 rxn_smarts="[C:1]([C@:2]1([H:9])[O:3][C@@:4]1([C:5]([H:11])([H:12])[H:13])[H:10])([H:6])([H:7])[H:8]>>[C:1]([C-:2]=[O+:3][C:4]([C:5]([H:11])([H:12])[H:13])([H:9])[H:10])([H:6])([H:7])[H:8]"
C       -1.74529312       0.39867229       0.06122916
C       -1.01928133      -0.86607182       0.42980968
O       -0.21316753      -1.31281340      -0.63864877
C        0.78592587      -0.76998991       0.18470911
C        1.50015911       0.44624738      -0.33146810
H       -1.92653098       1.01846975       0.94077040
H       -2.72503662       0.04792830      -0.27862683
H       -1.30189537       0.98893708      -0.74507114
H        0.11649178      -0.63557641       1.24313735
H        1.44767841      -1.56373398       0.53797748
H        0.81861514       1.26674229      -0.54817462
H        2.23664656       0.78475819       0.39918641
H        2.02568808       0.19643023      -1.25483012
13
Frame=4 idx=000307 GeodesicLength=0.2444824923712352 rxn_smarts="[C:1]([C@:2]1([H:9])[O:3][C@@:4]1([C:5]([H:11])([H:12])[H:13])[H:10])([H:6])([H:7])[H:8]>>[C:1]([C-:2]=[O+:3][C:4]([C:5]([H:11])([H:12])[H:13])([H:9])[H:10])([H:6])([H:7])[H:8]"
C       -1.76128618       0.39867843       0.05639745
C       -1.01254650      -0.85041848       0.42783531
O       -0.21337684      -1.29902721      -0.63866925
C        0.79175909      -0.76750788       0.18836981
C        1.51204362       0.44489978      -0.32909721
H       -1.93579077       1.02657313       0.93172546
H       -2.74260408       0.03667374      -0.26621188
H       -1.33069966       0.98511168      -0.75955415
H        0.11844815      -0.64868420       1.26186630
H        1.45242110      -1.56931773       0.52475646
H        0.83489332       1.26993799      -0.54271934
H        2.25271847       0.77852377       0.39965074
H        2.03402029       0.19455699      -1.25434971
13
Frame=5 idx=000307 GeodesicLength=0.3056316675425442 rxn_smarts="[C:1]([C@:2]1([H:9])[O:3][C@@:4]1([C:5]([H:11])([H:12])[H:13])[H:10])([H:6])([H:7])[H:8]>>[C:1]([C-:2]=[O+:3][C:4]([C:5]([H:11])([H:12])[H:13])([H:9])[H:10])([H:6])([H:7])[H:8]"
C       -1.77758713       0.39860346       0.05146107
C       -1.00553093      -0.83382676       0.42596420
O       -0.21358371      -1.28468269      -0.63867859
C        0.79774621      -0.76493671       0.19197780
C        1.52428506       0.44359446      -0.32652733
H       -1.94494439       1.03549690       0.92186703
H       -2.76027605       0.02481468      -0.25258182
H       -1.36077898       0.98037199      -0.77492028
H        0.12015075      -0.66280659       1.28046181
H        1.45692497      -1.57483755       0.51117401
H        0.85178666       1.27341188      -0.53673011
H        2.26927005       0.77189647       0.40032800
H        2.04253750       0.19290046      -1.25379579
13
Frame=6 idx=000307 GeodesicLength=0.3668023368755829 rxn_smarts="[C:1]([C@:2]1([H:9])[O:3][C@@:4]1([C:5]([H:11])([H:12])[H:13])[H:10])([H:6])([H:7])[H:8]>>[C:1]([C-:2]=[O+:3][C:4]([C:5]([H:11])([H:12])[H:13])([H:9])[H:10])([H:6])([H:7])[H:8]"
C       -1.79421027       0.39843839       0.04643515
C       -0.99821403      -0.81621853       0.42418467
O       -0.21378137      -1.26972522      -0.63868154
C        0.80389360      -0.76226257       0.19553142
C        1.53691499       0.44233112      -0.32375179
H       -1.95404242       1.04528263       0.91110762
H       -2.77798966       0.01235037      -0.23761946
H       -1.39222826       0.97460240      -0.79115391
H        0.12153782      -0.67800354       1.29885704
H        1.46116837      -1.58027887       0.49721870
H        0.86935095       1.27716824      -0.53019765
H        2.28632611       0.76485382       0.40122758
H        2.05127418       0.19146176      -1.25315784
13
Frame=7 idx=000307 GeodesicLength=0.4280045071866156 rxn_smarts="[C:1]([C@:2]1([H:9])[O:3][C@@:4]1([C:5]([H:11])([H:12])[H:13])[H:10])([H:6])([H:7])[H:8]>>[C:1]([C-:2]=[O+:3][C:4]([C:5]([H:11])([H:12])[H:13])([H:9])[H:10])([H:6])([H:7])[H:8]"
C       -1.81116985       0.39816844       0.04134587
C       -0.99056915      -0.79750563       0.42248994
O       -0.21396593      -1.25409922      -0.63868028
C        0.81020956      -0.75947024       0.19902449
C        1.54996670       0.44110825      -0.32076772
H       -1.96314727       1.05596442       0.89937300
H       -2.79568481      -0.00072737      -0.22122513
H       -1.42512396       0.96769742      -0.80823225
H        0.12253387      -0.69433102       1.31697874
H        1.46512766      -1.58562840       0.48288403
H        0.88764150       1.28121155      -0.52311931
H        2.30391458       0.75737452       0.40235621
H        2.06026711       0.19023729      -1.25242760
13
Frame=8 idx=000307 GeodesicLength=0.489232868165629 rxn_smarts="[C:1]([C@:2]1([H:9])[O:3][C@@:4]1([C:5]([H:11])([H:12])[H:13])[H:10])([H:6])([H:7])[H:8]>>[C:1]([C-:2]=[O+:3][C:4]([C:5]([H:11])([H:12])[H:13])([H:9])[H:10])([H:6])([H:7])[H:8]"
C       -1.82847981       0.39778111       0.03621379
C       -0.98257153      -0.77758756       0.42086724
O       -0.21413202      -1.23773831      -0.63868005
C        0.81669965      -0.75654121       0.20245162
C        1.56347969       0.43992339      -0.31756919
H       -1.97233908       1.06756477       0.88657620
H       -2.81327662      -0.01440685      -0.20327167
H       -1.45956300       0.95951453      -0.82612317
H        0.12305397      -0.71184026       1.33473245
H        1.46877526      -1.59086934       0.46816155
H        0.90672518       1.28554662      -0.51548993
H        2.32206618       0.74943262       0.40372304
H        2.06956215       0.18922049      -1.25159187
13
Frame=9 idx=000307 GeodesicLength=0.5503787651095979 rxn_smarts="[C:1]([C@:2]1([H:9])[O:3][C@@:4]1([C:5]([H:11])([H:12])[H:13])[H:10])([H:6])([H:7])[H:8]>>[C:1]([C-:2]=[O+:3][C:4]([C:5]([H:11])([H:12])[H:13])([H:9])[H:10])([H:6])([H:7])[H:8]"
C       -1.84618691       0.39725429       0.03105598
C       -0.97417011      -0.75629124       0.41926337
O       -0.21424801      -1.22048270      -0.63872636
C        0.82335134      -0.75342032       0.20582793
C        1.57754291       0.43876803      -0.31412326
H       -1.98173613       1.08010638       0.87244664
H       -2.83063559      -0.02862590      -0.18344380
H       -1.49584705       0.94969922      -0.84472824
H        0.12298797      -0.73057582       1.35191096
H        1.47204458      -1.59596243       0.45302469
H        0.92678625       1.29019289      -0.50725998
H        2.34086146       0.74093213       0.40536628
H        2.07924928       0.18840548      -1.25061421
13
Frame=10 idx=000307 GeodesicLength=0.6115325533026177 rxn_smarts="[C:1]([C@:2]1([H:9])[O:3][C@@:4]1([C:5]([H:11])([H:12])[H:13])[H:10])([H:6])([H:7])[H:8]>>[C:1]([C-:2]=[O+:3][C:4]([C:5]([H:11])([H:12])[H:13])([H:9])[H:10])([H:6])([H:7])[H:8]"
C       -1.86428322       0.39656517       0.02591900
C       -0.96534744      -0.73353947       0.41768074
O       -0.21432548      -1.20231292      -0.63880945
C        0.83018150      -0.75011095       0.20912766
C        1.59217043       0.43764070      -0.31044592
H       -1.99141759       1.09361885       0.85703001
H       -2.84769004      -0.04344778      -0.16173538
H       -1.53389967       0.93825529      -0.86401887
H        0.12221034      -0.75056922       1.36846334
H        1.47491662      -1.60090550       0.43747804
H        0.94782451       1.29514080      -0.49848077
H        2.36029532       0.73189205       0.40728443
H        2.08936472       0.18777298      -1.24949283
13
Frame=11 idx=000307 GeodesicLength=0.6726943532766971 rxn_smarts="[C:1]([C@:2]1([H:9])[O:3][C@@:4]1([C:5]([H:11])([H:12])[H:13])[H:10])([H:6])([H:7])[H:8]>>[C:1]([C-:2]=[O+:3][C:4]([C:5]([H:11])([H:12])[H:13])([H:9])[H:10])([H:6])([H:7])[H:8]"
C       -1.88278869       0.39567745       0.02086069
C       -0.95605538      -0.70918451       0.41609271
O       -0.21434981      -1.18312620      -0.63894579
C        0.83719400      -0.74657906       0.21234535
C        1.60742307       0.43653142      -0.30653722
H       -2.00150867       1.10810550       0.84024375
H       -2.86434435      -0.05889172      -0.13803274
H       -1.57382459       0.92502271      -0.88389487
H        0.12056787      -0.77183176       1.38423841
H        1.47733935      -1.60567258       0.42152223
H        0.96994981       1.30039076      -0.48916721
H        2.38041562       0.72226491       0.40948666
H        2.09998176       0.18729307      -1.24821198
13
Frame=12 idx=000307 GeodesicLength=0.7338878225071652 rxn_smarts="[C:1]([C@:2]1([H:9])[O:3][C@@:4]1([C:5]([H:11])([H:12])[H:13])[H:10])([H:6])([H:7])[H:8]>>[C:1]([C-:2]=[O+:3][C:4]([C:5]([H:11])([H:12])[H:13])([H:9])[H:10])([H:6])([H:7])[H:8]"
C       -1.90172406       0.39455521       0.01593260
C       -0.94625286      -0.68306212       0.41444798
O       -0.21430531      -1.16279770      -0.63917385
C        0.84438511      -0.74278474       0.21546634
C        1.62337657       0.43542797      -0.30239148
H       -2.01217021       1.12355898       0.82196522
H       -2.88045229      -0.07496490      -0.11214403
H       -1.61575010       0.90978647      -0.90423106
H        0.11786993      -0.79436058       1.39906070
H        1.47924733      -1.61023359       0.40515543
H        0.99330058       1.30594672      -0.47933640
H        2.40127777       0.71199292       0.41199761
H        2.11119755       0.18693536      -1.24674904
13
Frame=13 idx=000307 GeodesicLength=0.7950607807879537 rxn_smarts="[C:1]([C@:2]1([H:9])[O:3][C@@:4]1([C:5]([H:11])([H:12])[H:13])[H:10])([H:6])([H:7])[H:8]>>[C:1]([C-:2]=[O+:3][C:4]([C:5]([H:11])([H:12])[H:13])([H:9])[H:10])([H:6])([H:7])[H:8]"
C       -1.92111468       0.39313646       0.01123691
C       -0.93586874      -0.65496931       0.41270230
O       -0.21417154      -1.14118243      -0.63950139
C        0.85175049      -0.73867308       0.21848427
C        1.64011011       0.43430007      -0.29802217
H       -2.02365665       1.13986320       0.80213977
H       -2.89588588      -0.09166932      -0.08403869
H       -1.65973552       0.89238709      -0.92479724
H        0.11393667      -0.81805970       1.41270854
H        1.48055682      -1.61455428       0.38840277
H        1.01802797       1.31180132      -0.46902656
H        2.42295086       0.70100259       0.41480303
H        2.12310008       0.18661740      -1.24509153
13
Frame=14 idx=000307 GeodesicLength=0.8562756756438826 rxn_smarts="[C:1]([C@:2]1([H:9])[O:3][C@@:4]1([C:5]([H:11])([H:12])[H:13])[H:10])([H:6])([H:7])[H:8]>>[C:1]([C-:2]=[O+:3][C:4]([C:5]([H:11])([H:12])[H:13])([H:9])[H:10])([H:6])([H:7])[H:8]"
C       -1.94098332       0.39136654       0.00683843
C       -0.92486049      -0.62469558       0.41075423
O       -0.21392178      -1.11809722      -0.64002037
C        0.85927834      -0.73418738       0.22136972
C        1.65773321       0.43313134      -0.29341648
H       -2.03616716       1.15699576       0.78061646
H       -2.91041637      -0.10901761      -0.05340538
H       -1.70596360       0.87250724      -0.94542554
H        0.10845784      -0.84287329       1.42493389
H        1.48116531      -1.61859453       0.37125543
H        1.04432990       1.31796194      -0.45827156
H        2.44549504       0.68920799       0.41796520
H        2.13585308       0.18629480      -1.24319403
13
Frame=15 idx=000307 GeodesicLength=0.9175200942522616 rxn_smarts="[C:1]([C@:2]1([H:9])[O:3][C@@:4]1([C:5]([H:11])([H:12])[H:13])[H:10])([H:6])([H:7])[H:8]>>[C:1]([C-:2]=[O+:3][C:4]([C:5]([H:11])([H:12])[H:13])([H:9])[H:10])([H:6])([H:7])[H:8]"
C       -1.96135212       0.38916765       0.00284576
C       -0.91316497      -0.59199764       0.40849078
O       -0.21352238      -1.09333201      -0.64081477
C        0.86694569      -0.72925484       0.22409399
C        1.67636026       0.43188377      -0.28857694
H       -2.04999003       1.17480972       0.75732059
H       -2.92382791      -0.12703073      -0.02007482
H       -1.75454501       0.84988660      -0.96583554
H        0.10112941      -0.86861681       1.43543969
H        1.48094194      -1.62231194       0.35373902
H        1.07242615       1.32442396      -0.44713277
H        2.46898030       0.67650436       0.42151997
H        2.14961868       0.18586791      -1.24101496
13
Frame=16 idx=000307 GeodesicLength=0.9788170231871864 rxn_smarts="[C:1]([C@:2]1([H:9])[O:3][C@@:4]1([C:5]([H:11])([H:12])[H:13])[H:10])([H:6])([H:7])[H:8]>>[C:1]([C-:2]=[O+:3][C:4]([C:5]([H:11])([H:12])[H:13])([H:9])[H:10])([H:6])([H:7])[H:8]"
C       -1.98223266       0.38644917      -0.00063264
C       -0.90073396      -0.55662322       0.40575164
O       -0.21293291      -1.06663977      -0.64202526
C        0.87471533      -0.72379690       0.22660934
C        1.69612673       0.43052128      -0.28348712
H       -2.06541313       1.19317486       0.73213947
H       -2.93587224      -0.14571559       0.01624967
H       -1.80562935       0.82414469      -0.98575231
H        0.09158364      -0.89505641       1.44389085
H        1.47972748      -1.62566135       0.33585420
H        1.10257871       1.33118930      -0.43565117
H        2.49348186       0.66275991       0.42555006
H        2.16460050       0.18525403      -1.23849673
