15
Frame=0 idx=010470 GeodesicLength=0.0 rxn_smarts="[C:1]([C@@:2]([O:3][H:11])([C:4]([O:5][H:14])([H:12])[H:13])[C:6]#[C:7][H:15])([H:8])([H:9])[H:10]>>[C:1]([C@@:2]1([O:3][H:11])[C@@:4]([O:5][H:14])([H:13])[C:6]1=[C:7]([H:12])[H:15])([H:8])([H:9])[H:10]"
C       -0.49374800      -1.54207447       0.59613935
C       -0.21740702      -0.40664054      -0.36796439
O       -1.14774921      -0.52817164      -1.42129239
C       -0.65363656       0.98710132       0.27318570
O       -0.46147608       2.07954770      -0.40816862
C        1.22805725      -0.24049934      -0.68880071
C        1.75466433       0.51197068       0.23470299
H       -1.56901260      -1.63439361       0.76529812
H        0.01564809      -1.37707348       1.54462029
H       -0.12935305      -2.47159126       0.16059205
H       -0.75683679      -0.13419456      -2.20630274
H        0.87347420       0.90620180       1.00436798
H       -1.59802598       1.04447333       0.82399994
H        0.40910885       1.98450920      -0.84796119
H        2.74629256       0.82083490       0.53758356
15
Frame=1 idx=010470 GeodesicLength=0.10497381831653049 rxn_smarts="[C:1]([C@@:2]([O:3][H:11])([C:4]([O:5][H:14])([H:12])[H:13])[C:6]#[C:7][H:15])([H:8])([H:9])[H:10]>>[C:1]([C@@:2]1([O:3][H:11])[C@@:4]([O:5][H:14])([H:13])[C:6]1=[C:7]([H:12])[H:15])([H:8])([H:9])[H:10]"
C       -0.50316213      -1.54904499       0.59423806
C       -0.22589366      -0.40894198      -0.36324126
O       -1.14242012      -0.52684147      -1.42795918
C       -0.64237697       0.98503862       0.27615715
O       -0.47931164       2.07832549      -0.42210754
C        1.21765433      -0.22229309      -0.66677008
C        1.77359804       0.51780765       0.24493724
H       -1.57867086      -1.64187262       0.76099563
H        0.00374424      -1.38918147       1.54503097
H       -0.13752896      -2.47650001       0.15505821
H       -0.74431730      -0.13595154      -2.21061268
H        0.87687932       0.93107513       1.02184502
H       -1.57795233       1.03811766       0.84163906
H        0.38339439       1.99245960      -0.87657990
H        2.77636366       0.80780303       0.52736931
15
Frame=2 idx=010470 GeodesicLength=0.20989352632971803 rxn_smarts="[C:1]([C@@:2]([O:3][H:11])([C:4]([O:5][H:14])([H:12])[H:13])[C:6]#[C:7][H:15])([H:8])([H:9])[H:10]>>[C:1]([C@@:2]1([O:3][H:11])[C@@:4]([O:5][H:14])([H:13])[C:6]1=[C:7]([H:12])[H:15])([H:8])([H:9])[H:10]"
C       -0.51263643      -1.55581717       0.59223791
C       -0.23428184      -0.41101408      -0.35849789
O       -1.13639694      -0.52539920      -1.43479544
C       -0.63097049       0.98311962       0.27940413
O       -0.49797263       2.07683620      -0.43517754
C        1.20722271      -0.20376721      -0.64382703
C        1.79297429       0.52351874       0.25501785
H       -1.58842936      -1.64917988       0.75634077
H       -0.00847717      -1.40110095       1.54544939
H       -0.14553245      -2.48114607       0.14951723
H       -0.73069260      -0.13770347      -2.21485887
H        0.88039687       0.95725967       1.03911766
H       -1.55762096       1.03175893       0.85923502
H        0.35572975       1.99983575      -0.90556256
H        2.80668726       0.79279912       0.51639937
15
Frame=3 idx=010470 GeodesicLength=0.3147681825631453 rxn_smarts="[C:1]([C@@:2]([O:3][H:11])([C:4]([O:5][H:14])([H:12])[H:13])[C:6]#[C:7][H:15])([H:8])([H:9])[H:10]>>[C:1]([C@@:2]1([O:3][H:11])[C@@:4]([O:5][H:14])([H:13])[C:6]1=[C:7]([H:12])[H:15])([H:8])([H:9])[H:10]"
C       -0.52214771      -1.56235822       0.59013670
C       -0.24253368      -0.41281682      -0.35372488
O       -1.12959414      -0.52385320      -1.44179985
C       -0.61944573       0.98136973       0.28292837
O       -0.51750220       2.07506990      -0.44736436
C        1.19677098      -0.18491135      -0.61997009
C        1.81279949       0.52904274       0.26489120
H       -1.59825977      -1.65629087       0.75130879
H       -0.02102108      -1.41279935       1.54588170
H       -0.15332084      -2.48549683       0.14398689
H       -0.71587804      -0.13943109      -2.21900668
H        0.88402270       0.98485278       1.05607586
H       -1.53706945       1.02538778       0.87678866
H        0.32603277       2.00660325      -0.93478632
H        2.83714671       0.77563155       0.50465401
15
Frame=4 idx=010470 GeodesicLength=0.41959116700623805 rxn_smarts="[C:1]([C@@:2]([O:3][H:11])([C:4]([O:5][H:14])([H:12])[H:13])[C:6]#[C:7][H:15])([H:8])([H:9])[H:10]>>[C:1]([C@@:2]1([O:3][H:11])[C@@:4]([O:5][H:14])([H:13])[C:6]1=[C:7]([H:12])[H:15])([H:8])([H:9])[H:10]"
C       -0.53167686      -1.56863778       0.58793251
C       -0.25060719      -0.41431314      -0.34890939
O       -1.12191289      -0.52221172      -1.44897182
C       -0.60783183       0.97981329       0.28673324
O       -0.53794146       2.07300838      -0.45865663
C        1.18631680      -0.16572766      -0.59519343
C        1.83307528       0.53430512       0.27451383
H       -1.60813947      -1.66317988       0.74586638
H       -0.03390334      -1.42424863       1.54633856
H       -0.16085670      -2.48952238       0.13848938
H       -0.69977677      -0.14110708      -2.22301694
H        0.88774696       1.01394417       1.07259541
H       -1.51633341       1.01899768       0.89430974
H        0.29424579       2.01272798      -0.96410101
H        2.86759508       0.75615164       0.49207015
15
Frame=5 idx=010470 GeodesicLength=0.524371826363518 rxn_smarts="[C:1]([C@@:2]([O:3][H:11])([C:4]([O:5][H:14])([H:12])[H:13])[C:6]#[C:7][H:15])([H:8])([H:9])[H:10]>>[C:1]([C@@:2]1([O:3][H:11])[C@@:4]([O:5][H:14])([H:13])[C:6]1=[C:7]([H:12])[H:15])([H:8])([H:9])[H:10]"
C       -0.54117510      -1.57461634       0.58562509
C       -0.25845661      -0.41545949      -0.34404762
O       -1.11326762      -0.52049238      -1.45630497
C       -0.59616435       0.97848746       0.29081557
O       -0.55935264       2.07063933      -0.46904970
C        1.17587372      -0.14619865      -0.56953486
C        1.85379855       0.53925000       0.28377311
H       -1.61802211      -1.66982440       0.73999962
H       -0.04709847      -1.43539809       1.54682474
H       -0.16806724      -2.49318403       0.13304621
H       -0.68232047      -0.14270685      -2.22685100
H        0.89157207       1.04464220       1.08851859
H       -1.49544532       1.01258830       0.91180342
H        0.26029381       2.01819791      -0.99335988
H        2.89783179       0.73407502       0.47874169
15
Frame=6 idx=010470 GeodesicLength=0.6290981797248939 rxn_smarts="[C:1]([C@@:2]([O:3][H:11])([C:4]([O:5][H:14])([H:12])[H:13])[C:6]#[C:7][H:15])([H:8])([H:9])[H:10]>>[C:1]([C@@:2]1([O:3][H:11])[C@@:4]([O:5][H:14])([H:13])[C:6]1=[C:7]([H:12])[H:15])([H:8])([H:9])[H:10]"
C       -0.55064508      -1.58027086       0.58321507
C       -0.26603348      -0.41623106      -0.33912161
O       -1.10353636      -0.51870317      -1.46379573
C       -0.58447084       0.97740987       0.29517593
O       -0.58175533       2.06791987      -0.47852694
C        1.16547640      -0.12637282      -0.54297380
C        1.87496537       0.54376458       0.29263564
H       -1.62790495      -1.67619147       0.73366144
H       -0.06065248      -1.44623353       1.54735683
H       -0.17494449      -2.49646593       0.12768999
H       -0.66338957      -0.14417629      -2.23045835
H        0.89547562       1.07699251       1.10371913
H       -1.47443527       1.00615673       0.92927839
H        0.22418183       2.02297405      -1.02236007
H        2.92766862       0.70942750       0.46450408
15
Frame=7 idx=010470 GeodesicLength=0.7337865643474683 rxn_smarts="[C:1]([C@@:2]([O:3][H:11])([C:4]([O:5][H:14])([H:12])[H:13])[C:6]#[C:7][H:15])([H:8])([H:9])[H:10]>>[C:1]([C@@:2]1([O:3][H:11])[C@@:4]([O:5][H:14])([H:13])[C:6]1=[C:7]([H:12])[H:15])([H:8])([H:9])[H:10]"
C       -0.56007413      -1.58557735       0.58070300
C       -0.27328666      -0.41660242      -0.33411875
O       -1.09260772      -0.51686134      -1.47143409
C       -0.57278278       0.97660559       0.29981224
O       -0.60516674       2.06481769      -0.48706995
C        1.15515862      -0.10629200      -0.51551503
C        1.89656615       0.54772626       0.30101043
H       -1.63777605      -1.68225431       0.72681851
H       -0.07459028      -1.45672981       1.54794660
H       -0.18146719      -2.49935190       0.12245232
H       -0.64288294      -0.14546803      -2.23378650
H        0.89944577       1.11103952       1.11805831
H       -1.45333243       0.99970787       0.94673367
H        0.18592249       2.02703521      -1.05089843
H        2.95687390       0.68220503       0.44928765
15
Frame=8 idx=010470 GeodesicLength=0.8384093195271363 rxn_smarts="[C:1]([C@@:2]([O:3][H:11])([C:4]([O:5][H:14])([H:12])[H:13])[C:6]#[C:7][H:15])([H:8])([H:9])[H:10]>>[C:1]([C@@:2]1([O:3][H:11])[C@@:4]([O:5][H:14])([H:13])[C:6]1=[C:7]([H:12])[H:15])([H:8])([H:9])[H:10]"
C       -0.56946926      -1.59051796       0.57809177
C       -0.28016947      -0.41655888      -0.32902188
O       -1.08035195      -0.51498272      -1.47921058
C       -0.56112569       0.97609247       0.30472008
O       -0.62959504       2.06127950      -0.49466855
C        1.14496083      -0.08601904      -0.48714479
C        1.91858860       0.55101271       0.30884636
H       -1.64764235      -1.68798204       0.71942588
H       -0.08896444      -1.46687187       1.54861046
H       -0.18763247      -2.50183498       0.11737247
H       -0.62067755      -0.14650916      -2.23676625
H        0.90345369       1.14678369       1.13138890
H       -1.43215831       0.99324869       0.96417877
H        0.14556610       2.03035180      -1.07875643
H        2.98521732       0.65250778       0.43293380
15
Frame=9 idx=010470 GeodesicLength=0.9428866222429756 rxn_smarts="[C:1]([C@@:2]([O:3][H:11])([C:4]([O:5][H:14])([H:12])[H:13])[C:6]#[C:7][H:15])([H:8])([H:9])[H:10]>>[C:1]([C@@:2]1([O:3][H:11])[C@@:4]([O:5][H:14])([H:13])[C:6]1=[C:7]([H:12])[H:15])([H:8])([H:9])[H:10]"
C       -0.57857229      -1.59501372       0.57536270
C       -0.28667918      -0.41601330      -0.32389634
O       -1.06692254      -0.51308181      -1.48701859
C       -0.54956774       0.97596137       0.30980746
O       -0.65525831       2.05725180      -0.50152424
C        1.13481012      -0.06539907      -0.45823995
C        1.94100864       0.55390350       0.31558801
H       -1.65721940      -1.69337485       0.71163290
H       -0.10338000      -1.47651779       1.54923387
H       -0.19317033      -2.50382280       0.11240475
H       -0.59718563      -0.14719291      -2.23937325
H        0.90749055       1.18432394       1.14326286
H       -1.41084009       0.98682238       0.98168882
H        0.10291377       2.03297586      -1.10598475
H        3.01257242       0.61917739       0.41705575
15
Frame=10 idx=010470 GeodesicLength=1.0473224128621494 rxn_smarts="[C:1]([C@@:2]([O:3][H:11])([C:4]([O:5][H:14])([H:12])[H:13])[C:6]#[C:7][H:15])([H:8])([H:9])[H:10]>>[C:1]([C@@:2]1([O:3][H:11])[C@@:4]([O:5][H:14])([H:13])[C:6]1=[C:7]([H:12])[H:15])([H:8])([H:9])[H:10]"
C       -0.58759831      -1.59909941       0.57254408
C       -0.29271748      -0.41501549      -0.31865041
O       -1.05193624      -0.51116475      -1.49492883
C       -0.53811578       0.97616716       0.31515160
O       -0.68199274       2.05267666      -0.50741947
C        1.12486172      -0.04467090      -0.42844085
C        1.96379195       0.55596904       0.32151817
H       -1.66674584      -1.69838399       0.70322476
H       -0.11825726      -1.48575225       1.54995552
H       -0.19828444      -2.50538092       0.10766881
H       -0.57184173      -0.14743274      -2.24150499
H        0.91148069       1.22360644       1.15382135
H       -1.38948916       0.98039926       0.99920874
H        0.05822531       2.03479915      -1.13220988
H        3.03861931       0.58328275       0.40006139
15
Frame=11 idx=010470 GeodesicLength=1.151723602126011 rxn_smarts="[C:1]([C@@:2]([O:3][H:11])([C:4]([O:5][H:14])([H:12])[H:13])[C:6]#[C:7][H:15])([H:8])([H:9])[H:10]>>[C:1]([C@@:2]1([O:3][H:11])[C@@:4]([O:5][H:14])([H:13])[C:6]1=[C:7]([H:12])[H:15])([H:8])([H:9])[H:10]"
C       -0.59653938      -1.60276181       0.56963845
C       -0.29823529      -0.41355844      -0.31326469
O       -1.03526328      -0.50923706      -1.50290986
C       -0.52680486       0.97672367       0.32075225
O       -0.70979057       2.04749598      -0.51235162
C        1.11515191      -0.02388975      -0.39773867
C        1.98690309       0.55711934       0.32651227
H       -1.67621331      -1.70298214       0.69415817
H       -0.13363362      -1.49455935       1.55078666
H       -0.20296140      -2.50650786       0.10320321
H       -0.54455625      -0.14713288      -2.24307667
H        0.91537570       1.26460652       1.16294753
H       -1.36812900       0.97398588       1.01674245
H        0.01157681       2.03580022      -1.15728237
H        3.06311943       0.54489768       0.38188290
15
Frame=12 idx=010470 GeodesicLength=1.2561043599522939 rxn_smarts="[C:1]([C@@:2]([O:3][H:11])([C:4]([O:5][H:14])([H:12])[H:13])[C:6]#[C:7][H:15])([H:8])([H:9])[H:10]>>[C:1]([C@@:2]1([O:3][H:11])[C@@:4]([O:5][H:14])([H:13])[C:6]1=[C:7]([H:12])[H:15])([H:8])([H:9])[H:10]"
C       -0.60541020      -1.60599605       0.56665190
C       -0.30318851      -0.41164635      -0.30771337
O       -1.01676073      -0.50729803      -1.51092824
C       -0.51566474       0.97763828       0.32661616
O       -0.73862341       2.04163204      -0.51632272
C        1.10572339      -0.00311295      -0.36608340
C        2.01029323       0.55724057       0.33047964
H       -1.68563012      -1.70714751       0.68436950
H       -0.14958236      -1.50293414       1.55174742
H       -0.20719740      -2.50720962       0.09905353
H       -0.51521272      -0.14617523      -2.24398915
H        0.91910142       1.30729660       1.17055136
H       -1.34678578       0.96759067       1.03429209
H       -0.03692284       2.03594003      -1.18105543
H        3.08586077       0.50418169       0.36233071
15
Frame=13 idx=010470 GeodesicLength=1.360484484421274 rxn_smarts="[C:1]([C@@:2]([O:3][H:11])([C:4]([O:5][H:14])([H:12])[H:13])[C:6]#[C:7][H:15])([H:8])([H:9])[H:10]>>[C:1]([C@@:2]1([O:3][H:11])[C@@:4]([O:5][H:14])([H:13])[C:6]1=[C:7]([H:12])[H:15])([H:8])([H:9])[H:10]"
C       -0.61423679      -1.60880227       0.56359222
C       -0.30752609      -0.40929345      -0.30196630
O       -0.99625386      -0.50534774      -1.51894970
C       -0.50472155       0.97891483       0.33275232
O       -0.76843831       2.03501417      -0.51932115
C        1.09661073       0.01760050      -0.33338844
C        2.03391554       0.55621225       0.33333054
H       -1.69502752      -1.71085986       0.67377875
H       -0.16620983      -1.51087117       1.55286709
H       -0.21099430      -2.50749916       0.09527692
H       -0.48366515      -0.14444388      -2.24413286
H        0.92258272       1.35161739       1.17658761
H       -1.32549385       0.96122577       1.05185730
H       -0.08714282       2.03517024      -1.20339771
H        3.10660107       0.46136239       0.34111341
15
Frame=14 idx=010470 GeodesicLength=1.4648601781181319 rxn_smarts="[C:1]([C@@:2]([O:3][H:11])([C:4]([O:5][H:14])([H:12])[H:13])[C:6]#[C:7][H:15])([H:8])([H:9])[H:10]>>[C:1]([C@@:2]1([O:3][H:11])[C@@:4]([O:5][H:14])([H:13])[C:6]1=[C:7]([H:12])[H:15])([H:8])([H:9])[H:10]"
C       -0.62306527      -1.61118262       0.56046586
C       -0.31119718      -0.40651504      -0.29598196
O       -0.97356469      -0.50337560      -1.52692191
C       -0.49400173       0.98055440       0.33917530
O       -0.79917809       2.02755347      -0.52135169
C        1.08785334       0.03816922      -0.29951854
C        2.05771348       0.55392175       0.33498577
H       -1.70444892      -1.71408825       0.66229420
H       -0.18365087      -1.51837560       1.55417185
H       -0.21438862      -2.50739719       0.09193115
H       -0.44975877      -0.14179721      -2.24338570
H        0.92569841       1.39747555       1.18103992
H       -1.30429356       0.95490538       1.06943111
H       -0.13895047       2.03340745      -1.22420864
H        3.12523294       0.41674428       0.31787327
15
Frame=15 idx=010470 GeodesicLength=1.5692351465787882 rxn_smarts="[C:1]([C@@:2]([O:3][H:11])([C:4]([O:5][H:14])([H:12])[H:13])[C:6]#[C:7][H:15])([H:8])([H:9])[H:10]>>[C:1]([C@@:2]1([O:3][H:11])[C@@:4]([O:5][H:14])([H:13])[C:6]1=[C:7]([H:12])[H:15])([H:8])([H:9])[H:10]"
C       -0.63198632      -1.61315044       0.55728455
C       -0.31414581      -0.40334440      -0.28969856
O       -0.94846077      -0.50137038      -1.53479034
C       -0.48352540       0.98254646       0.34592054
O       -0.83072524       2.01916135      -0.52240641
C        1.07948680       0.05849776      -0.26425112
C        2.08161934       0.55019851       0.33542964
H       -1.71399206      -1.71679833       0.64978155
H       -0.20213066      -1.52546453       1.55571338
H       -0.21744328      -2.50693975       0.08909531
H       -0.41326309      -0.13810524      -2.24160233
H        0.92831101       1.44474222       1.18398144
H       -1.28325194       0.94864914       1.08699345
H       -0.19214761       2.03053542      -1.24340057
H        3.14165504       0.37084221       0.29194949
15
Frame=16 idx=010470 GeodesicLength=1.6735993223117493 rxn_smarts="[C:1]([C@@:2]([O:3][H:11])([C:4]([O:5][H:14])([H:12])[H:13])[C:6]#[C:7][H:15])([H:8])([H:9])[H:10]>>[C:1]([C@@:2]1([O:3][H:11])[C@@:4]([O:5][H:14])([H:13])[C:6]1=[C:7]([H:12])[H:15])([H:8])([H:9])[H:10]"
C       -0.64106585      -1.61470784       0.55405732
C       -0.31630413      -0.39980344      -0.28305166
O       -0.92069435      -0.49931431      -1.54248408
C       -0.47331945       0.98489576       0.35302466
O       -0.86299083       2.00974897      -0.52249053
C        1.07153652       0.07852870      -0.22733609
C        2.10555549       0.54492752       0.33459316
H       -1.72372620      -1.71895594       0.63609667
H       -0.22185923      -1.53213342       1.55753624
H       -0.22018416      -2.50614865       0.08685166
H       -0.37394695      -0.13321620      -2.23862253
H        0.93026063       1.49330837       1.18548962
H       -1.26244985       0.94248283       1.10453639
H       -0.24658819       2.02640890      -1.26093481
H        3.15577656       0.32397875       0.26273401
