9
Frame=0 idx=005591 GeodesicLength=0.0 rxn_smarts="[N:1](=[C:2](/[N:3]([C:4](=[O:5])[H:9])[H:8])[H:7])\[H:6]>>[N:1]#[C:2][H:7].[N:3](=[C:4](/[O:5][H:6])[H:9])\[H:8]"
N       -0.78705968       1.44807188       0.86769681
C       -1.20272162       0.34329345       0.74335167
N       -0.13515273      -0.80012631      -0.17079074
C        0.96993939      -0.30060974      -0.60664896
O        1.31031690       0.91945870      -0.39878406
H        0.50708726       1.36188334       0.16367092
H       -2.03614751      -0.30434290       0.97931565
H       -0.30781886      -1.76938358      -0.39373261
H        1.68155689      -0.89824482      -1.18407871
9
Frame=1 idx=005591 GeodesicLength=0.11089370881951259 rxn_smarts="[N:1](=[C:2](/[N:3]([C:4](=[O:5])[H:9])[H:8])[H:7])\[H:6]>>[N:1]#[C:2][H:7].[N:3](=[C:4](/[O:5][H:6])[H:9])\[H:8]"
N       -0.79870826       1.45480546       0.86548426
C       -1.21267072       0.34883700       0.73447848
N       -0.14625726      -0.79352144      -0.19589185
C        0.98181541      -0.31086137      -0.59573769
O        1.29694110       0.92358959      -0.44633923
H        0.49455137       1.38039747       0.16477097
H       -1.99278028      -0.32968994       1.05186680
H       -0.35080838      -1.74085455      -0.47890682
H        1.72791701      -0.93270221      -1.09972492
9
Frame=2 idx=005591 GeodesicLength=0.22164757793862178 rxn_smarts="[N:1](=[C:2](/[N:3]([C:4](=[O:5])[H:9])[H:8])[H:7])\[H:6]>>[N:1]#[C:2][H:7].[N:3](=[C:4](/[O:5][H:6])[H:9])\[H:8]"
N       -0.81977406       1.46410670       0.84836462
C       -1.22009524       0.35013407       0.73231255
N       -0.15162160      -0.79138777      -0.21054005
C        0.99470243      -0.32310049      -0.58016623
O        1.30027712       0.91636366      -0.46394003
H        0.47132965       1.40347402       0.14922708
H       -1.94118047      -0.35363142       1.12554417
H       -0.39332369      -1.70422678      -0.56837896
H        1.75968586      -0.96173200      -1.03242315
9
Frame=3 idx=005591 GeodesicLength=0.3325800341381723 rxn_smarts="[N:1](=[C:2](/[N:3]([C:4](=[O:5])[H:9])[H:8])[H:7])\[H:6]>>[N:1]#[C:2][H:7].[N:3](=[C:4](/[O:5][H:6])[H:9])\[H:8]"
N       -0.84268150       1.47266762       0.82884092
C       -1.22474637       0.34884956       0.73560362
N       -0.16237576      -0.78688288      -0.23489043
C        1.00127987      -0.33354717      -0.57420513
O        1.30019332       0.90909937      -0.48835391
H        0.45222779       1.42342345       0.14270666
H       -1.88273499      -0.37626621       1.19526087
H       -0.43134492      -1.66549093      -0.65410328
H        1.79018255      -0.99185281      -0.95085932
9
Frame=4 idx=005591 GeodesicLength=0.44394456979299773 rxn_smarts="[N:1](=[C:2](/[N:3]([C:4](=[O:5])[H:9])[H:8])[H:7])\[H:6]>>[N:1]#[C:2][H:7].[N:3](=[C:4](/[O:5][H:6])[H:9])\[H:8]"
N       -0.86845835       1.47999928       0.80681579
C       -1.22946031       0.34601825       0.73949852
N       -0.17184467      -0.78375866      -0.25709626
C        1.00705025      -0.34480932      -0.56895349
O        1.30498121       0.89847595      -0.50476286
H        0.43038452       1.44381733       0.13440049
H       -1.81948836      -0.39614857       1.26043083
H       -0.46541610      -1.62375239      -0.73524986
H        1.81225181      -1.01984186      -0.87508316
9
Frame=5 idx=005591 GeodesicLength=0.5554083404297442 rxn_smarts="[N:1](=[C:2](/[N:3]([C:4](=[O:5])[H:9])[H:8])[H:7])\[H:6]>>[N:1]#[C:2][H:7].[N:3](=[C:4](/[O:5][H:6])[H:9])\[H:8]"
N       -0.89512280       1.48500080       0.78532650
C       -1.23389625       0.34158738       0.74361670
N       -0.18039248      -0.78146183      -0.27862816
C        1.01154574      -0.35613201      -0.56689693
O        1.31130889       0.88650991      -0.51953852
H        0.40782943       1.46369745       0.12776932
H       -1.75371205      -0.41259585       1.31944855
H       -0.49581332      -1.58041529      -0.81050550
H        1.82825284      -1.04619056      -0.80059196
9
Frame=6 idx=005591 GeodesicLength=0.6672239133982655 rxn_smarts="[N:1](=[C:2](/[N:3]([C:4](=[O:5])[H:9])[H:8])[H:7])\[H:6]>>[N:1]#[C:2][H:7].[N:3](=[C:4](/[O:5][H:6])[H:9])\[H:8]"
N       -0.92381413       1.48872738       0.76113810
C       -1.23855140       0.33638314       0.74706672
N       -0.18912141      -0.77970354      -0.30075460
C        1.01427453      -0.36746341      -0.56878965
O        1.31534021       0.87452899      -0.53964545
H        0.39005255       1.48084518       0.13296874
H       -1.68496010      -0.42549526       1.37250313
H       -0.52241119      -1.53819640      -0.87925242
H        1.83919093      -1.06962608      -0.72523456
9
Frame=7 idx=005591 GeodesicLength=0.7793070256421124 rxn_smarts="[N:1](=[C:2](/[N:3]([C:4](=[O:5])[H:9])[H:8])[H:7])\[H:6]>>[N:1]#[C:2][H:7].[N:3](=[C:4](/[O:5][H:6])[H:9])\[H:8]"
N       -0.95281299       1.49032451       0.73852966
C       -1.24298052       0.33011527       0.75136468
N       -0.19683252      -0.77911390      -0.32092409
C        1.01759439      -0.38026031      -0.56866614
O        1.32122482       0.86049220      -0.55779727
H        0.36939014       1.49894990       0.13619962
H       -1.61469296      -0.43540882       1.41999971
H       -0.54608466      -1.49351577      -0.94469135
H        1.84519431      -1.09158308      -0.65401482
9
Frame=8 idx=005591 GeodesicLength=0.8915847585011792 rxn_smarts="[N:1](=[C:2](/[N:3]([C:4](=[O:5])[H:9])[H:8])[H:7])\[H:6]>>[N:1]#[C:2][H:7].[N:3](=[C:4](/[O:5][H:6])[H:9])\[H:8]"
N       -0.98183774       1.48980042       0.71751680
C       -1.24677533       0.32272064       0.75638205
N       -0.20355206      -0.77936999      -0.33992998
C        1.02111050      -0.39385592      -0.56865614
O        1.32801218       0.84520490      -0.57670172
H        0.34758977       1.51739262       0.14050763
H       -1.54479661      -0.44231651       1.46175635
H       -0.56703579      -1.44766502      -1.00558613
H        1.84728510      -1.11191114      -0.58528886
9
Frame=9 idx=005591 GeodesicLength=1.0041333011556295 rxn_smarts="[N:1](=[C:2](/[N:3]([C:4](=[O:5])[H:9])[H:8])[H:7])\[H:6]>>[N:1]#[C:2][H:7].[N:3](=[C:4](/[O:5][H:6])[H:9])\[H:8]"
N       -1.01115783       1.48740443       0.69783505
C       -1.24992596       0.31437868       0.76224755
N       -0.20999823      -0.78004502      -0.35870433
C        1.02459684      -0.40847127      -0.56847027
O        1.33586977       0.82830775      -0.59618116
H        0.32421765       1.53653438       0.14536253
H       -1.47377706      -0.44682863       1.49880344
H       -0.58555732      -1.40037841      -1.06327057
H        1.84573216      -1.13090190      -0.51762223
9
Frame=10 idx=005591 GeodesicLength=1.1168970418560347 rxn_smarts="[N:1](=[C:2](/[N:3]([C:4](=[O:5])[H:9])[H:8])[H:7])\[H:6]>>[N:1]#[C:2][H:7].[N:3](=[C:4](/[O:5][H:6])[H:9])\[H:8]"
N       -1.04104295       1.48303051       0.67907187
C       -1.25239289       0.30496525       0.76874907
N       -0.21589447      -0.78102671      -0.37727514
C        1.02824064      -0.42395772      -0.56842283
O        1.34510393       0.80986977      -0.61630012
H        0.29931031       1.55633801       0.15137071
H       -1.40212030      -0.44874466       1.53162902
H       -0.60194646      -1.35177747      -1.11749032
H        1.84074219      -1.14869698      -0.45133227
9
Frame=11 idx=005591 GeodesicLength=1.2299704759371752 rxn_smarts="[N:1](=[C:2](/[N:3]([C:4](=[O:5])[H:9])[H:8])[H:7])\[H:6]>>[N:1]#[C:2][H:7].[N:3](=[C:4](/[O:5][H:6])[H:9])\[H:8]"
N       -1.07120361       1.47673884       0.66153060
C       -1.25393887       0.29457559       0.77596083
N       -0.22155269      -0.78210332      -0.39615509
C        1.03185191      -0.44040399      -0.56893642
O        1.35545663       0.78975224      -0.63824170
H        0.27311695       1.57687812       0.15904538
H       -1.32968491      -0.44847397       1.56022432
H       -0.61639070      -1.30211715      -1.16871993
H        1.83234530      -1.16484635      -0.38470799
9
Frame=12 idx=005591 GeodesicLength=1.3434738542883808 rxn_smarts="[N:1](=[C:2](/[N:3]([C:4](=[O:5])[H:9])[H:8])[H:7])\[H:6]>>[N:1]#[C:2][H:7].[N:3](=[C:4](/[O:5][H:6])[H:9])\[H:8]"
N       -1.10190009       1.46836425       0.64479649
C       -1.25421274       0.28310171       0.78413921
N       -0.22711118      -0.78338447      -0.41546058
C        1.03538821      -0.45815438      -0.56980740
O        1.36701498       0.76744489      -0.66230121
H        0.24527662       1.59832513       0.16821706
H       -1.25571930      -0.44620786       1.58506750
H       -0.62914170      -1.25039500      -1.21790876
H        1.82040520      -1.17909427      -0.31674231
9
Frame=13 idx=005591 GeodesicLength=1.4574179945929369 rxn_smarts="[N:1](=[C:2](/[N:3]([C:4](=[O:5])[H:9])[H:8])[H:7])\[H:6]>>[N:1]#[C:2][H:7].[N:3](=[C:4](/[O:5][H:6])[H:9])\[H:8]"
N       -1.13300174       1.45791835       0.62914303
C       -1.25315546       0.27063986       0.79311022
N       -0.23239031      -0.78474167      -0.43510668
C        1.03900889      -0.47723967      -0.57106493
O        1.38016203       0.74270417      -0.68868409
H        0.21563631       1.62091146       0.17915237
H       -1.18105309      -0.44196300       1.60602880
H       -0.64009927      -1.19704305      -1.26452520
H        1.80489264      -1.19118645      -0.24805351
9
Frame=14 idx=005591 GeodesicLength=1.5717999905908049 rxn_smarts="[N:1](=[C:2](/[N:3]([C:4](=[O:5])[H:9])[H:8])[H:7])\[H:6]>>[N:1]#[C:2][H:7].[N:3](=[C:4](/[O:5][H:6])[H:9])\[H:8]"
N       -1.16436438       1.44550763       0.61455879
C       -1.25085158       0.25737847       0.80253601
N       -0.23732374      -0.78599258      -0.45510823
C        1.04274827      -0.49764816      -0.57283884
O        1.39503533       0.71527185      -0.71809706
H        0.18448125       1.64470083       0.19313346
H       -1.10640515      -0.43565790       1.62298565
H       -0.64914579      -1.14300244      -1.30811123
H        1.78582579      -1.20055770      -0.17905855
9
Frame=15 idx=005591 GeodesicLength=1.6865816410042807 rxn_smarts="[N:1](=[C:2](/[N:3]([C:4](=[O:5])[H:9])[H:8])[H:7])\[H:6]>>[N:1]#[C:2][H:7].[N:3](=[C:4](/[O:5][H:6])[H:9])\[H:8]"
N       -1.19585024       1.43136348       0.60102182
C       -1.24744241       0.24360202       0.81212066
N       -0.24184065      -0.78698694      -0.47532394
C        1.04663581      -0.51939534      -0.57508191
O        1.41184734       0.68474164      -0.75109232
H        0.15192766       1.66991913       0.21137089
H       -1.03261797      -0.42725108       1.63587894
H       -0.65613832      -1.08927378      -1.34834257
H        1.76347878      -1.20671913      -0.11055156
9
Frame=16 idx=005591 GeodesicLength=1.8017309537771709 rxn_smarts="[N:1](=[C:2](/[N:3]([C:4](=[O:5])[H:9])[H:8])[H:7])\[H:6]>>[N:1]#[C:2][H:7].[N:3](=[C:4](/[O:5][H:6])[H:9])\[H:8]"
N       -1.22738667       1.41570378       0.58841607
C       -1.24299524       0.22957831       0.82168134
N       -0.24586800      -0.78763547      -0.49557125
C        1.05069599      -0.54254912      -0.57765006
O        1.43087789       0.65050514      -0.78816196
H        0.11780615       1.69693372       0.23486619
H       -0.96039523      -0.41677254       1.64485094
H       -0.66100020      -1.03647622      -1.38519785
H        1.73826531      -1.20928760      -0.04323342
