15
Frame=0 idx=008916 GeodesicLength=0.0 rxn_smarts="[C:1]([n:2]1[c:3]([H:11])[c:4]([H:12])[c:5]([H:13])[c:6]1[N:7]([H:14])[H:15])([H:8])([H:9])[H:10]>>[C:1](/[N:2]=[C:3]([C:4](=[C:5]([C:6](=[N:7]\[H:15])\[H:14])/[H:13])/[H:12])\[H:11])([H:8])([H:9])[H:10]"
C       -1.38595621      -1.27929655       0.45335145
N       -0.19428992      -0.48462629       0.28397906
C        1.04331875      -0.84153160       0.47532013
C        1.93718378       0.16708060       0.03820992
C        1.18246979       1.15642243      -0.50601727
C       -0.28049096       0.83646995      -0.36312588
N       -1.33711601       0.94770641      -1.19919696
H       -2.08626212      -0.75185181       1.09897636
H       -1.85546481      -1.38575031      -0.52493654
H       -1.12084508      -2.24450990       0.88243564
H        1.28686608      -1.77087727       0.97420356
H        3.00489559       0.14716245       0.19364753
H        1.51990565       2.10894014      -0.88822120
H       -0.28956148       1.49287092       0.60721182
H       -1.42465304       1.90179087      -1.52583755
15
Frame=1 idx=008916 GeodesicLength=0.13576246516223853 rxn_smarts="[C:1]([n:2]1[c:3]([H:11])[c:4]([H:12])[c:5]([H:13])[c:6]1[N:7]([H:14])[H:15])([H:8])([H:9])[H:10]>>[C:1](/[N:2]=[C:3]([C:4](=[C:5]([C:6](=[N:7]\[H:15])\[H:14])/[H:13])/[H:12])\[H:11])([H:8])([H:9])[H:10]"
C       -1.38060065      -1.29691521       0.46144158
N       -0.19680023      -0.49020060       0.29577262
C        1.04275456      -0.84105317       0.49212086
C        1.93528889       0.17252888       0.06273501
C        1.18920049       1.15848772      -0.50246821
C       -0.26802247       0.83711735      -0.38890417
N       -1.34225013       0.99786126      -1.18678810
H       -2.09446016      -0.76970280       1.09277861
H       -1.83805531      -1.42318729      -0.52039316
H       -1.11574531      -2.25503753       0.90762726
H        1.29222586      -1.78789289       0.95437726
H        3.00624338       0.13585640       0.19034960
H        1.53489238       2.09236007      -0.92114910
H       -0.34919106       1.51668253       0.57537727
H       -1.41548025       1.95309528      -1.51287734
15
Frame=2 idx=008916 GeodesicLength=0.2714205354727125 rxn_smarts="[C:1]([n:2]1[c:3]([H:11])[c:4]([H:12])[c:5]([H:13])[c:6]1[N:7]([H:14])[H:15])([H:8])([H:9])[H:10]>>[C:1](/[N:2]=[C:3]([C:4](=[C:5]([C:6](=[N:7]\[H:15])\[H:14])/[H:13])/[H:12])\[H:11])([H:8])([H:9])[H:10]"
C       -1.37532934      -1.31456310       0.47010162
N       -0.19989567      -0.49535899       0.30761787
C        1.04169988      -0.84093787       0.50696352
C        1.93260512       0.17763090       0.08466393
C        1.19472291       1.16187649      -0.49743838
C       -0.25699737       0.84005690      -0.41158801
N       -1.34206079       1.04712820      -1.17768117
H       -2.10410918      -0.78713222       1.08451100
H       -1.81885901      -1.46345947      -0.51514352
H       -1.11093901      -2.26404879       0.93594566
H        1.29736626      -1.80280474       0.93418447
H        3.00593188       0.12385571       0.18375569
H        1.54959077       2.07543917      -0.95154198
H       -0.40868061       1.53805694       0.54521690
H       -1.40504585       2.00426090      -1.49956760
15
Frame=3 idx=008916 GeodesicLength=0.4070101662040666 rxn_smarts="[C:1]([n:2]1[c:3]([H:11])[c:4]([H:12])[c:5]([H:13])[c:6]1[N:7]([H:14])[H:15])([H:8])([H:9])[H:10]>>[C:1](/[N:2]=[C:3]([C:4](=[C:5]([C:6](=[N:7]\[H:15])\[H:14])/[H:13])/[H:12])\[H:11])([H:8])([H:9])[H:10]"
C       -1.37014237      -1.33229340       0.47928511
N       -0.20347295      -0.50047482       0.31880763
C        1.04027787      -0.84162296       0.51899998
C        1.92940610       0.18162827       0.10278153
C        1.19923814       1.16640505      -0.49146032
C       -0.24723037       0.84540543      -0.43137353
N       -1.33725296       1.09569574      -1.17210428
H       -2.11476773      -0.80413763       1.07429901
H       -1.79817376      -1.50667556      -0.50882513
H       -1.10651542      -2.27145690       0.96727536
H        1.30213048      -1.81566782       0.91461676
H        3.00406419       0.11203948       0.17568712
H        1.56399942       2.05830405      -0.97950599
H       -0.46787077       1.55707342       0.51705278
H       -1.39368987       2.05577763      -1.48553604
15
Frame=4 idx=008916 GeodesicLength=0.542561243453243 rxn_smarts="[C:1]([n:2]1[c:3]([H:11])[c:4]([H:12])[c:5]([H:13])[c:6]1[N:7]([H:14])[H:15])([H:8])([H:9])[H:10]>>[C:1](/[N:2]=[C:3]([C:4](=[C:5]([C:6](=[N:7]\[H:15])\[H:14])/[H:13])/[H:12])\[H:11])([H:8])([H:9])[H:10]"
C       -1.36503772      -1.35018122       0.48895214
N       -0.20746874      -0.50582609       0.32886742
C        1.03854450      -0.84326373       0.52799231
C        1.92587571       0.18419751       0.11673785
C        1.20296638       1.17188189      -0.48497336
C       -0.23853489       0.85316563      -0.44858445
N       -1.32855300       1.14390006      -1.16992479
H       -2.12611754      -0.82083914       1.06222801
H       -1.77618850      -1.55291114      -0.50110382
H       -1.10252741      -2.27718703       1.00145390
H        1.30642920      -1.82678518       0.89635451
H        3.00102356       0.10067752       0.16684315
H        1.57807663       2.04129017      -1.00486891
H       -0.52696598       1.57393245       0.49075427
H       -1.38152220       2.10794832      -1.47072822
15
Frame=5 idx=008916 GeodesicLength=0.6780610378081171 rxn_smarts="[C:1]([n:2]1[c:3]([H:11])[c:4]([H:12])[c:5]([H:13])[c:6]1[N:7]([H:14])[H:15])([H:8])([H:9])[H:10]>>[C:1](/[N:2]=[C:3]([C:4](=[C:5]([C:6](=[N:7]\[H:15])\[H:14])/[H:13])/[H:12])\[H:11])([H:8])([H:9])[H:10]"
C       -1.36000189      -1.36827918       0.49913896
N       -0.21180945      -0.51162670       0.33747306
C        1.03656067      -0.84590957       0.53396523
C        1.92207082       0.18538126       0.12694314
C        1.20611396       1.17804305      -0.47836940
C       -0.23071337       0.86325691      -0.46359075
N       -1.31653715       1.19207259      -1.17089180
H       -2.13788341      -0.83735723       1.04844803
H       -1.75308695      -1.60220521      -0.49156750
H       -1.09898384      -2.28112132       1.03836835
H        1.31017723      -1.83655601       0.87937942
H        2.99712528       0.08971647       0.15740860
H        1.59179809       2.02489043      -1.02725721
H       -0.58629637       1.58882280       0.46585557
H       -1.36853360       2.16087171      -1.45530371
15
Frame=6 idx=008916 GeodesicLength=0.8135287208674835 rxn_smarts="[C:1]([n:2]1[c:3]([H:11])[c:4]([H:12])[c:5]([H:13])[c:6]1[N:7]([H:14])[H:15])([H:8])([H:9])[H:10]>>[C:1](/[N:2]=[C:3]([C:4](=[C:5]([C:6](=[N:7]\[H:15])\[H:14])/[H:13])/[H:12])\[H:11])([H:8])([H:9])[H:10]"
C       -1.35503954      -1.38668438       0.50980197
N       -0.21648941      -0.51805957       0.34434493
C        1.03430008      -0.84949353       0.53714637
C        1.91806251       0.18521246       0.13370297
C        1.20889171       1.18458361      -0.47206717
C       -0.22361237       0.87558119      -0.47673445
N       -1.30165046       1.24061574      -1.17463604
H       -2.14989568      -0.85394081       1.03298719
H       -1.72898600      -1.65458292      -0.47990124
H       -1.09589130      -2.28317730       1.07779588
H        1.31339851      -1.84521993       0.86424101
H        2.99264895       0.07885096       0.14703480
H        1.60518482       2.00977151      -1.04620734
H       -0.64619197       1.60186966       0.44179199
H       -1.35472984       2.21467331      -1.43930088
15
Frame=7 idx=008916 GeodesicLength=0.9489583162603765 rxn_smarts="[C:1]([n:2]1[c:3]([H:11])[c:4]([H:12])[c:5]([H:13])[c:6]1[N:7]([H:14])[H:15])([H:8])([H:9])[H:10]>>[C:1](/[N:2]=[C:3]([C:4](=[C:5]([C:6](=[N:7]\[H:15])\[H:14])/[H:13])/[H:12])\[H:11])([H:8])([H:9])[H:10]"
C       -1.35013586      -1.40548554       0.52090421
N       -0.22150759      -0.52526455       0.34926456
C        1.03173124      -0.85390350       0.53784846
C        1.91387916       0.18382324       0.13750918
C        1.21147047       1.19130665      -0.46622563
C       -0.21709005       0.89007146      -0.48824960
N       -1.28413950       1.28989404      -1.18079798
H       -2.16203213      -0.87085972       1.01581172
H       -1.70392100      -1.71008518      -0.46578110
H       -1.09323866      -2.28322014       1.11955061
H        1.31610869      -1.85294397       0.85123733
H        2.98771871       0.06763101       0.13516146
H        1.61832556       1.99648473      -1.06147017
H       -0.70707021       1.61312131       0.41794212
H       -1.34009883       2.26943014      -1.42270517
15
Frame=8 idx=008916 GeodesicLength=1.0843476330798096 rxn_smarts="[C:1]([n:2]1[c:3]([H:11])[c:4]([H:12])[c:5]([H:13])[c:6]1[N:7]([H:14])[H:15])([H:8])([H:9])[H:10]>>[C:1](/[N:2]=[C:3]([C:4](=[C:5]([C:6](=[N:7]\[H:15])\[H:14])/[H:13])/[H:12])\[H:11])([H:8])([H:9])[H:10]"
C       -1.34527869      -1.42476718       0.53238689
N       -0.22687250      -0.53340248       0.35195407
C        1.02881896      -0.85909802       0.53624604
C        1.90953944       0.18129584       0.13868934
C        1.21399195       1.19807117      -0.46093251
C       -0.21102574       0.90669248      -0.49829016
N       -1.26415299       1.34030779      -1.18894041
H       -2.17416823      -0.88839440       0.99688644
H       -1.67795695      -1.76871914      -0.44887589
H       -1.09101187      -2.28109327       1.16340624
H        1.31833566      -1.85982673       0.84066254
H        2.98240563       0.05584474       0.12162204
H        1.63136532       1.98528323      -1.07319517
H       -0.76931488       1.62253043       0.39367876
H       -1.32467511       2.32527554      -1.40529822
15
Frame=9 idx=008916 GeodesicLength=1.2196790085833467 rxn_smarts="[C:1]([n:2]1[c:3]([H:11])[c:4]([H:12])[c:5]([H:13])[c:6]1[N:7]([H:14])[H:15])([H:8])([H:9])[H:10]>>[C:1](/[N:2]=[C:3]([C:4](=[C:5]([C:6](=[N:7]\[H:15])\[H:14])/[H:13])/[H:12])\[H:11])([H:8])([H:9])[H:10]"
C       -1.34044544      -1.44460374       0.54416628
N       -0.23255710      -0.54267819       0.35200283
C        1.02558765      -0.86512454       0.53227490
C        1.90498698       0.17768571       0.13746982
C        1.21656898       1.20477499      -0.45624222
C       -0.20528885       0.92544749      -0.50694302
N       -1.24174985       1.39229326      -1.19854300
H       -2.18616688      -0.90680167       0.97616981
H       -1.65120778      -1.83050550      -0.42884219
H       -1.08918132      -2.27657338       1.20913302
H        1.32009494      -1.86586908       0.83288046
H        2.97667416       0.04348466       0.10658811
H        1.64444596       1.97613295      -1.08180944
H       -0.83324133       1.62994767       0.36834461
H       -1.30852013       2.38238937      -1.38664998
15
Frame=10 idx=008916 GeodesicLength=1.3549451314933725 rxn_smarts="[C:1]([n:2]1[c:3]([H:11])[c:4]([H:12])[c:5]([H:13])[c:6]1[N:7]([H:14])[H:15])([H:8])([H:9])[H:10]>>[C:1](/[N:2]=[C:3]([C:4](=[C:5]([C:6](=[N:7]\[H:15])\[H:14])/[H:13])/[H:12])\[H:11])([H:8])([H:9])[H:10]"
C       -1.33563725      -1.46503693       0.55621455
N       -0.23858108      -0.55329473       0.34893898
C        1.02200606      -0.87202860       0.52583619
C        1.90022681       0.17305829       0.13408386
C        1.21930613       1.21136302      -0.45213406
C       -0.19977797       0.94636741      -0.51423231
N       -1.21690732       1.44623374      -1.20911958
H       -2.19791232      -0.92631279       0.95366660
H       -1.62383192      -1.89546855      -0.40520794
H       -1.08771969      -2.26933466       1.25657801
H        1.32146173      -1.87115666       0.82790677
H        2.97057307       0.03059076       0.09031548
H        1.65775592       1.96896578      -1.08762392
H       -0.89923515       1.63517205       0.34111339
H       -1.29172703       2.44088186      -1.36633602
15
Frame=11 idx=008916 GeodesicLength=1.490113660165578 rxn_smarts="[C:1]([n:2]1[c:3]([H:11])[c:4]([H:12])[c:5]([H:13])[c:6]1[N:7]([H:14])[H:15])([H:8])([H:9])[H:10]>>[C:1](/[N:2]=[C:3]([C:4](=[C:5]([C:6](=[N:7]\[H:15])\[H:14])/[H:13])/[H:12])\[H:11])([H:8])([H:9])[H:10]"
C       -1.33083846      -1.48609049       0.56847502
N       -0.24498119      -0.56549213       0.34217460
C        1.01801421      -0.87990252       0.51668988
C        1.89525331       0.16745883       0.12872658
C        1.22229755       1.21779988      -0.44856321
C       -0.19440295       0.96952161      -0.52008969
N       -1.18955382       1.50251865      -1.22009710
H       -2.20928031      -0.94716958       0.92932471
H       -1.59594181      -1.96363644      -0.37744351
H       -1.08658832      -2.25895052       1.30555902
H        1.32246545      -1.87563491       0.82589919
H        2.96415967       0.01720775       0.07307793
H        1.67148807       1.96358225      -1.09100186
H       -0.96762601       1.63794099       0.31101661
H       -1.27446538       2.50084661      -1.34374816
15
Frame=12 idx=008916 GeodesicLength=1.6251460872728827 rxn_smarts="[C:1]([n:2]1[c:3]([H:11])[c:4]([H:12])[c:5]([H:13])[c:6]1[N:7]([H:14])[H:15])([H:8])([H:9])[H:10]>>[C:1](/[N:2]=[C:3]([C:4](=[C:5]([C:6](=[N:7]\[H:15])\[H:14])/[H:13])/[H:12])\[H:11])([H:8])([H:9])[H:10]"
C       -1.32601313      -1.50773319       0.58089148
N       -0.25177455      -0.57959522       0.33095147
C        1.01357092      -0.88897115       0.50438464
C        1.89001949       0.16094751       0.12160708
C        1.22561383       1.22402073      -0.44552068
C       -0.18907043       0.99498078      -0.52434761
N       -1.15958981       1.56153012      -1.23076833
H       -2.22012532      -0.96955664       0.90308941
H       -1.56767199      -2.03500923      -0.34489515
H       -1.08571089      -2.24481554       1.35589383
H        1.32307956      -1.87922037       0.82689103
H        2.95747817       0.00354416       0.05542916
H        1.68579992       1.95964036      -1.09237655
H       -1.03864000       1.63791822       0.27689382
H       -1.25696578       2.56231947      -1.31812361
15
Frame=13 idx=008916 GeodesicLength=1.7600219416571206 rxn_smarts="[C:1]([n:2]1[c:3]([H:11])[c:4]([H:12])[c:5]([H:13])[c:6]1[N:7]([H:14])[H:15])([H:8])([H:9])[H:10]>>[C:1](/[N:2]=[C:3]([C:4](=[C:5]([C:6](=[N:7]\[H:15])\[H:14])/[H:13])/[H:12])\[H:11])([H:8])([H:9])[H:10]"
C       -1.32117513      -1.52985832       0.59350202
N       -0.25892931      -0.59607429       0.31414190
C        1.00877882      -0.89964847       0.48789871
C        1.88444758       0.15362914       0.11309901
C        1.22936131       1.22998522      -0.44294102
C       -0.18364141       1.02282175      -0.52675823
N       -1.12685831       1.62359209      -1.24039583
H       -2.23033951      -0.99354169       0.87514241
H       -1.53949419      -2.10962485      -0.30664377
H       -1.08493166      -2.22602594       1.40753353
H        1.32333933      -1.88190186       0.83035291
H        2.95056787      -0.00992912       0.03853471
H        1.70091229       1.95675760      -1.09212000
H       -1.11245717       1.63462174       0.23726574
H       -1.23958050       2.62519703      -1.28861208
15
Frame=14 idx=008916 GeodesicLength=1.8946004765885531 rxn_smarts="[C:1]([n:2]1[c:3]([H:11])[c:4]([H:12])[c:5]([H:13])[c:6]1[N:7]([H:14])[H:15])([H:8])([H:9])[H:10]>>[C:1](/[N:2]=[C:3]([C:4](=[C:5]([C:6](=[N:7]\[H:15])\[H:14])/[H:13])/[H:12])\[H:11])([H:8])([H:9])[H:10]"
C       -1.31614519      -1.55220585       0.60617099
N       -0.26649646      -0.61525297       0.29100574
C        1.00347335      -0.91225743       0.46672199
C        1.87847786       0.14550743       0.10349621
C        1.23351588       1.23547362      -0.44090004
C       -0.17810923       1.05309862      -0.52670454
N       -1.09131774       1.68892933      -1.24781016
H       -2.23968562      -1.01929263       0.84532362
H       -1.51119831      -2.18703303      -0.26183660
H       -1.08404206      -2.20160723       1.45994038
H        1.32294998      -1.88352954       0.83596685
H        2.94358929      -0.02295568       0.02332166
H        1.71677571       1.95417940      -1.09093116
H       -1.18891445       1.62778277       0.19038803
H       -1.22287303       2.68916319      -1.25415298
15
Frame=15 idx=008916 GeodesicLength=2.028777438460542 rxn_smarts="[C:1]([n:2]1[c:3]([H:11])[c:4]([H:12])[c:5]([H:13])[c:6]1[N:7]([H:14])[H:15])([H:8])([H:9])[H:10]>>[C:1](/[N:2]=[C:3]([C:4](=[C:5]([C:6](=[N:7]\[H:15])\[H:14])/[H:13])/[H:12])\[H:11])([H:8])([H:9])[H:10]"
C       -1.31080526      -1.57434832       0.61890704
N       -0.27444180      -0.63739036       0.26098744
C        0.99773133      -0.92711069       0.44018140
C        1.87201540       0.13665912       0.09336917
C        1.23810302       1.24032773      -0.43932089
C       -0.17239267       1.08584342      -0.52328401
N       -1.05287721       1.75741863      -1.25184273
H       -2.24802109      -1.04685672       0.81401904
H       -1.48291395      -2.26637795      -0.20958278
H       -1.08278016      -2.17052406       1.51245492
H        1.32169907      -1.88423027       0.84216080
H        2.93662512      -0.03509887       0.01129925
H        1.73336956       1.95112382      -1.08947667
H       -1.26762442       1.61714698       0.13402855
H       -1.20768695       2.75341754      -1.21390053
15
Frame=16 idx=008916 GeodesicLength=2.1623938758276497 rxn_smarts="[C:1]([n:2]1[c:3]([H:11])[c:4]([H:12])[c:5]([H:13])[c:6]1[N:7]([H:14])[H:15])([H:8])([H:9])[H:10]>>[C:1](/[N:2]=[C:3]([C:4](=[C:5]([C:6](=[N:7]\[H:15])\[H:14])/[H:13])/[H:12])\[H:11])([H:8])([H:9])[H:10]"
C       -1.30487088      -1.59585259       0.63099568
N       -0.28267269      -0.66194749       0.22544078
C        0.99146807      -0.94309287       0.41138562
C        1.86513134       0.12672391       0.08227480
C        1.24304818       1.24417510      -0.43842813
C       -0.16649076       1.12122317      -0.51471071
N       -1.01176222       1.82891504      -1.25037192
H       -2.25571037      -1.07713920       0.77925826
H       -1.45228229      -2.34632770      -0.15016261
H       -1.08205090      -2.13197427       1.56374514
H        1.31920777      -1.88332148       0.84980233
H        2.92944805      -0.04782732       0.00017081
H        1.75011015       1.94643764      -1.08912242
H       -1.34725107       1.60301412       0.06627999
H       -1.19532237       2.81699396      -1.16655762
