13
Frame=0 idx=007966 GeodesicLength=0.0 rxn_smarts="[N:1](=[C:2]1\[O:3][C:4]([H:9])([H:10])[C@@:5]12[C:6]([H:11])([H:12])[N:7]2[H:13])\[H:8]>>[N:1](=[C:2]1\[O:3][C:4]([H:9])([H:10])[C:5][N:7]([H:13])[C:6]1([H:11])[H:12])\[H:8]"
N        1.29805291      -1.02409199      -1.44767513
C        0.74732743      -0.26152306      -0.61578493
O        1.16482930       0.98557942      -0.22632068
C        0.36489336       1.16231751       0.94479524
C       -0.04109956      -0.29433166       1.04478948
C       -0.95042551      -0.38314324      -0.49295781
N       -1.40145860      -0.57333823       0.89459117
H        2.21412028      -0.67424797      -1.71314014
H        0.99041444       1.45151491       1.78988672
H       -0.41984545       1.90911612       0.77725747
H       -1.07124466      -1.27419579      -1.09283598
H       -1.33371673       0.53813007      -0.91898826
H       -1.56184715      -1.56178612       1.05638283
13
Frame=1 idx=007966 GeodesicLength=0.05655360819543481 rxn_smarts="[N:1](=[C:2]1\[O:3][C:4]([H:9])([H:10])[C@@:5]12[C:6]([H:11])([H:12])[N:7]2[H:13])\[H:8]>>[N:1](=[C:2]1\[O:3][C:4]([H:9])([H:10])[C:5][N:7]([H:13])[C:6]1([H:11])[H:12])\[H:8]"
N        1.30641222      -1.02539004      -1.44167934
C        0.74980402      -0.25982234      -0.61643667
O        1.17054522       0.98535482      -0.22610721
C        0.37008436       1.16732909       0.94600793
C       -0.05114852      -0.28225650       1.04593543
C       -0.96037756      -0.38519076      -0.49724142
N       -1.40213548      -0.58177711       0.89094645
H        2.22122505      -0.67355730      -1.70905181
H        0.99852464       1.44793924       1.79171308
H       -0.40709992       1.92193997       0.78084928
H       -1.08190816      -1.27473758      -1.09973521
H       -1.35849400       0.53063136      -0.92196175
H       -1.55543188      -1.57046285       1.05676125
13
Frame=2 idx=007966 GeodesicLength=0.11310657332927408 rxn_smarts="[N:1](=[C:2]1\[O:3][C:4]([H:9])([H:10])[C@@:5]12[C:6]([H:11])([H:12])[N:7]2[H:13])\[H:8]>>[N:1](=[C:2]1\[O:3][C:4]([H:9])([H:10])[C:5][N:7]([H:13])[C:6]1([H:11])[H:12])\[H:8]"
N        1.31478535      -1.02674666      -1.43545960
C        0.75230627      -0.25807478      -0.61704900
O        1.17644856       0.98507078      -0.22573452
C        0.37533771       1.17244126       0.94724747
C       -0.06151856      -0.26980027       1.04690751
C       -0.97048447      -0.38717863      -0.50164530
N       -1.40267816      -0.59032725       0.88717533
H        2.22830310      -0.67295107      -1.70491254
H        1.00653076       1.44418641       1.79368592
H       -0.39393335       1.93504615       0.78438175
H       -1.09275663      -1.27522219      -1.10674177
H       -1.38385328       0.52281474      -0.92485231
H       -1.54848730      -1.57925848       1.05699706
13
Frame=3 idx=007966 GeodesicLength=0.16965960220680074 rxn_smarts="[N:1](=[C:2]1\[O:3][C:4]([H:9])([H:10])[C@@:5]12[C:6]([H:11])([H:12])[N:7]2[H:13])\[H:8]>>[N:1](=[C:2]1\[O:3][C:4]([H:9])([H:10])[C:5][N:7]([H:13])[C:6]1([H:11])[H:12])\[H:8]"
N        1.32316887      -1.02815833      -1.42900202
C        0.75483527      -0.25627991      -0.61761681
O        1.18254590       0.98472160      -0.22519015
C        0.38065397       1.17765587       0.94851834
C       -0.07223227      -0.25693907       1.04769162
C       -0.98075317      -0.38910293      -0.50617913
N       -1.40307257      -0.59898528       0.88326760
H        2.23534140      -0.67243795      -1.70073069
H        1.01441819       1.44024071       1.79581744
H       -0.38032160       1.94844363       0.78785744
H       -1.10378776      -1.27565341      -1.11385512
H       -1.40981954       0.51465403      -0.92765691
H       -1.54097668      -1.58815896       1.05707840
13
Frame=4 idx=007966 GeodesicLength=0.2262085436575817 rxn_smarts="[N:1](=[C:2]1\[O:3][C:4]([H:9])([H:10])[C@@:5]12[C:6]([H:11])([H:12])[N:7]2[H:13])\[H:8]>>[N:1](=[C:2]1\[O:3][C:4]([H:9])([H:10])[C:5][N:7]([H:13])[C:6]1([H:11])[H:12])\[H:8]"
N        1.33156084      -1.02962476      -1.42230360
C        0.75738882      -0.25443246      -0.61813930
O        1.18884228       0.98430320      -0.22446378
C        0.38603399       1.18297318       0.94982484
C       -0.08330827      -0.24365030       1.04826962
C       -0.99119166      -0.39095993      -0.51085265
N       -1.40330276      -0.60774522       0.87921474
H        2.24233448      -0.67202409      -1.69650495
H        1.02217266       1.43608653       1.79812005
H       -0.36624083       1.96213746       0.79128280
H       -1.11500196      -1.27603650      -1.12107556
H       -1.43641686       0.50612113      -0.93037357
H       -1.53287072      -1.59714823       1.05700138
13
Frame=5 idx=007966 GeodesicLength=0.2827560035747081 rxn_smarts="[N:1](=[C:2]1\[O:3][C:4]([H:9])([H:10])[C@@:5]12[C:6]([H:11])([H:12])[N:7]2[H:13])\[H:8]>>[N:1](=[C:2]1\[O:3][C:4]([H:9])([H:10])[C:5][N:7]([H:13])[C:6]1([H:11])[H:12])\[H:8]"
N        1.33996009      -1.03115059      -1.41534009
C        0.75997008      -0.25253643      -0.61860692
O        1.19534732       0.98380475      -0.22353697
C        0.39147778       1.18839332       0.95117353
C       -0.09477701      -0.22990477       1.04862604
C       -1.00180698      -0.39274649      -0.51567799
N       -1.40335328      -0.61659803       0.87500305
H        2.24925970      -0.67170419      -1.69226397
H        1.02977448       1.43170417       1.80061161
H       -0.35166305       1.97613649       0.79465999
H       -1.12639506      -1.27637993      -1.12839921
H       -1.46366617       0.49718318      -0.93300214
H       -1.52412791      -1.60620147       1.05675307
13
Frame=6 idx=007966 GeodesicLength=0.33930373465102875 rxn_smarts="[N:1](=[C:2]1\[O:3][C:4]([H:9])([H:10])[C@@:5]12[C:6]([H:11])([H:12])[N:7]2[H:13])\[H:8]>>[N:1](=[C:2]1\[O:3][C:4]([H:9])([H:10])[C:5][N:7]([H:13])[C:6]1([H:11])[H:12])\[H:8]"
N        1.34836542      -1.03273108      -1.40809727
C        0.76257947      -0.25058840      -0.61901662
O        1.20206710       0.98322020      -0.22239454
C        0.39698679       1.19391538       0.95257170
C       -0.10666570      -0.21567332       1.04873747
C       -1.01260781      -0.39446080      -0.52066739
N       -1.40320598      -0.62553199       0.87062117
H        2.25610294      -0.67148181      -1.68802025
H        1.03720462       1.42706872       1.80330803
H       -0.33655616       1.99044697       0.79799857
H       -1.13796317      -1.27669460      -1.13582345
H       -1.49159591       0.48779837      -0.93554287
H       -1.51471162      -1.61528765       1.05632545
13
Frame=7 idx=007966 GeodesicLength=0.39585395158847925 rxn_smarts="[N:1](=[C:2]1\[O:3][C:4]([H:9])([H:10])[C@@:5]12[C:6]([H:11])([H:12])[N:7]2[H:13])\[H:8]>>[N:1](=[C:2]1\[O:3][C:4]([H:9])([H:10])[C:5][N:7]([H:13])[C:6]1([H:11])[H:12])\[H:8]"
N        1.35677358      -1.03436270      -1.40056794
C        0.76521454      -0.24858171      -0.61937036
O        1.20900581       0.98254610      -0.22102337
C        0.40256117       1.19953789       0.95402602
C       -0.11900318      -0.20092425       1.04857577
C       -1.02360445      -0.39610091      -0.52583522
N       -1.40283905      -0.63453120       0.86605643
H        2.26285698      -0.67136615      -1.68377376
H        1.04444413       1.42214951       1.80622627
H       -0.32089024       2.00507372       0.80131110
H       -1.14970606      -1.27699343      -1.14334578
H       -1.52023710       0.47792880      -0.93799405
H       -1.50457613      -1.62437567       1.05571488
13
Frame=8 idx=007966 GeodesicLength=0.45240108406770474 rxn_smarts="[N:1](=[C:2]1\[O:3][C:4]([H:9])([H:10])[C@@:5]12[C:6]([H:11])([H:12])[N:7]2[H:13])\[H:8]>>[N:1](=[C:2]1\[O:3][C:4]([H:9])([H:10])[C:5][N:7]([H:13])[C:6]1([H:11])[H:12])\[H:8]"
N        1.36518315      -1.03604980      -1.39274617
C        0.76787229      -0.24650914      -0.61967075
O        1.21616746       0.98177649      -0.21941001
C        0.40820340       1.20525665       0.95554388
C       -0.13181217      -0.18562879       1.04811153
C       -1.03480873      -0.39766482      -0.53119545
N       -1.40223505      -0.64356920       0.86129862
H        2.26951797      -0.67134385      -1.67953334
H        1.05147373       1.41691806       1.80938188
H       -0.30462962       2.02001851       0.80461615
H       -1.16162307      -1.27729412      -1.15095872
H       -1.54961153       0.46752087      -0.94035885
H       -1.49369784      -1.63343086       1.05492122
13
Frame=9 idx=007966 GeodesicLength=0.5089523612469615 rxn_smarts="[N:1](=[C:2]1\[O:3][C:4]([H:9])([H:10])[C@@:5]12[C:6]([H:11])([H:12])[N:7]2[H:13])\[H:8]>>[N:1](=[C:2]1\[O:3][C:4]([H:9])([H:10])[C:5][N:7]([H:13])[C:6]1([H:11])[H:12])\[H:8]"
N        1.37358257      -1.03777553      -1.38463553
C        0.77054207      -0.24435312      -0.61992912
O        1.22355161       0.98091215      -0.21754202
C        0.41391419       1.21106496       0.95713603
C       -0.14513340      -0.16974566       1.04730380
C       -1.04623635      -0.39915338      -0.53676573
N       -1.40136008      -0.65263451       0.85633146
H        2.27608015      -0.67144639      -1.67527634
H        1.05827120       1.41132338       1.81279862
H       -0.28774310       2.03528803       0.80792953
H       -1.17371127      -1.27761395      -1.15865838
H       -1.57975613       0.45653353      -0.94263933
H       -1.48200145      -1.64239953       1.05394699
13
Frame=10 idx=007966 GeodesicLength=0.5655081565934045 rxn_smarts="[N:1](=[C:2]1\[O:3][C:4]([H:9])([H:10])[C@@:5]12[C:6]([H:11])([H:12])[N:7]2[H:13])\[H:8]>>[N:1](=[C:2]1\[O:3][C:4]([H:9])([H:10])[C:5][N:7]([H:13])[C:6]1([H:11])[H:12])\[H:8]"
N        1.38197531      -1.03953327      -1.37621927
C        0.77322801      -0.24210945      -0.62014791
O        1.23116362       0.97994642      -0.21540131
C        0.41969432       1.21695662       0.95881257
C       -0.15899296      -0.15324118       1.04611332
C       -1.05789719      -0.40056999      -0.54256447
N       -1.40019968      -0.66167993       0.85114207
H        2.28253190      -0.67165271      -1.67103364
H        1.06480880       1.40532622       1.81649306
H       -0.27017939       2.05087726       0.81128629
H       -1.18596430      -1.27798516      -1.16643099
H       -1.61069743       0.44488668      -0.94484189
H       -1.46947102      -1.65122152       1.05279216
13
Frame=11 idx=007966 GeodesicLength=0.6220683909065505 rxn_smarts="[N:1](=[C:2]1\[O:3][C:4]([H:9])([H:10])[C@@:5]12[C:6]([H:11])([H:12])[N:7]2[H:13])\[H:8]>>[N:1](=[C:2]1\[O:3][C:4]([H:9])([H:10])[C:5][N:7]([H:13])[C:6]1([H:11])[H:12])\[H:8]"
N        1.39035735      -1.04131577      -1.36750019
C        0.77592462      -0.23976171      -0.62034042
O        1.23900490       0.97887872      -0.21297383
C        0.42554573       1.22292269       0.96058514
C       -0.17341904      -0.13607624       1.04449456
C       -1.06980540      -0.40191644      -0.54861158
N       -1.39872766      -0.67066113       0.84571675
H        2.28886917      -0.67195756      -1.66680908
H        1.07106311       1.39887577       1.82048767
H       -0.25189849       2.06678102       0.81472321
H       -1.19837737      -1.27844053      -1.17426187
H       -1.64245859       0.43250623      -0.94697943
H       -1.45607832      -1.65983505       1.05146908
13
Frame=12 idx=007966 GeodesicLength=0.6786337178920938 rxn_smarts="[N:1](=[C:2]1\[O:3][C:4]([H:9])([H:10])[C@@:5]12[C:6]([H:11])([H:12])[N:7]2[H:13])\[H:8]>>[N:1](=[C:2]1\[O:3][C:4]([H:9])([H:10])[C:5][N:7]([H:13])[C:6]1([H:11])[H:12])\[H:8]"
N        1.39872193      -1.04309957      -1.35848314
C        0.77862554      -0.23728883      -0.62052725
O        1.24707260       0.97771200      -0.21024770
C        0.43147132       1.22895017       0.96246784
C       -0.18844342      -0.11820858       1.04238863
C       -1.08197782      -0.40319815      -0.55492974
N       -1.39692059      -0.67952308       0.84004054
H        2.29509351      -0.67236511      -1.66259527
H        1.07700692       1.39190579       1.82480199
H       -0.23285193       2.08299237       0.81828528
H       -1.21094453      -1.27902139      -1.18213232
H       -1.67506847       0.41930246      -0.94905632
H       -1.44178506      -1.66815808       1.04998746
13
Frame=13 idx=007966 GeodesicLength=0.7352054623465456 rxn_smarts="[N:1](=[C:2]1\[O:3][C:4]([H:9])([H:10])[C@@:5]12[C:6]([H:11])([H:12])[N:7]2[H:13])\[H:8]>>[N:1](=[C:2]1\[O:3][C:4]([H:9])([H:10])[C:5][N:7]([H:13])[C:6]1([H:11])[H:12])\[H:8]"
N        1.40706314      -1.04486619      -1.34918360
C        0.78132040      -0.23466230      -0.62073687
O        1.25536217       0.97645237      -0.20721411
C        0.43747313       1.23502306       0.96447484
C       -0.20409529      -0.09959387       1.03973155
C       -1.09443222      -0.40442433      -0.56154302
N       -1.39475224      -0.68820278       0.83409931
H        2.30121135      -0.67287237      -1.65838173
H        1.08261206       1.38434408       1.82945725
H       -0.21298860       2.09949911       0.82203135
H       -1.22365834      -1.27977626      -1.19001961
H       -1.70854974       0.40518035      -0.95108764
H       -1.42656582      -1.67610089       1.04837228
13
Frame=14 idx=007966 GeodesicLength=0.7917783135572778 rxn_smarts="[N:1](=[C:2]1\[O:3][C:4]([H:9])([H:10])[C@@:5]12[C:6]([H:11])([H:12])[N:7]2[H:13])\[H:8]>>[N:1](=[C:2]1\[O:3][C:4]([H:9])([H:10])[C:5][N:7]([H:13])[C:6]1([H:11])[H:12])\[H:8]"
N        1.41537454      -1.04658596      -1.33961963
C        0.78400225      -0.23185314      -0.62100177
O        1.26386578       0.97510834      -0.20386676
C        0.44355382       1.24112248       0.96662140
C       -0.22039353      -0.08018979       1.03645478
C       -1.10718600      -0.40560771      -0.56847445
N       -1.39220271      -0.69661967       0.82788314
H        2.30723039      -0.67346886      -1.65416371
H        1.08785136       1.37611324       1.83446945
H       -0.19225683       2.11628083       0.82603343
H       -1.23651003      -1.28076468      -1.19789223
H       -1.74291095       0.39003179      -0.95309761
H       -1.41041810      -1.68356688       1.04665398
13
Frame=15 idx=007966 GeodesicLength=0.8483587522426168 rxn_smarts="[N:1](=[C:2]1\[O:3][C:4]([H:9])([H:10])[C@@:5]12[C:6]([H:11])([H:12])[N:7]2[H:13])\[H:8]>>[N:1](=[C:2]1\[O:3][C:4]([H:9])([H:10])[C:5][N:7]([H:13])[C:6]1([H:11])[H:12])\[H:8]"
N        1.42364932      -1.04822899      -1.32980930
C        0.78666063      -0.22882426      -0.62136486
O        1.27257342       0.97369194      -0.20020117
C        0.44971731       1.24722311       0.96892683
C       -0.23736894      -0.05994260       1.03247191
C       -1.12025876      -0.40676682      -0.57575254
N       -1.38925177      -0.70468338       0.82137733
H        2.31316328      -0.67414337      -1.64993123
H        1.09269037       1.36710921       1.83985794
H       -0.17059546       2.13331411       0.83037550
H       -1.24948941      -1.28205819      -1.20571417
H       -1.77816923       0.37373315      -0.95510558
H       -1.39332074      -1.69042389       1.04486935
13
Frame=16 idx=007966 GeodesicLength=0.9049458437218972 rxn_smarts="[N:1](=[C:2]1\[O:3][C:4]([H:9])([H:10])[C@@:5]12[C:6]([H:11])([H:12])[N:7]2[H:13])\[H:8]>>[N:1](=[C:2]1\[O:3][C:4]([H:9])([H:10])[C:5][N:7]([H:13])[C:6]1([H:11])[H:12])\[H:8]"
N        1.43187668      -1.04975535      -1.31979045
C        0.78928133      -0.22552848      -0.62188225
O        1.28146912       0.97222268      -0.19622282
C        0.45596637       1.25329780       0.97140765
C       -0.25503748      -0.03880151       1.02769203
C       -1.13367363      -0.40792072      -0.58340527
N       -1.38588128      -0.71228888       0.81457087
H        2.31903639      -0.67488874      -1.64565346
H        1.09710033       1.35722412       1.84563278
H       -0.14794551       2.15056666       0.83516092
H       -1.26258564      -1.28373509      -1.21344030
H       -1.81432754       0.35614893      -0.95713306
H       -1.37527913      -1.69654141       1.04306336
