13
Frame=0 idx=004820 GeodesicLength=0.0 rxn_smarts="[C:1]([O:2][C@@:3]([C:4]([H:11])([H:12])[H:13])([C:5]#[N:6])[H:10])([H:7])([H:8])[H:9]>>[C:1]1([H:7])([H:9])[O:2][C@:3]([C:4]([H:11])([H:12])[H:13])([H:10])[C:5][N:6]1[H:8]"
C        1.47591291       0.25991209       0.54282048
O        0.96887416      -0.73208922      -0.18808423
C       -0.34038762      -0.54089377      -0.69292743
C       -1.43171496      -0.73577381       0.34686388
C       -0.38892414       0.90525899      -1.20484086
N        0.42364152       1.67942139      -0.73150683
H        0.99289113       0.48982203       1.49296657
H        1.30895757       2.02317408      -0.39269389
H        2.56207635       0.25747737       0.54099643
H       -0.45017007      -1.25043283      -1.51240225
H       -1.35602834      -1.73356344       0.77971753
H       -1.35707837       0.00546796       1.14365819
H       -2.40805013      -0.62778087      -0.12456753
13
Frame=1 idx=004820 GeodesicLength=0.11528668440629855 rxn_smarts="[C:1]([O:2][C@@:3]([C:4]([H:11])([H:12])[H:13])([C:5]#[N:6])[H:10])([H:7])([H:8])[H:9]>>[C:1]1([H:7])([H:9])[O:2][C@:3]([C:4]([H:11])([H:12])[H:13])([H:10])[C:5][N:6]1[H:8]"
C        1.48445607       0.28117196       0.53335088
O        0.95762849      -0.73154334      -0.16047486
C       -0.34389388      -0.53464936      -0.68199977
C       -1.44476407      -0.74783654       0.34349373
C       -0.40021877       0.91024433      -1.18732098
N        0.41735021       1.68748893      -0.72857472
H        1.01781850       0.52935566       1.48745570
H        1.34819748       1.99503316      -0.40397391
H        2.57063872       0.25245676       0.53033203
H       -0.44007917      -1.23556361      -1.51138099
H       -1.36939714      -1.75080119       0.76420883
H       -1.38026283      -0.01644098       1.15015727
H       -2.41747362      -0.63891580      -0.13527323
13
Frame=2 idx=004820 GeodesicLength=0.23053396019366793 rxn_smarts="[C:1]([O:2][C@@:3]([C:4]([H:11])([H:12])[H:13])([C:5]#[N:6])[H:10])([H:7])([H:8])[H:9]>>[C:1]1([H:7])([H:9])[O:2][C@:3]([C:4]([H:11])([H:12])[H:13])([H:10])[C:5][N:6]1[H:8]"
C        1.49341102       0.30175080       0.52363333
O        0.94586393      -0.73034411      -0.13120322
C       -0.34738352      -0.52811224      -0.67026489
C       -1.45817611      -0.76006624       0.33981205
C       -0.41147769       0.91561078      -1.16867319
N        0.41120251       1.69571806      -0.72485288
H        1.04426471       0.56915306       1.48131509
H        1.38667204       1.96676234      -0.41724740
H        2.57899421       0.24697374       0.51928297
H       -0.42905293      -1.22012555      -1.50944005
H       -1.38302716      -1.76819424       0.74796387
H       -1.40437859      -0.03903185       1.15647385
H       -2.42691241      -0.65009455      -0.14679953
13
Frame=3 idx=004820 GeodesicLength=0.34574752874273296 rxn_smarts="[C:1]([O:2][C@@:3]([C:4]([H:11])([H:12])[H:13])([C:5]#[N:6])[H:10])([H:7])([H:8])[H:9]>>[C:1]1([H:7])([H:9])[O:2][C@:3]([C:4]([H:11])([H:12])[H:13])([H:10])[C:5][N:6]1[H:8]"
C        1.50277357       0.32168898       0.51364691
O        0.93351913      -0.72834864      -0.10011019
C       -0.35087026      -0.52125269      -0.65764888
C       -1.47197562      -0.77248828       0.33577472
C       -0.42274816       0.92139196      -1.14882002
N        0.40507131       1.70418822      -0.72021127
H        1.07238241       0.60928347       1.47447413
H        1.42450637       1.93812944      -0.43259477
H        2.58714693       0.24095928       0.50774696
H       -0.41699974      -1.20408094      -1.50647541
H       -1.39685184      -1.78574120       0.73095919
H       -1.42960323      -0.06231757       1.16252230
H       -2.43635087      -0.66141202      -0.15926367
13
Frame=4 idx=004820 GeodesicLength=0.46093470148435217 rxn_smarts="[C:1]([O:2][C@@:3]([C:4]([H:11])([H:12])[H:13])([C:5]#[N:6])[H:10])([H:7])([H:8])[H:9]>>[C:1]1([H:7])([H:9])[O:2][C@:3]([C:4]([H:11])([H:12])[H:13])([H:10])[C:5][N:6]1[H:8]"
C        1.51253881       0.34100577       0.50334847
O        0.92052062      -0.72539849      -0.06701755
C       -0.35436167      -0.51404374      -0.64406896
C       -1.48617704      -0.78511561       0.33133356
C       -0.43405292       0.92760664      -1.12769494
N        0.39886150       1.71295706      -0.71454820
H        1.10234931       0.64979864       1.46682384
H        1.46171236       1.90893510      -0.44999285
H        2.59508376       0.23431842       0.49558080
H       -0.40381720      -1.18739802      -1.50235081
H       -1.41079666      -1.80341757       0.71318993
H       -1.45611271      -0.08629302       1.16819084
H       -2.44574818      -0.67295517      -0.17279411
13
Frame=5 idx=004820 GeodesicLength=0.5760913988305035 rxn_smarts="[C:1]([O:2][C@@:3]([C:4]([H:11])([H:12])[H:13])([C:5]#[N:6])[H:10])([H:7])([H:8])[H:9]>>[C:1]1([H:7])([H:9])[O:2][C@:3]([C:4]([H:11])([H:12])[H:13])([H:10])[C:5][N:6]1[H:8]"
C        1.52269771       0.35970664       0.49268807
O        0.90678610      -0.72130659      -0.03172246
C       -0.35786306      -0.50645287      -0.62943496
C       -1.50078765      -0.79795831       0.32643672
C       -0.44541426       0.93427772      -1.10522725
N        0.39249103       1.72207873      -0.70776039
H        1.13436482       0.69074243       1.45823201
H        1.49824800       1.87898378      -0.46940477
H        2.60277228       0.22692339       0.48262500
H       -0.38938816      -1.17003775      -1.49691434
H       -1.42476800      -1.82119181       0.69466110
H       -1.48409313      -0.11095035       1.17335585
H       -2.45504568      -0.68481503      -0.18753459
13
Frame=6 idx=004820 GeodesicLength=0.6912092681173075 rxn_smarts="[C:1]([O:2][C@@:3]([C:4]([H:11])([H:12])[H:13])([C:5]#[N:6])[H:10])([H:7])([H:8])[H:9]>>[C:1]1([H:7])([H:9])[O:2][C@:3]([C:4]([H:11])([H:12])[H:13])([H:10])[C:5][N:6]1[H:8]"
C        1.53323073       0.37778525       0.48161370
O        0.89222137      -0.71584323       0.00599992
C       -0.36138061      -0.49843698      -0.61364792
C       -1.51580298      -0.81102828       0.32102747
C       -0.45686093       0.94144060      -1.08133135
N        0.38588545       1.73161483      -0.69973207
H        1.16864308       0.73215504       1.44853711
H        1.53404072       1.84806414      -0.49081276
H        2.61015046       0.21860642       0.46872227
H       -0.37358499      -1.15194655      -1.48999547
H       -1.43864276      -1.83903268       0.67538200
H       -1.51373740      -0.13628497       1.17787978
H       -2.46416214      -0.69709359      -0.20364268
13
Frame=7 idx=004820 GeodesicLength=0.8062793528898372 rxn_smarts="[C:1]([O:2][C@@:3]([C:4]([H:11])([H:12])[H:13])([C:5]#[N:6])[H:10])([H:7])([H:8])[H:9]>>[C:1]1([H:7])([H:9])[O:2][C@:3]([C:4]([H:11])([H:12])[H:13])([H:10])[C:5][N:6]1[H:8]"
C        1.54410362       0.39521967       0.47006945
O        0.87671916      -0.70873054       0.04638767
C       -0.36492249      -0.48994484      -0.59660378
C       -1.53120039      -0.82433675       0.31504461
C       -0.46842882       0.94914267      -1.05591456
N        0.37897873       1.74163385      -0.69034467
H        1.20541106       0.77406329       1.43754096
H        1.56898153       1.81595585      -0.51418901
H        2.61711630       0.20915634       0.45372139
H       -0.35627806      -1.13306337      -1.48140542
H       -1.45225702      -1.85690369       0.65537583
H       -1.54523689      -0.16228817       1.18160567
H       -2.47298673      -0.70990430      -0.22128814
13
Frame=8 idx=004820 GeodesicLength=0.9213017273785533 rxn_smarts="[C:1]([O:2][C@@:3]([C:4]([H:11])([H:12])[H:13])([C:5]#[N:6])[H:10])([H:7])([H:8])[H:9]>>[C:1]1([H:7])([H:9])[O:2][C@:3]([C:4]([H:11])([H:12])[H:13])([H:10])[C:5][N:6]1[H:8]"
C        1.55525931       0.41196956       0.45799763
O        0.86016187      -0.69962992       0.08967458
C       -0.36849842      -0.48091241      -0.57819710
C       -1.54693290      -0.83789628       0.30842648
C       -0.48015936       0.95745123      -1.02887921
N        0.37171127       1.75221916      -0.67947886
H        1.24488770       0.81646608       1.42500114
H        1.60293693       1.78242204      -0.53950740
H        2.62351773       0.19831407       0.43749817
H       -0.33733954      -1.11331219      -1.47093637
H       -1.46539557      -1.87476665       0.63468728
H       -1.57877558      -0.18895085       1.18435569
H       -2.48137344      -0.72337382      -0.24064203
13
Frame=9 idx=004820 GeodesicLength=1.0362359435042305 rxn_smarts="[C:1]([O:2][C@@:3]([C:4]([H:11])([H:12])[H:13])([C:5]#[N:6])[H:10])([H:7])([H:8])[H:9]>>[C:1]1([H:7])([H:9])[O:2][C@:3]([C:4]([H:11])([H:12])[H:13])([H:10])[C:5][N:6]1[H:8]"
C        1.56658904       0.42798129       0.44535550
O        0.84242694      -0.68813886       0.13608191
C       -0.37212067      -0.47124920      -0.55832809
C       -1.56290185      -0.85171013       0.30110901
C       -0.49209872       0.96644581      -1.00011350
N        0.36402822       1.76341863      -0.66697831
H        1.28726108       0.85933237       1.41063653
H        1.63572929       1.74715927      -0.56679060
H        2.62910286       0.18577219       0.41997821
H       -0.31666355      -1.09255564      -1.45838286
H       -1.47775648      -1.89255343       0.61338618
H       -1.61448997      -0.21626342       1.18592755
H       -2.48910619      -0.73763886      -0.26188152
13
Frame=10 idx=004820 GeodesicLength=1.1511035627455515 rxn_smarts="[C:1]([O:2][C@@:3]([C:4]([H:11])([H:12])[H:13])([C:5]#[N:6])[H:10])([H:7])([H:8])[H:9]>>[C:1]1([H:7])([H:9])[O:2][C@:3]([C:4]([H:11])([H:12])[H:13])([H:10])[C:5][N:6]1[H:8]"
C        1.57795864       0.44316138       0.43209446
O        0.82340355      -0.67379176       0.18571164
C       -0.37580458      -0.46087087      -0.53693590
C       -1.57896465      -0.86577749       0.29304770
C       -0.50429074       0.97622586      -0.96956812
N        0.35588082       1.77535208      -0.65275156
H        1.33263765       0.90253880       1.39410556
H        1.66716301       1.70990230      -0.59593796
H        2.63357747       0.17118182       0.40119011
H       -0.29420144      -1.07070459      -1.44354045
H       -1.48896862      -1.91019835       0.59160659
H       -1.65245505      -0.24418639       1.18610151
H       -2.49593605      -0.75283279      -0.28512359
13
Frame=11 idx=004820 GeodesicLength=1.265881437638777 rxn_smarts="[C:1]([O:2][C@@:3]([C:4]([H:11])([H:12])[H:13])([C:5]#[N:6])[H:10])([H:7])([H:8])[H:9]>>[C:1]1([H:7])([H:9])[O:2][C@:3]([C:4]([H:11])([H:12])[H:13])([H:10])[C:5][N:6]1[H:8]"
C        1.58915254       0.45739673       0.41819801
O        0.80301985      -0.65609320       0.23850788
C       -0.37956775      -0.44968233      -0.51402240
C       -1.59488826      -0.88006855       0.28422026
C       -0.51677061       0.98688611      -0.93725016
N        0.34722882       1.78809597      -0.63670351
H        1.38097226       0.94585452       1.37504773
H        1.69700934       1.67034367      -0.62682330
H        2.63652369       0.15420118       0.38131382
H       -0.27000890      -1.04764062      -1.42627377
H       -1.49855031      -1.92758184       0.56954493
H       -1.69258753      -0.27265030       1.18465482
H       -2.50153314      -0.76906134      -0.31041432
13
Frame=12 idx=004820 GeodesicLength=1.3805685913037158 rxn_smarts="[C:1]([O:2][C@@:3]([C:4]([H:11])([H:12])[H:13])([C:5]#[N:6])[H:10])([H:7])([H:8])[H:9]>>[C:1]1([H:7])([H:9])[O:2][C@:3]([C:4]([H:11])([H:12])[H:13])([H:10])[C:5][N:6]1[H:8]"
C        1.59988480       0.47055401       0.40369062
O        0.78129838      -0.63460204       0.29411101
C       -0.38343017      -0.43760690      -0.48970830
C       -1.61034936      -0.89451927       0.27465694
C       -0.52954957       0.99851133      -0.90330888
N        0.33803681       1.80172272      -0.61879768
H        1.43195374       0.98888316       1.35312531
H        1.72505512       1.62819558      -0.65921659
H        2.63746433       0.13457811       0.36077748
H       -0.24431453      -1.02327337      -1.40658021
H       -1.50594126      -1.94454775       0.54748998
H       -1.73457437      -0.30153713       1.18140069
H       -2.50553392      -0.78635845      -0.33764036
13
Frame=13 idx=004820 GeodesicLength=1.4951453745674799 rxn_smarts="[C:1]([O:2][C@@:3]([C:4]([H:11])([H:12])[H:13])([C:5]#[N:6])[H:10])([H:7])([H:8])[H:9]>>[C:1]1([H:7])([H:9])[O:2][C@:3]([C:4]([H:11])([H:12])[H:13])([H:10])[C:5][N:6]1[H:8]"
C        1.60977659       0.48250584       0.38866221
O        0.75839831      -0.60903458       0.35176053
C       -0.38739649      -0.42458527      -0.46427471
C       -1.62490947      -0.90900372       0.26445997
C       -0.54258500       1.01114329      -0.86805165
N        0.32826948       1.81625739      -0.59902240
H        1.48486810       1.03106657       1.32810156
H        1.75109573       1.58312482      -0.69281878
H        2.63586045       0.11220992       0.34028527
H       -0.21754522      -0.99751006      -1.38468306
H       -1.51051515      -1.96086036       0.52582736
H       -1.77779337      -0.33065876       1.17623599
H       -2.50752395      -0.80465508      -0.36648231
13
Frame=14 idx=004820 GeodesicLength=1.6096481493681463 rxn_smarts="[C:1]([O:2][C@@:3]([C:4]([H:11])([H:12])[H:13])([C:5]#[N:6])[H:10])([H:7])([H:8])[H:9]>>[C:1]1([H:7])([H:9])[O:2][C@:3]([C:4]([H:11])([H:12])[H:13])([H:10])[C:5][N:6]1[H:8]"
C        1.61845419       0.49315011       0.37324438
O        0.73466749      -0.57945175       0.41020412
C       -0.39148011      -0.41067383      -0.43821438
C       -1.63810358      -0.92334454       0.25381897
C       -0.55578363       1.02473110      -0.83208164
N        0.31787987       1.83171114      -0.57747517
H        1.53862934       1.07165589       1.29993883
H        1.77507575       1.53498954      -0.72709467
H        2.63134810       0.08739476       0.32086897
H       -0.19041949      -0.97045930      -1.36108257
H       -1.51176902      -1.97627026       0.50499125
H       -1.82126396      -0.35974528       1.16920790
H       -2.50723494      -0.82368758      -0.39632598
13
Frame=15 idx=004820 GeodesicLength=1.7240974524780566 rxn_smarts="[C:1]([O:2][C@@:3]([C:4]([H:11])([H:12])[H:13])([C:5]#[N:6])[H:10])([H:7])([H:8])[H:9]>>[C:1]1([H:7])([H:9])[O:2][C@:3]([C:4]([H:11])([H:12])[H:13])([H:10])[C:5][N:6]1[H:8]"
C        1.62557496       0.50246868       0.35760482
O        0.71058578      -0.54627983       0.46796272
C       -0.39566610      -0.39598211      -0.41213463
C       -1.64949434      -0.93732478       0.24297553
C       -0.56899500       1.03913719      -0.79611000
N        0.30680176       1.84803349      -0.55420771
H        1.59188886       1.10993054       1.26883809
H        1.79703999       1.48363659      -0.76152796
H        2.62373682       0.06072291       0.30363005
H       -0.16374164      -0.94226517      -1.33652154
H       -1.50938221      -1.99050513       0.48538725
H       -1.86383842      -0.38849393       1.16052212
H       -2.50451046      -0.84307845      -0.42641874
13
Frame=16 idx=004820 GeodesicLength=1.8385331694147136 rxn_smarts="[C:1]([O:2][C@@:3]([C:4]([H:11])([H:12])[H:13])([C:5]#[N:6])[H:10])([H:7])([H:8])[H:9]>>[C:1]1([H:7])([H:9])[O:2][C@:3]([C:4]([H:11])([H:12])[H:13])([H:10])[C:5][N:6]1[H:8]"
C        1.63093258       0.51054001       0.34188709
O        0.68668710      -0.51027642       0.52359334
C       -0.39992517      -0.38069313      -0.38666052
C       -1.65879209      -0.95073831       0.23217546
C       -0.58204827       1.05415147      -0.76088632
N        0.29493759       1.86516037      -0.52920483
H        1.64333378       1.14533301       1.23520029
H        1.81718259       1.42898005      -0.79563075
H        2.61314658       0.03306575       0.28955111
H       -0.13827844      -0.91316835      -1.31184873
H       -1.50334317      -2.00335522       0.46730313
H       -1.90441690      -0.41661935       1.15051171
H       -2.49941618      -0.86237989      -0.45599098
