14
Frame=0 idx=005604 GeodesicLength=0.0 rxn_smarts="[C:1](#[C:2][C:3]1([H:8])[C:4]([H:9])([H:10])[C:5]([H:11])([H:12])[C:6]1([H:13])[H:14])[H:7]>>[C-:1](=[C:2]([C+:3]1[C:4]([H:9])([H:10])[C:5]([H:11])([H:12])[C:6]1([H:13])[H:14])[H:8])[H:7]"
C        2.87294686      -0.66283897      -0.33664748
C        1.72969058      -0.15169164       0.02032304
C        0.36423038      -0.01276898       0.05947899
C       -0.56746295       1.17624156      -0.00925589
C       -1.67431979       0.16717301      -0.42334348
C       -0.76765417      -1.00354619       0.03949647
H        3.65975802      -0.74957388       0.41175386
H        1.58264443       0.45405990       1.01239662
H       -0.77955445       1.63137738       0.96060307
H       -0.29463352       1.95869584      -0.71771459
H       -2.63239994       0.26767272       0.08311739
H       -1.83684201       0.15644462      -1.49963252
H       -0.61880255      -1.85323457      -0.62965535
H       -1.03760085      -1.37801079       1.02907982
14
Frame=1 idx=005604 GeodesicLength=0.06142134765035252 rxn_smarts="[C:1](#[C:2][C:3]1([H:8])[C:4]([H:9])([H:10])[C:5]([H:11])([H:12])[C:6]1([H:13])[H:14])[H:7]>>[C-:1](=[C:2]([C+:3]1[C:4]([H:9])([H:10])[C:5]([H:11])([H:12])[C:6]1([H:13])[H:14])[H:8])[H:7]"
C        2.86103000      -0.69080673      -0.31511650
C        1.73373422      -0.13764727       0.02720292
C        0.36697209      -0.00354062       0.07154576
C       -0.56789927       1.18064830      -0.02100992
C       -1.67786921       0.16671430      -0.40959784
C       -0.75747360      -1.00191640       0.02704731
H        3.66342764      -0.75754204       0.41814293
H        1.56098851       0.45704814       1.03766963
H       -0.77157699       1.66523403       0.93613217
H       -0.29677996       1.94015166      -0.75477458
H       -2.61988567       0.26115617       0.12744386
H       -1.87539247       0.15898618      -1.48006879
H       -0.60059990      -1.82767985      -0.66964461
H       -1.01867539      -1.41080589       1.00502767
14
Frame=2 idx=005604 GeodesicLength=0.12287203933071048 rxn_smarts="[C:1](#[C:2][C:3]1([H:8])[C:4]([H:9])([H:10])[C:5]([H:11])([H:12])[C:6]1([H:13])[H:14])[H:7]>>[C-:1](=[C:2]([C+:3]1[C:4]([H:9])([H:10])[C:5]([H:11])([H:12])[C:6]1([H:13])[H:14])[H:8])[H:7]"
C        2.84834076      -0.71654560      -0.29261211
C        1.73746315      -0.12527494       0.03737530
C        0.36931958       0.00492255       0.08463607
C       -0.56774293       1.18456298      -0.03358174
C       -1.68134049       0.16639246      -0.39530291
C       -0.74774346      -1.00033780       0.01400023
H        3.66850685      -0.76420218       0.42179097
H        1.53772975       0.45960141       1.06481206
H       -0.76299753       1.69980996       0.90905274
H       -0.29764859       1.91908869      -0.79283789
H       -2.60561607       0.25532878       0.17283131
H       -1.91493909       0.16143079      -1.45854618
H       -0.58309428      -1.80048717      -0.71026323
H       -1.00023765      -1.44428994       0.97864538
14
Frame=3 idx=005604 GeodesicLength=0.1842359479232672 rxn_smarts="[C:1](#[C:2][C:3]1([H:8])[C:4]([H:9])([H:10])[C:5]([H:11])([H:12])[C:6]1([H:13])[H:14])[H:7]>>[C-:1](=[C:2]([C+:3]1[C:4]([H:9])([H:10])[C:5]([H:11])([H:12])[C:6]1([H:13])[H:14])[H:8])[H:7]"
C        2.83534683      -0.73894601      -0.26982954
C        1.74084413      -0.11391255       0.05057455
C        0.37125983       0.01292548       0.09870379
C       -0.56714916       1.18802421      -0.04696367
C       -1.68465477       0.16606286      -0.38040585
C       -0.73818282      -0.99872028       0.00043301
H        3.67380073      -0.77179254       0.42338566
H        1.51277278       0.46214001       1.09364405
H       -0.75393732       1.73494295       0.87924955
H       -0.29761664       1.89553036      -0.83176845
H       -2.58946427       0.24989642       0.21919047
H       -1.95523858       0.16361189      -1.43490162
H       -0.56593258      -1.77150867      -0.75126741
H       -0.98184814      -1.47825413       0.94995546
14
Frame=4 idx=005604 GeodesicLength=0.24553685492377994 rxn_smarts="[C:1](#[C:2][C:3]1([H:8])[C:4]([H:9])([H:10])[C:5]([H:11])([H:12])[C:6]1([H:13])[H:14])[H:7]>>[C-:1](=[C:2]([C+:3]1[C:4]([H:9])([H:10])[C:5]([H:11])([H:12])[C:6]1([H:13])[H:14])[H:8])[H:7]"
C        2.82181381      -0.75969429      -0.24591799
C        1.74374055      -0.10379448       0.06641475
C        0.37271796       0.02035862       0.11351684
C       -0.56604974       1.19095654      -0.06115321
C       -1.68779234       0.16583286      -0.36478206
C       -0.72889616      -0.99703223      -0.01385750
H        3.67965439      -0.77850092       0.42313973
H        1.48608336       0.46471044       1.12362695
H       -0.74421088       1.77030403       0.84666233
H       -0.29667449       1.86940842      -0.87136611
H       -2.57112772       0.24489914       0.26675720
H       -1.99639375       0.16579114      -1.40878354
H       -0.54927682      -1.74052988      -0.79282799
H       -0.96358816      -1.51270939       0.91857059
14
Frame=5 idx=005604 GeodesicLength=0.3069060876852948 rxn_smarts="[C:1](#[C:2][C:3]1([H:8])[C:4]([H:9])([H:10])[C:5]([H:11])([H:12])[C:6]1([H:13])[H:14])[H:7]>>[C-:1](=[C:2]([C+:3]1[C:4]([H:9])([H:10])[C:5]([H:11])([H:12])[C:6]1([H:13])[H:14])[H:8])[H:7]"
C        2.80831914      -0.77819583      -0.22154616
C        1.74633050      -0.09447741       0.08462691
C        0.37373809       0.02743298       0.12897436
C       -0.56467913       1.19341760      -0.07604418
C       -1.69083789       0.16562206      -0.34855278
C       -0.71975331      -0.99518694      -0.02873618
H        3.68563540      -0.78587673       0.42150184
H        1.45776275       0.46753871       1.15471887
H       -0.73409070       1.80567461       0.81149281
H       -0.29522928       1.84086535      -0.91135588
H       -2.55082505       0.24022199       0.31515740
H       -2.03818092       0.16780034      -1.38036926
H       -0.53297593      -1.70761224      -0.83461581
H       -0.94521366      -1.54722448       0.88474808
14
Frame=6 idx=005604 GeodesicLength=0.3681634479690545 rxn_smarts="[C:1](#[C:2][C:3]1([H:8])[C:4]([H:9])([H:10])[C:5]([H:11])([H:12])[C:6]1([H:13])[H:14])[H:7]>>[C-:1](=[C:2]([C+:3]1[C:4]([H:9])([H:10])[C:5]([H:11])([H:12])[C:6]1([H:13])[H:14])[H:8])[H:7]"
C        2.79488656      -0.79341327      -0.19787858
C        1.74865783      -0.08472068       0.10413976
C        0.37447623       0.03478214       0.14448578
C       -0.56334887       1.19561370      -0.09145474
C       -1.69352498       0.16514806      -0.33169191
C       -0.71013427      -0.99301779      -0.04407712
H        3.68940003      -0.79752533       0.42051754
H        1.42799919       0.47158478       1.18585512
H       -0.72387223       1.84064037       0.77406121
H       -0.29422488       1.81060417      -0.95114653
H       -2.52827431       0.23513805       0.36411074
H       -2.08005237       0.16923438      -1.34949497
H       -0.51645995      -1.67273271      -0.87612567
H       -0.92552798      -1.58133586       0.84869937
14
Frame=7 idx=005604 GeodesicLength=0.4295957267299631 rxn_smarts="[C:1](#[C:2][C:3]1([H:8])[C:4]([H:9])([H:10])[C:5]([H:11])([H:12])[C:6]1([H:13])[H:14])[H:7]>>[C-:1](=[C:2]([C+:3]1[C:4]([H:9])([H:10])[C:5]([H:11])([H:12])[C:6]1([H:13])[H:14])[H:8])[H:7]"
C        2.78096464      -0.80783334      -0.17357692
C        1.75029977      -0.07629122       0.12582547
C        0.37459041       0.04148216       0.16060090
C       -0.56163250       1.19709955      -0.10713001
C       -1.69579271       0.16479700      -0.31472656
C       -0.70099232      -0.99061729      -0.05957576
H        3.69397571      -0.80707179       0.41661994
H        1.39632364       0.47527921       1.21789098
H       -0.71332858       1.87459179       0.73467866
H       -0.29230481       1.77806456      -0.99017289
H       -2.50381530       0.23074398       0.41244444
H       -2.12106684       0.17061613      -1.31695739
H       -0.50074820      -1.63634610      -0.91674264
H       -0.90647291      -1.61451465       0.81082178
14
Frame=8 idx=005604 GeodesicLength=0.490947850816009 rxn_smarts="[C:1](#[C:2][C:3]1([H:8])[C:4]([H:9])([H:10])[C:5]([H:11])([H:12])[C:6]1([H:13])[H:14])[H:7]>>[C-:1](=[C:2]([C+:3]1[C:4]([H:9])([H:10])[C:5]([H:11])([H:12])[C:6]1([H:13])[H:14])[H:8])[H:7]"
C        2.76690033      -0.82096729      -0.14967012
C        1.75156565      -0.06841574       0.14870003
C        0.37428976       0.04796834       0.17692428
C       -0.55987584       1.19817125      -0.12257873
C       -1.69762394       0.16440085      -0.29818355
C       -0.69208458      -0.98796545      -0.07467832
H        3.69827625      -0.81692167       0.41047458
H        1.36339337       0.47927163       1.24996453
H       -0.70302634       1.90697194       0.69440594
H       -0.29014419       1.74455339      -1.02742062
H       -2.47819853       0.22653925       0.45885173
H       -2.16033806       0.17166698      -1.28371599
H       -0.48551333      -1.59916836      -0.95531785
H       -0.88762054      -1.64610514       0.77224409
14
Frame=9 idx=005604 GeodesicLength=0.5523630842983068 rxn_smarts="[C:1](#[C:2][C:3]1([H:8])[C:4]([H:9])([H:10])[C:5]([H:11])([H:12])[C:6]1([H:13])[H:14])[H:7]>>[C-:1](=[C:2]([C+:3]1[C:4]([H:9])([H:10])[C:5]([H:11])([H:12])[C:6]1([H:13])[H:14])[H:8])[H:7]"
C        2.75241353      -0.83296712      -0.12656907
C        1.75233144      -0.06097494       0.17238033
C        0.37357983       0.05433914       0.19336163
C       -0.55812838       1.19883020      -0.13744608
C       -1.69883250       0.16392421      -0.28241675
C       -0.68332235      -0.98498561      -0.08902497
H        3.70199012      -0.82722461       0.40168857
H        1.32925513       0.48364276       1.28177756
H       -0.69318304       1.93737247       0.65400730
H       -0.28777391       1.71050339      -1.06223971
H       -2.45181177       0.22252249       0.50247880
H       -2.19699313       0.17221924      -1.25052881
H       -0.47058136      -1.56170403      -0.99117942
H       -0.86894361      -1.67549759       0.73371061
14
Frame=10 idx=005604 GeodesicLength=0.6138560280377842 rxn_smarts="[C:1](#[C:2][C:3]1([H:8])[C:4]([H:9])([H:10])[C:5]([H:11])([H:12])[C:6]1([H:13])[H:14])[H:7]>>[C-:1](=[C:2]([C+:3]1[C:4]([H:9])([H:10])[C:5]([H:11])([H:12])[C:6]1([H:13])[H:14])[H:8])[H:7]"
C        2.73803028      -0.84275174      -0.10536779
C        1.75277905      -0.05355669       0.19656664
C        0.37260613       0.06074896       0.20977583
C       -0.55647942       1.19915272      -0.15169831
C       -1.69944138       0.16325822      -0.26747413
C       -0.67453365      -0.98172701      -0.10246108
H        3.70413224      -0.83938846       0.39119561
H        1.29405845       0.48839425       1.31319145
H       -0.68393172       1.96575032       0.61371280
H       -0.28521601       1.67629489      -1.09458205
H       -2.42492545       0.21861054       0.54326541
H       -2.23100701       0.17215377      -1.21765525
H       -0.45583377      -1.52426944      -1.02415963
H       -0.85023776      -1.70267034       0.69569049
14
Frame=11 idx=005604 GeodesicLength=0.6753221278912624 rxn_smarts="[C:1](#[C:2][C:3]1([H:8])[C:4]([H:9])([H:10])[C:5]([H:11])([H:12])[C:6]1([H:13])[H:14])[H:7]>>[C-:1](=[C:2]([C+:3]1[C:4]([H:9])([H:10])[C:5]([H:11])([H:12])[C:6]1([H:13])[H:14])[H:8])[H:7]"
C        2.72335767      -0.85183497      -0.08527829
C        1.75282327      -0.04680504       0.22129647
C        0.37129978       0.06694938       0.22634227
C       -0.55477948       1.19916605      -0.16496826
C       -1.69951641       0.16258001      -0.25391028
C       -0.66607574      -0.97829748      -0.11455081
H        3.70604521      -0.85100203       0.37699734
H        1.25798248       0.49316107       1.34424027
H       -0.67522278       1.99183309       0.57436448
H       -0.28207274       1.64248813      -1.12390916
H       -2.39847785       0.21505015       0.58014787
H       -2.26173336       0.17169769      -1.18630930
H       -0.44141815      -1.48763366      -1.05357772
H       -0.83221191      -1.72735239       0.65911511
14
Frame=12 idx=005604 GeodesicLength=0.736947310248151 rxn_smarts="[C:1](#[C:2][C:3]1([H:8])[C:4]([H:9])([H:10])[C:5]([H:11])([H:12])[C:6]1([H:13])[H:14])[H:7]>>[C-:1](=[C:2]([C+:3]1[C:4]([H:9])([H:10])[C:5]([H:11])([H:12])[C:6]1([H:13])[H:14])[H:8])[H:7]"
C        2.70866496      -0.85925937      -0.06711770
C        1.75249192      -0.04030930       0.24639992
C        0.36975203       0.07311089       0.24294086
C       -0.55306852       1.19889689      -0.17736992
C       -1.69900582       0.16178872      -0.24148147
C       -0.65765693      -0.97471061      -0.12544604
H        3.70660373      -0.86343281       0.36032996
H        1.22092543       0.49807897       1.37483617
H       -0.66701167       2.01588414       0.53584573
H       -0.27841642       1.60901679      -1.15046808
H       -2.37228904       0.21182027       0.61370275
H       -2.28949349       0.17068899      -1.15620913
H       -0.42709103      -1.45184678      -1.07981732
H       -0.81440514      -1.74972681       0.62385428
14
Frame=13 idx=005604 GeodesicLength=0.7985880390811401 rxn_smarts="[C:1](#[C:2][C:3]1([H:8])[C:4]([H:9])([H:10])[C:5]([H:11])([H:12])[C:6]1([H:13])[H:14])[H:7]>>[C-:1](=[C:2]([C+:3]1[C:4]([H:9])([H:10])[C:5]([H:11])([H:12])[C:6]1([H:13])[H:14])[H:8])[H:7]"
C        2.69393365      -0.86588121      -0.05014371
C        1.75184184      -0.03451281       0.27212425
C        0.36794728       0.07904072       0.25974820
C       -0.55118779       1.19838985      -0.18886156
C       -1.69810075       0.16101784      -0.23039126
C       -0.64952386      -0.97110851      -0.13499291
H        3.70669227      -0.87507864       0.33996272
H        1.18296074       0.50281783       1.40518781
H       -0.65905320       2.03796625       0.49837095
H       -0.27391829       1.57615085      -1.17431747
H       -2.34699038       0.20905829       0.64370360
H       -2.31438709       0.16940989      -1.12794722
H       -0.41295964      -1.41725652      -1.10278246
H       -0.79725479      -1.77001384       0.59033906
14
Frame=14 idx=005604 GeodesicLength=0.8603178141748744 rxn_smarts="[C:1](#[C:2][C:3]1([H:8])[C:4]([H:9])([H:10])[C:5]([H:11])([H:12])[C:6]1([H:13])[H:14])[H:7]>>[C-:1](=[C:2]([C+:3]1[C:4]([H:9])([H:10])[C:5]([H:11])([H:12])[C:6]1([H:13])[H:14])[H:8])[H:7]"
C        2.67928732      -0.87136620      -0.03465692
C        1.75090590      -0.02925058       0.29835562
C        0.36594133       0.08482077       0.27670809
C       -0.54913173       1.19767812      -0.19952448
C       -1.69681342       0.16023659      -0.22047966
C       -0.64153547      -0.96750967      -0.14330412
H        3.70578698      -0.88647446       0.31659392
H        1.14407263       0.50745641       1.43520387
H       -0.65124152       2.05827383       0.46188507
H       -0.26862987       1.54388411      -1.19568113
H       -2.32254185       0.20672272       0.67057751
H       -2.33671966       0.16783172      -1.10137001
H       -0.39888387      -1.38387870      -1.12278414
H       -0.78049678      -1.78842467       0.55847637
14
Frame=15 idx=005604 GeodesicLength=0.922145059053045 rxn_smarts="[C:1](#[C:2][C:3]1([H:8])[C:4]([H:9])([H:10])[C:5]([H:11])([H:12])[C:6]1([H:13])[H:14])[H:7]>>[C-:1](=[C:2]([C+:3]1[C:4]([H:9])([H:10])[C:5]([H:11])([H:12])[C:6]1([H:13])[H:14])[H:8])[H:7]"
C        2.66479089      -0.87570967      -0.02064009
C        1.74970716      -0.02456823       0.32515442
C        0.36374628       0.09043018       0.29387228
C       -0.54684712       1.19678270      -0.20942266
C       -1.69520865       0.15946554      -0.21168586
C       -0.63369306      -0.96397021      -0.15042037
H        3.70391679      -0.89745756       0.29029041
H        1.10423163       0.51192466       1.46492737
H       -0.64341702       2.07696979       0.42633295
H       -0.26246410       1.51222586      -1.21474733
H       -2.29904897       0.20483853       0.69456590
H       -2.35675030       0.16603499      -1.07648744
H       -0.38481998      -1.35177972      -1.14001407
H       -0.76414357      -1.80518685       0.52827450
14
Frame=16 idx=005604 GeodesicLength=0.984110848679198 rxn_smarts="[C:1](#[C:2][C:3]1([H:8])[C:4]([H:9])([H:10])[C:5]([H:11])([H:12])[C:6]1([H:13])[H:14])[H:7]>>[C-:1](=[C:2]([C+:3]1[C:4]([H:9])([H:10])[C:5]([H:11])([H:12])[C:6]1([H:13])[H:14])[H:8])[H:7]"
C        2.64985911      -0.88050373      -0.00580456
C        1.74779574      -0.02158475       0.35377503
C        0.36109394       0.09533750       0.31191103
C       -0.54376739       1.19541352      -0.21850851
C       -1.69314760       0.15897879      -0.20437015
C       -0.62638127      -0.96062851      -0.15607150
H        3.70180474      -0.90396195       0.25661724
H        1.06270575       0.51559248       1.49520792
H       -0.63491934       2.09390647       0.39167073
H       -0.25422800       1.48060990      -1.23144910
H       -2.27688445       0.20405681       0.71513346
H       -2.37393410       0.16448045      -1.05409694
H       -0.37074308      -1.32137728      -1.15414696
H       -0.74925404      -1.82031970       0.50013231
