12
Frame=0 idx=011848 GeodesicLength=0.0 rxn_smarts="[C:1]([N:2]([C:3]([C:4]#[N:5])([C:6]#[N:7])[H:12])[H:11])([H:8])([H:9])[H:10]>>[C:1](=[N:2][H:11])([H:8])[H:10].[C:3]([C:4]#[N:5])(=[C:6]=[N:7][H:9])[H:12]"
C       -1.62471078       0.00193999       0.16109721
N       -0.68994583      -0.94230298       0.01802052
C        1.27808458      -0.20184164       0.34414223
C        1.95028622      -0.59104640      -0.85700937
N        2.44063244      -0.94716129      -1.83258351
C        0.88420654       1.08933089       0.51615914
N        0.05666408       1.92900492       0.62091516
H       -2.16617598       0.35504115      -0.71819729
H       -0.97224733       1.18794328       0.38923249
H       -2.18500984      -0.02445936       1.09534188
H       -0.47643565      -1.07705270      -0.96845604
H        1.50465151      -0.77939581       1.23133753
12
Frame=1 idx=011848 GeodesicLength=0.11814050608947095 rxn_smarts="[C:1]([N:2]([C:3]([C:4]#[N:5])([C:6]#[N:7])[H:12])[H:11])([H:8])([H:9])[H:10]>>[C:1](=[N:2][H:11])([H:8])[H:10].[C:3]([C:4]#[N:5])(=[C:6]=[N:7][H:9])[H:12]"
C       -1.63025713      -0.00481868       0.16337131
N       -0.68556801      -0.93790761      -0.00011465
C        1.27472836      -0.20237334       0.34243940
C        1.96185298      -0.59405437      -0.84981318
N        2.45493338      -0.95033407      -1.82387674
C        0.90617029       1.09901381       0.51683537
N        0.08669659       1.94639247       0.62447523
H       -2.21206530       0.31311032      -0.70375389
H       -0.97660917       1.21890354       0.38121437
H       -2.17377517      -0.03393794       1.10787109
H       -0.47961708      -1.06475097      -0.98901684
H        1.47351026      -0.78924316       1.23036854
12
Frame=2 idx=011848 GeodesicLength=0.23616465527907082 rxn_smarts="[C:1]([N:2]([C:3]([C:4]#[N:5])([C:6]#[N:7])[H:12])[H:11])([H:8])([H:9])[H:10]>>[C:1](=[N:2][H:11])([H:8])[H:10].[C:3]([C:4]#[N:5])(=[C:6]=[N:7][H:9])[H:12]"
C       -1.63600057      -0.01148487       0.16470667
N       -0.68145270      -0.93298181      -0.01862873
C        1.27109476      -0.20270550       0.34074344
C        1.97317817      -0.59712261      -0.84226847
N        2.46811566      -0.95372135      -1.81520526
C        0.92877040       1.10848122       0.51841138
N        0.11764831       1.96364729       0.62933495
H       -2.25768216       0.26796550      -0.68818375
H       -0.98073105       1.25109844       0.37274534
H       -2.16236134      -0.04284884       1.11929642
H       -0.48278145      -1.05200859      -1.00976505
H        1.44220198      -0.79831889       1.22881306
12
Frame=3 idx=011848 GeodesicLength=0.3540699666396078 rxn_smarts="[C:1]([N:2]([C:3]([C:4]#[N:5])([C:6]#[N:7])[H:12])[H:11])([H:8])([H:9])[H:10]>>[C:1](=[N:2][H:11])([H:8])[H:10].[C:3]([C:4]#[N:5])(=[C:6]=[N:7][H:9])[H:12]"
C       -1.64205079      -0.01805193       0.16501698
N       -0.67761975      -0.92746555      -0.03753554
C        1.26715288      -0.20280549       0.33899652
C        1.98422443      -0.60032056      -0.83439496
N        2.48025885      -0.95734624      -1.80655410
C        0.95202474       1.11772756       0.52081976
N        0.14960162       1.98081867       0.63534993
H       -2.30281211       0.21944360      -0.67139031
H       -0.98460351       1.28458508       0.36424212
H       -2.15089856      -0.05120588       1.12951311
H       -0.48596134      -1.03881027      -1.03072243
H        1.41068354      -0.80656898       1.22665893
12
Frame=4 idx=011848 GeodesicLength=0.47193022189752304 rxn_smarts="[C:1]([N:2]([C:3]([C:4]#[N:5])([C:6]#[N:7])[H:12])[H:11])([H:8])([H:9])[H:10]>>[C:1](=[N:2][H:11])([H:8])[H:10].[C:3]([C:4]#[N:5])(=[C:6]=[N:7][H:9])[H:12]"
C       -1.64854634      -0.02452609       0.16421282
N       -0.67408502      -0.92130238      -0.05689342
C        1.26287151      -0.20264927       0.33714994
C        1.99496797      -0.60375448      -0.82622318
N        2.49148330      -0.96128946      -1.79792065
C        0.97593497       1.12676729       0.52399631
N        0.18261671       1.99801180       0.64240327
H       -2.34724597       0.16734553      -0.65328172
H       -0.98825267       1.31947344       0.35612872
H       -2.13946642      -0.05901634       1.13847373
H       -0.48919278      -1.02511196      -1.05198129
H        1.37891475      -0.81394810       1.22393548
12
Frame=5 idx=011848 GeodesicLength=0.5895489611110153 rxn_smarts="[C:1]([N:2]([C:3]([C:4]#[N:5])([C:6]#[N:7])[H:12])[H:11])([H:8])([H:9])[H:10]>>[C:1](=[N:2][H:11])([H:8])[H:10].[C:3]([C:4]#[N:5])(=[C:6]=[N:7][H:9])[H:12]"
C       -1.65566616      -0.03096200       0.16237165
N       -0.67103607      -0.91433936      -0.07703191
C        1.25805291      -0.20226591       0.33500163
C        2.00525543      -0.60755905      -0.81774363
N        2.50286441      -0.96545405      -1.78867038
C        1.00050301       1.13542916       0.52773253
N        0.21691370       2.01512516       0.64991571
H       -2.39119218       0.11141668      -0.63308164
H       -0.99165783       1.35578981       0.34855726
H       -2.12776548      -0.06635153       1.14641932
H       -0.49272311      -1.01036871      -1.07386782
H        1.34645136      -0.82046020       1.22039727
12
Frame=6 idx=011848 GeodesicLength=0.7071034702240591 rxn_smarts="[C:1]([N:2]([C:3]([C:4]#[N:5])([C:6]#[N:7])[H:12])[H:11])([H:8])([H:9])[H:10]>>[C:1](=[N:2][H:11])([H:8])[H:10].[C:3]([C:4]#[N:5])(=[C:6]=[N:7][H:9])[H:12]"
C       -1.66349285      -0.03737501       0.15917442
N       -0.66831383      -0.90662242      -0.09761421
C        1.25282040      -0.20155016       0.33268301
C        2.01512982      -0.61164572      -0.80898757
N        2.51318427      -0.96998408      -1.77948205
C        1.02572355       1.14382597       0.53224747
N        0.25244769       2.03231601       0.65841144
H       -2.43372600       0.05146086      -0.61137681
H       -0.99483641       1.39375690       0.34187684
H       -2.11629799      -0.07297729       1.15285593
H       -0.49632970      -0.99519619      -1.09605112
H        1.31369103      -0.82600886       1.21626265
12
Frame=7 idx=011848 GeodesicLength=0.8244892611611776 rxn_smarts="[C:1]([N:2]([C:3]([C:4]#[N:5])([C:6]#[N:7])[H:12])[H:11])([H:8])([H:9])[H:10]>>[C:1](=[N:2][H:11])([H:8])[H:10].[C:3]([C:4]#[N:5])(=[C:6]=[N:7][H:9])[H:12]"
C       -1.67218388      -0.04386623       0.15456601
N       -0.66599826      -0.89805778      -0.11877323
C        1.24706064      -0.20047520       0.33010945
C        2.02449301      -0.61606757      -0.79992383
N        2.52267127      -0.97485080      -1.77014678
C        1.05158525       1.15186564       0.53746795
N        0.28935140       2.04953026       0.66772565
H       -2.47454895      -0.01276047      -0.58780324
H       -0.99775671       1.43345618       0.33619713
H       -2.10498164      -0.07884168       1.15778162
H       -0.50010699      -0.97939149      -1.11864529
H        1.28041486      -0.83054086       1.21144455
12
Frame=8 idx=011848 GeodesicLength=0.9418526714030133 rxn_smarts="[C:1]([N:2]([C:3]([C:4]#[N:5])([C:6]#[N:7])[H:12])[H:11])([H:8])([H:9])[H:10]>>[C:1](=[N:2][H:11])([H:8])[H:10].[C:3]([C:4]#[N:5])(=[C:6]=[N:7][H:9])[H:12]"
C       -1.68198475      -0.05055942       0.14852303
N       -0.66414089      -0.88859759      -0.14070053
C        1.24072514      -0.19904085       0.32722571
C        2.03335474      -0.62097880      -0.79059888
N        2.53171156      -0.98021112      -1.76058878
C        1.07802959       1.15951293       0.54337900
N        0.32759973       2.06683480       0.67778436
H       -2.51337951      -0.08139305      -0.56203033
H       -1.00055071       1.47507717       0.33163448
H       -2.09376032      -0.08384513       1.16132598
H       -0.50414171      -0.96275899      -1.14192831
H        1.24653714      -0.83403995       1.20597426
12
Frame=9 idx=011848 GeodesicLength=1.058973474220447 rxn_smarts="[C:1]([N:2]([C:3]([C:4]#[N:5])([C:6]#[N:7])[H:12])[H:11])([H:8])([H:9])[H:10]>>[C:1](=[N:2][H:11])([H:8])[H:10].[C:3]([C:4]#[N:5])(=[C:6]=[N:7][H:9])[H:12]"
C       -1.69298109      -0.05778477       0.14125940
N       -0.66299071      -0.87809813      -0.16404081
C        1.23338493      -0.19724792       0.32372807
C        2.04131191      -0.62649955      -0.78089434
N        2.54168591      -0.98604792      -1.74964464
C        1.10492566       1.16658107       0.54965509
N        0.36743434       2.08407822       0.68786941
H       -2.55008094      -0.15456108      -0.53274840
H       -1.00316952       1.51862430       0.32810334
H       -2.08187652      -0.08828919       1.16382879
H       -0.50880354      -0.94426035      -1.16651516
H        1.21115959      -0.83649468       1.19939925
12
Frame=10 idx=011848 GeodesicLength=1.1760191836282583 rxn_smarts="[C:1]([N:2]([C:3]([C:4]#[N:5])([C:6]#[N:7])[H:12])[H:11])([H:8])([H:9])[H:10]>>[C:1](=[N:2][H:11])([H:8])[H:10].[C:3]([C:4]#[N:5])(=[C:6]=[N:7][H:9])[H:12]"
C       -1.70533309      -0.06567396       0.13243469
N       -0.66228184      -0.86679690      -0.18785377
C        1.22540797      -0.19495066       0.31988874
C        2.04852705      -0.63238680      -0.77101088
N        2.55045254      -0.99237310      -1.73878145
C        1.13228204       1.17317206       0.55675249
N        0.40862305       2.10129280       0.69906803
H       -2.58303880      -0.23187523      -0.50136751
H       -1.00565754       1.56435677       0.32563994
H       -2.07061320      -0.09154439       1.16454807
H       -0.51372590      -0.92546169      -1.19147009
H        1.17535772      -0.83775890       1.19215174
12
Frame=11 idx=011848 GeodesicLength=1.2928382128270115 rxn_smarts="[C:1]([N:2]([C:3]([C:4]#[N:5])([C:6]#[N:7])[H:12])[H:11])([H:8])([H:9])[H:10]>>[C:1](=[N:2][H:11])([H:8])[H:10].[C:3]([C:4]#[N:5])(=[C:6]=[N:7][H:9])[H:12]"
C       -1.71913657      -0.07459859       0.12219100
N       -0.66211888      -0.85460085      -0.21246738
C        1.21657065      -0.19209998       0.31555950
C        2.05481485      -0.63871530      -0.76084906
N        2.55847414      -0.99924953      -1.72749382
C        1.16000289       1.17915864       0.56449512
N        0.45127151       2.11833541       0.71107282
H       -2.61174765      -0.31327883      -0.46725740
H       -1.00798854       1.61231354       0.32419482
H       -2.05972189      -0.09375098       1.16360600
H       -0.51906375      -0.90577793      -1.21709641
H        1.13864323      -0.83773559       1.18404481
12
Frame=12 idx=011848 GeodesicLength=1.4095192329934556 rxn_smarts="[C:1]([N:2]([C:3]([C:4]#[N:5])([C:6]#[N:7])[H:12])[H:11])([H:8])([H:9])[H:10]>>[C:1](=[N:2][H:11])([H:8])[H:10].[C:3]([C:4]#[N:5])(=[C:6]=[N:7][H:9])[H:12]"
C       -1.73456700      -0.08491596       0.11061256
N       -0.66257543      -0.84151031      -0.23793613
C        1.20680927      -0.18864774       0.31068422
C        2.06008716      -0.64551075      -0.75045302
N        2.56587472      -1.00671992      -1.71573799
C        1.18804271       1.18444924       0.57292145
N        0.49541957       2.13511102       0.72394233
H       -2.63557063      -0.39866115      -0.43022321
H       -1.01016561       1.66266875       0.32362108
H       -2.04936772      -0.09478800       1.16100306
H       -0.52492948      -0.88511464      -1.24348474
H        1.10094245      -0.83636054       1.17505039
12
Frame=13 idx=011848 GeodesicLength=1.5260783969390397 rxn_smarts="[C:1]([N:2]([C:3]([C:4]#[N:5])([C:6]#[N:7])[H:12])[H:11])([H:8])([H:9])[H:10]>>[C:1](=[N:2][H:11])([H:8])[H:10].[C:3]([C:4]#[N:5])(=[C:6]=[N:7][H:9])[H:12]"
C       -1.75158554      -0.09715504       0.09796715
N       -0.66367626      -0.82753351      -0.26470732
C        1.19592009      -0.18454914       0.30505591
C        2.06409534      -0.65302557      -0.73977014
N        2.57329124      -1.01518099      -1.70287199
C        1.21617224       1.18904738       0.58174301
N        0.54096312       2.15166648       0.73745173
H       -2.65387448      -0.48757822      -0.38971588
H       -1.01240171       1.71567474       0.32411104
H       -2.03923663      -0.09502769       1.15690742
H       -0.53154430      -0.86280110      -1.27111244
H        1.06187690      -0.83353734       1.16494151
12
Frame=14 idx=011848 GeodesicLength=1.642552194602761 rxn_smarts="[C:1]([N:2]([C:3]([C:4]#[N:5])([C:6]#[N:7])[H:12])[H:11])([H:8])([H:9])[H:10]>>[C:1](=[N:2][H:11])([H:8])[H:10].[C:3]([C:4]#[N:5])(=[C:6]=[N:7][H:9])[H:12]"
C       -1.77032685      -0.11167489       0.08416032
N       -0.66542365      -0.81277030      -0.29216240
C        1.18404051      -0.17967113       0.29880434
C        2.06680210      -0.66093425      -0.72894539
N        2.57956284      -1.02437884      -1.68966496
C        1.24450630       1.19284843       0.59132603
N        0.58807091       2.16776009       0.75225572
H       -2.66558769      -0.57994536      -0.34636257
H       -1.01437627       1.77159885       0.32520419
H       -2.03036026      -0.09393635       1.15082905
H       -0.53882317      -0.83971436      -1.29934428
H        1.02191525      -0.82918189       1.15389995
12
Frame=15 idx=011848 GeodesicLength=1.758940360025561 rxn_smarts="[C:1]([N:2]([C:3]([C:4]#[N:5])([C:6]#[N:7])[H:12])[H:11])([H:8])([H:9])[H:10]>>[C:1](=[N:2][H:11])([H:8])[H:10].[C:3]([C:4]#[N:5])(=[C:6]=[N:7][H:9])[H:12]"
C       -1.79080005      -0.12902238       0.06930034
N       -0.66786798      -0.79714962      -0.32051987
C        1.17104521      -0.17393140       0.29181396
C        2.06802024      -0.66934523      -0.71794572
N        2.58478964      -1.03456307      -1.67584128
C        1.27294363       1.19578874       0.60156440
N        0.63679065       2.18329748       0.76843077
H       -2.66990004      -0.67570911      -0.29975464
H       -1.01605344       1.83079443       0.32691785
H       -2.02287351      -0.09154678       1.14262871
H       -0.54691395      -0.81543707      -1.32839590
H        0.98081961      -0.82317600       1.14180138
12
Frame=16 idx=011848 GeodesicLength=1.8752701390640023 rxn_smarts="[C:1]([N:2]([C:3]([C:4]#[N:5])([C:6]#[N:7])[H:12])[H:11])([H:8])([H:9])[H:10]>>[C:1](=[N:2][H:11])([H:8])[H:10].[C:3]([C:4]#[N:5])(=[C:6]=[N:7][H:9])[H:12]"
C       -1.81304325      -0.14981458       0.05341655
N       -0.67107583      -0.78058486      -0.34987487
C        1.15685398      -0.16722577       0.28401355
C        2.06757538      -0.67829473      -0.70677214
N        2.58881430      -1.04593488      -1.66131216
C        1.30143949       1.19777557       0.61245126
N        0.68723335       2.19812008       0.78618680
H       -2.66578278      -0.77489991      -0.24952677
H       -1.01730105       1.89367392       0.32922115
H       -2.01722661      -0.08773016       1.13197500
H       -0.55594568      -0.78970735      -1.35835525
H        0.93845868      -0.81537734       1.12857688
