12
Frame=0 idx=004622 GeodesicLength=0.0 rxn_smarts="[C:1]([C:2]#[C:3][C:4]([C:5]#[C:6][H:12])([H:10])[H:11])([H:7])([H:8])[H:9]>>[C:1]([C:2]#[C:3][C:4]([C:6](=[C:5])[H:12])([H:10])[H:11])([H:7])([H:8])[H:9]"
C       -2.46561729       0.80472455       0.23985359
C       -1.15943341       0.19411465       0.03090714
C       -0.08470367      -0.30091319      -0.15631297
C        1.21704347      -0.90157846      -0.36666319
C        2.25961154       0.29372543      -1.06431092
C        2.73973405       0.09290000       0.07175699
H       -2.35927393       1.79410849       0.68729271
H       -2.99447683       0.91485664      -0.70780039
H       -3.07898840       0.19467728       0.90456271
H        1.23071071      -1.60615635      -1.19302921
H        1.49537905      -1.48891144       0.51888003
H        3.20001476       0.00845236       1.03486346
12
Frame=1 idx=004622 GeodesicLength=0.03819628174755447 rxn_smarts="[C:1]([C:2]#[C:3][C:4]([C:5]#[C:6][H:12])([H:10])[H:11])([H:7])([H:8])[H:9]>>[C:1]([C:2]#[C:3][C:4]([C:6](=[C:5])[H:12])([H:10])[H:11])([H:7])([H:8])[H:9]"
C       -2.46242539       0.80668133       0.24101433
C       -1.15603722       0.19429041       0.03907927
C       -0.08134117      -0.30313851      -0.14177743
C        1.21488331      -0.91754992      -0.35411904
C        2.27200534       0.24620473      -1.10070887
C        2.74723442       0.08945142       0.04280676
H       -2.36643005       1.74675072       0.78643992
H       -2.94121676       1.01700974      -0.71633815
H       -3.11837466       0.14813430       0.81228779
H        1.20788143      -1.64125422      -1.16460935
H        1.49501131      -1.49394769       0.53775086
H        3.18880946       0.10736770       1.01817391
12
Frame=2 idx=004622 GeodesicLength=0.07600995238388297 rxn_smarts="[C:1]([C:2]#[C:3][C:4]([C:5]#[C:6][H:12])([H:10])[H:11])([H:7])([H:8])[H:9]>>[C:1]([C:2]#[C:3][C:4]([C:6](=[C:5])[H:12])([H:10])[H:11])([H:7])([H:8])[H:9]"
C       -2.45914725       0.80867916       0.24157411
C       -1.15314704       0.19305949       0.04746725
C       -0.07765606      -0.30562714      -0.12499848
C        1.21308268      -0.93327301      -0.33966344
C        2.28348646       0.19780058      -1.13418893
C        2.75487403       0.08542743       0.01470060
H       -2.37974297       1.68790444       0.88276912
H       -2.88348661       1.12270746      -0.71309213
H       -3.15499032       0.11041518       0.70913096
H        1.18562705      -1.67526233      -1.13375012
H        1.49525665      -1.49891906       0.55816291
H        3.17584339       0.20708779       0.99188817
12
Frame=3 idx=004622 GeodesicLength=0.1140617413263742 rxn_smarts="[C:1]([C:2]#[C:3][C:4]([C:5]#[C:6][H:12])([H:10])[H:11])([H:7])([H:8])[H:9]>>[C:1]([C:2]#[C:3][C:4]([C:6](=[C:5])[H:12])([H:10])[H:11])([H:7])([H:8])[H:9]"
C       -2.45630512       0.81041713       0.24237220
C       -1.14934149       0.19366068       0.05894659
C       -0.07383504      -0.30661401      -0.10874475
C        1.21117395      -0.94778676      -0.32544268
C        2.29658501       0.15041806      -1.16186969
C        2.76138517       0.08052728      -0.00826606
H       -2.40126937       1.62491875       0.96628168
H       -2.82626582       1.21901079      -0.69908234
H       -3.18483821       0.08394236       0.60551162
H        1.16390705      -1.70469244      -1.10514566
H        1.49366908      -1.50591165       0.57671547
H        3.16513479       0.30210981       0.95872362
12
Frame=4 idx=004622 GeodesicLength=0.1518501991518484 rxn_smarts="[C:1]([C:2]#[C:3][C:4]([C:5]#[C:6][H:12])([H:10])[H:11])([H:7])([H:8])[H:9]>>[C:1]([C:2]#[C:3][C:4]([C:6](=[C:5])[H:12])([H:10])[H:11])([H:7])([H:8])[H:9]"
C       -2.45370878       0.81199090       0.24310145
C       -1.14615014       0.19486134       0.06537561
C       -0.07013736      -0.30644974      -0.09587482
C        1.20954852      -0.96125437      -0.31100767
C        2.31202221       0.10288467      -1.18491726
C        2.76743785       0.07549049      -0.02702296
H       -2.42565256       1.55623140       1.04048654
H       -2.77384072       1.31039999      -0.67304531
H       -3.20709094       0.06687288       0.50317999
H        1.14451133      -1.73206219      -1.07646412
H        1.48958143      -1.51250695       0.59588347
H        3.15347917       0.39354157       0.92030508
12
Frame=5 idx=004622 GeodesicLength=0.1895624211335337 rxn_smarts="[C:1]([C:2]#[C:3][C:4]([C:5]#[C:6][H:12])([H:10])[H:11])([H:7])([H:8])[H:9]>>[C:1]([C:2]#[C:3][C:4]([C:6](=[C:5])[H:12])([H:10])[H:11])([H:7])([H:8])[H:9]"
C       -2.45181906       0.81322451       0.24378733
C       -1.14360735       0.19660344       0.06909262
C       -0.06684226      -0.30515353      -0.08566777
C        1.20795562      -0.97324316      -0.29683251
C        2.32961982       0.05694984      -1.20251120
C        2.77267395       0.07079830      -0.04075413
H       -2.45212420       1.48596251       1.10282555
H       -2.72729522       1.39263215      -0.63863926
H       -3.22314598       0.05884068       0.40626877
H        1.12698186      -1.75584000      -1.04951563
H        1.48294828      -1.51956165       0.61433334
H        3.14465455       0.47878691       0.87761288
12
Frame=6 idx=004622 GeodesicLength=0.22696725036283713 rxn_smarts="[C:1]([C:2]#[C:3][C:4]([C:5]#[C:6][H:12])([H:10])[H:11])([H:7])([H:8])[H:9]>>[C:1]([C:2]#[C:3][C:4]([C:6](=[C:5])[H:12])([H:10])[H:11])([H:7])([H:8])[H:9]"
C       -2.44994914       0.81454560       0.24429407
C       -1.14197669       0.19655033       0.07250921
C       -0.06455846      -0.30573921      -0.07591274
C        1.20660594      -0.98482343      -0.28197980
C        2.34676761       0.01233957      -1.21680408
C        2.77597264       0.06877027      -0.05225931
H       -2.48091700       1.41144774       1.15713696
H       -2.68098357       1.47114152      -0.59584029
H       -3.23570729       0.06029006       0.30856396
H        1.11162924      -1.77837665      -1.02229470
H        1.47626897      -1.52646403       0.63332832
H        3.13684775       0.56031823       0.82925841
12
Frame=7 idx=004622 GeodesicLength=0.26440486153040593 rxn_smarts="[C:1]([C:2]#[C:3][C:4]([C:5]#[C:6][H:12])([H:10])[H:11])([H:7])([H:8])[H:9]>>[C:1]([C:2]#[C:3][C:4]([C:6](=[C:5])[H:12])([H:10])[H:11])([H:7])([H:8])[H:9]"
C       -2.44905146       0.81544633       0.24459199
C       -1.13927161       0.19983480       0.07776685
C       -0.06154213      -0.30342966      -0.06507772
C        1.20517596      -0.99482372      -0.26600396
C        2.36507908      -0.03307932      -1.22868103
C        2.77990773       0.06678978      -0.06290997
H       -2.51707527       1.33167782       1.20344654
H       -2.63707953       1.54465382      -0.54487991
H       -3.24275061       0.06767398       0.20821304
H        1.09533731      -1.79851044      -0.99409616
H        1.46868454      -1.53245418       0.65322689
H        3.13258600       0.63622079       0.77440345
12
Frame=8 idx=004622 GeodesicLength=0.3015534309524997 rxn_smarts="[C:1]([C:2]#[C:3][C:4]([C:5]#[C:6][H:12])([H:10])[H:11])([H:7])([H:8])[H:9]>>[C:1]([C:2]#[C:3][C:4]([C:6](=[C:5])[H:12])([H:10])[H:11])([H:7])([H:8])[H:9]"
C       -2.44784957       0.81657146       0.24458236
C       -1.13830201       0.19838005       0.08517607
C       -0.05995026      -0.30502048      -0.05249133
C        1.20415615      -1.00488519      -0.24926605
C        2.38115245      -0.07561762      -1.23795765
C        2.78113214       0.06872654      -0.07269597
H       -2.55542185       1.24964733       1.24026503
H       -2.59096989       1.61352463      -0.48670379
H       -3.24694374       0.08647478       0.10734552
H        1.08139634      -1.81765106      -0.96602317
H        1.46289937      -1.53906942       0.67310655
H        3.12870087       0.70891898       0.71466243
12
Frame=9 idx=004622 GeodesicLength=0.33867353887454016 rxn_smarts="[C:1]([C:2]#[C:3][C:4]([C:5]#[C:6][H:12])([H:10])[H:11])([H:7])([H:8])[H:9]>>[C:1]([C:2]#[C:3][C:4]([C:6](=[C:5])[H:12])([H:10])[H:11])([H:7])([H:8])[H:9]"
C       -2.44770835       0.81721637       0.24453411
C       -1.13765675       0.19898737       0.08884150
C       -0.05833798      -0.30401971      -0.04267562
C        1.20311412      -1.01320832      -0.23208227
C        2.39966797      -0.11874280      -1.24414199
C        2.78260581       0.07118716      -0.08070649
H       -2.59549095       1.16461651       1.26823705
H       -2.55152540       1.67570488      -0.42077722
H       -3.24618651       0.11150575       0.01044360
H        1.06837245      -1.83500187      -0.93722781
H        1.45467388      -1.54367779       0.69420541
H        3.12847172       0.77543245       0.65134972
12
Frame=10 idx=004622 GeodesicLength=0.3757063898707277 rxn_smarts="[C:1]([C:2]#[C:3][C:4]([C:5]#[C:6][H:12])([H:10])[H:11])([H:7])([H:8])[H:9]>>[C:1]([C:2]#[C:3][C:4]([C:6](=[C:5])[H:12])([H:10])[H:11])([H:7])([H:8])[H:9]"
C       -2.44786009       0.81779650       0.24416805
C       -1.13697343       0.19925338       0.09615783
C       -0.05687357      -0.30349868      -0.02994454
C        1.20227490      -1.02080391      -0.21363069
C        2.41687283      -0.16107412      -1.24892863
C        2.78308990       0.07587682      -0.08973680
H       -2.64165379       1.07582123       1.28643834
H       -2.51229554       1.73257973      -0.34698090
H       -3.23998992       0.14544492      -0.08874103
H        1.05539589      -1.85101158      -0.90735982
H        1.44788004      -1.54785785       0.71600166
H        3.13013279       0.83747358       0.58255652
12
Frame=11 idx=004622 GeodesicLength=0.41278025670168755 rxn_smarts="[C:1]([C:2]#[C:3][C:4]([C:5]#[C:6][H:12])([H:10])[H:11])([H:7])([H:8])[H:9]>>[C:1]([C:2]#[C:3][C:4]([C:6](=[C:5])[H:12])([H:10])[H:11])([H:7])([H:8])[H:9]"
C       -2.44824349       0.81833593       0.24395645
C       -1.13704454       0.19901266       0.10108333
C       -0.05611772      -0.30334352      -0.01950606
C        1.20157009      -1.02761344      -0.19572626
C        2.43580994      -0.20188854      -1.25004946
C        2.78238271       0.08234859      -0.09642291
H       -2.68568705       0.99034225       1.29488757
H       -2.47882550       1.78010202      -0.27035678
H       -3.23013624       0.18552434      -0.17853749
H        1.04432974      -1.86516820      -0.87926953
H        1.43964060      -1.55224279       0.73704288
H        3.13232144       0.89459069       0.51289826
12
Frame=12 idx=004622 GeodesicLength=0.44988731593884546 rxn_smarts="[C:1]([C:2]#[C:3][C:4]([C:5]#[C:6][H:12])([H:10])[H:11])([H:7])([H:8])[H:9]>>[C:1]([C:2]#[C:3][C:4]([C:6](=[C:5])[H:12])([H:10])[H:11])([H:7])([H:8])[H:9]"
C       -2.44874059       0.81888953       0.24376837
C       -1.13812392       0.19696000       0.10579279
C       -0.05625855      -0.30465437      -0.00944141
C        1.20107203      -1.03391400      -0.17799901
C        2.45512052      -0.24046148      -1.24829288
C        2.77999003       0.09138316      -0.10202531
H       -2.72901308       0.90845772       1.29438666
H       -2.44839364       1.81928480      -0.19173879
H       -3.21726027       0.23181386      -0.26117595
H        1.03502169      -1.87781680      -0.85261905
H        1.43132090      -1.55710828       0.75735559
H        3.13526489       0.94716584       0.44198899
12
Frame=13 idx=004622 GeodesicLength=0.48708833682759767 rxn_smarts="[C:1]([C:2]#[C:3][C:4]([C:5]#[C:6][H:12])([H:10])[H:11])([H:7])([H:8])[H:9]>>[C:1]([C:2]#[C:3][C:4]([C:6](=[C:5])[H:12])([H:10])[H:11])([H:7])([H:8])[H:9]"
C       -2.45015096       0.81901892       0.24361453
C       -1.13838878       0.19820425       0.11022600
C       -0.05586839      -0.30319624       0.00022801
C        1.20048106      -1.03855831      -0.16014905
C        2.47622018      -0.27918997      -1.24411211
C        2.77807709       0.10085394      -0.10748114
H       -2.77320585       0.82726606       1.28567205
H       -2.42534158       1.85072482      -0.11053590
H       -3.20003069       0.28074733      -0.33787838
H        1.02518804      -1.88799726      -0.82648834
H        1.42162751      -1.56110394       0.77758945
H        3.14139236       0.99323040       0.36931487
12
Frame=14 idx=004622 GeodesicLength=0.5243161764786273 rxn_smarts="[C:1]([C:2]#[C:3][C:4]([C:5]#[C:6][H:12])([H:10])[H:11])([H:7])([H:8])[H:9]>>[C:1]([C:2]#[C:3][C:4]([C:6](=[C:5])[H:12])([H:10])[H:11])([H:7])([H:8])[H:9]"
C       -2.45126483       0.81944460       0.24331034
C       -1.14028255       0.19544006       0.11573420
C       -0.05690805      -0.30524034       0.01094331
C        1.20026500      -1.04332684      -0.14215361
C        2.49632125      -0.31477818      -1.23779934
C        2.77341039       0.11400378      -0.11317259
H       -2.81706926       0.75071448       1.26884227
H       -2.40241645       1.87502531      -0.02836811
H       -3.18034287       0.33633948      -0.40874293
H        1.01767125      -1.89761658      -0.80138426
H        1.41333784      -1.56596552       0.79723882
H        3.14727826       1.03595974       0.29555188
12
Frame=15 idx=004622 GeodesicLength=0.5616545444222812 rxn_smarts="[C:1]([C:2]#[C:3][C:4]([C:5]#[C:6][H:12])([H:10])[H:11])([H:7])([H:8])[H:9]>>[C:1]([C:2]#[C:3][C:4]([C:6](=[C:5])[H:12])([H:10])[H:11])([H:7])([H:8])[H:9]"
C       -2.45334801       0.81937251       0.24302442
C       -1.14182142       0.19500387       0.12121377
C       -0.05754043      -0.30480727       0.02169839
C        1.19998349      -1.04641401      -0.12399561
C        2.51771440      -0.35010115      -1.22945566
C        2.76901152       0.12787517      -0.11959832
H       -2.86107847       0.67572827       1.24467346
H       -2.38634977       1.89203318       0.05503251
H       -3.15737151       0.39387168      -0.47345426
H        1.00969599      -1.90488214      -0.77671319
H        1.40411252      -1.56983483       0.81679428
H        3.15699170       1.07215470       0.22078021
12
Frame=16 idx=004622 GeodesicLength=0.5991011431593867 rxn_smarts="[C:1]([C:2]#[C:3][C:4]([C:5]#[C:6][H:12])([H:10])[H:11])([H:7])([H:8])[H:9]>>[C:1]([C:2]#[C:3][C:4]([C:6](=[C:5])[H:12])([H:10])[H:11])([H:7])([H:8])[H:9]"
C       -2.45559049       0.81934833       0.24273334
C       -1.14466513       0.19243082       0.12566275
C       -0.05926678      -0.30604626       0.03175267
C        1.19992010      -1.04902964      -0.10577764
C        2.53941148      -0.38350306      -1.21886198
C        2.76259014       0.14458332      -0.12674042
H       -2.90354077       0.60494512       1.21405657
H       -2.37263411       1.90226634       0.13872175
H       -3.13294239       0.45575332      -0.53118364
H        1.00370739      -1.91157213      -0.75249940
H        1.39504043      -1.57328012       0.83631944
H        3.16797012       1.10410397       0.14581656
