13
Frame=0 idx=007936 GeodesicLength=0.0 rxn_smarts="[C:1]1([H:8])([H:9])[C:2]([H:10])([H:11])[c:3]2[n:4][c:5]([H:12])[c:6]([H:13])[n:7]21>>[C-:1]1([H:8])[C:2]([H:10])([H:11])[C:3]2=[N:4][C:5]([H:9])([H:12])[C:6]([H:13])=[N+:7]12"
C       -1.20948794      -0.45130265       0.10327912
C       -1.42564136       1.07583850      -0.02962429
C        0.02904150       0.91313368      -0.31800784
N        1.07487680       1.11897371       0.39564092
C        1.66866374      -0.16577815       0.39366698
C        1.11057484      -0.97538886      -0.62884784
N       -0.04760394      -0.37766257      -0.90783448
H       -2.01649394      -1.13734058      -0.15561629
H        0.58347835      -0.69357583       1.06887116
H       -2.05028227       1.41820243      -0.85617490
H       -1.64385282       1.60455222       0.89367732
H        2.62904218      -0.31067104       0.87064112
H        1.29768490      -2.01898091      -0.82967100
13
Frame=1 idx=007936 GeodesicLength=0.078270015253221 rxn_smarts="[C:1]1([H:8])([H:9])[C:2]([H:10])([H:11])[c:3]2[n:4][c:5]([H:12])[c:6]([H:13])[n:7]21>>[C-:1]1([H:8])[C:2]([H:10])([H:11])[C:3]2=[N:4][C:5]([H:9])([H:12])[C:6]([H:13])=[N+:7]12"
C       -1.21316892      -0.45293256       0.10500075
C       -1.42516475       1.07513617      -0.03160318
C        0.03247193       0.91485842      -0.31904007
N        1.08477447       1.12183360       0.38537772
C        1.66659425      -0.17018622       0.40319733
C        1.11307958      -0.97429126      -0.62956944
N       -0.05148874      -0.37971428      -0.89545539
H       -2.01838695      -1.13940473      -0.15628649
H        0.56068412      -0.70243260       1.09065243
H       -2.04728469       1.42211750      -0.85803443
H       -1.64743934       1.60431755       0.89081586
H        2.63931978      -0.30513880       0.85770278
H        1.30600926      -2.01416279      -0.84275787
13
Frame=2 idx=007936 GeodesicLength=0.15651617729252776 rxn_smarts="[C:1]1([H:8])([H:9])[C:2]([H:10])([H:11])[c:3]2[n:4][c:5]([H:12])[c:6]([H:13])[n:7]21>>[C-:1]1([H:8])[C:2]([H:10])([H:11])[C:3]2=[N:4][C:5]([H:9])([H:12])[C:6]([H:13])=[N+:7]12"
C       -1.21683768      -0.45463493       0.10673499
C       -1.42461151       1.07436220      -0.03350232
C        0.03597259       0.91651511      -0.32003821
N        1.09488047       1.12454412       0.37480468
C        1.66471413      -0.17440852       0.41258824
C        1.11569052      -0.97310301      -0.63030372
N       -0.05519315      -0.38175706      -0.88288863
H       -2.02019915      -1.14153516      -0.15714105
H        0.53726336      -0.71117455       1.11277277
H       -2.04418752       1.42598310      -0.85979147
H       -1.65092662       1.60399167       0.88803377
H        2.64913054      -0.29966934       0.84445036
H        1.31430399      -2.00911362      -0.85571941
13
Frame=3 idx=007936 GeodesicLength=0.23474667393833248 rxn_smarts="[C:1]1([H:8])([H:9])[C:2]([H:10])([H:11])[c:3]2[n:4][c:5]([H:12])[c:6]([H:13])[n:7]21>>[C-:1]1([H:8])[C:2]([H:10])([H:11])[C:3]2=[N:4][C:5]([H:9])([H:12])[C:6]([H:13])=[N+:7]12"
C       -1.22047297      -0.45641147       0.10849524
C       -1.42398195       1.07351140      -0.03531407
C        0.03953915       0.91811423      -0.32102426
N        1.10519854       1.12712694       0.36386596
C        1.66306293      -0.17840337       0.42174981
C        1.11840943      -0.97181242      -0.63110083
N       -0.05872120      -0.38378413      -0.87014249
H       -2.02190458      -1.14374480      -0.15814393
H        0.51322701      -0.71977116       1.13522399
H       -2.04101288       1.42977999      -0.86142728
H       -1.65430307       1.60357333       0.88533943
H        2.65840158      -0.29434418       0.83106538
H        1.32255801      -2.00383437      -0.86858696
13
Frame=4 idx=007936 GeodesicLength=0.3129661606587006 rxn_smarts="[C:1]1([H:8])([H:9])[C:2]([H:10])([H:11])[c:3]2[n:4][c:5]([H:12])[c:6]([H:13])[n:7]21>>[C-:1]1([H:8])[C:2]([H:10])([H:11])[C:3]2=[N:4][C:5]([H:9])([H:12])[C:6]([H:13])=[N+:7]12"
C       -1.22405733      -0.45826339       0.11029108
C       -1.42327734       1.07258009      -0.03703245
C        0.04316736       0.91966590      -0.32201531
N        1.11572751       1.12959858       0.35251724
C        1.66167284      -0.18213576       0.43060456
C        1.12123578      -0.97040940      -0.63200625
N       -0.06207505      -0.38578765      -0.85722309
H       -2.02348097      -1.14604410      -0.15926914
H        0.48857511      -0.72820382       1.15800533
H       -2.03777935       1.43349337      -0.86292756
H       -1.65756180       1.60306073       0.88273964
H        2.66709886      -0.28922408       0.81770026
H        1.33075439      -1.99833046      -0.88138430
13
Frame=5 idx=007936 GeodesicLength=0.3911901160753211 rxn_smarts="[C:1]1([H:8])([H:9])[C:2]([H:10])([H:11])[c:3]2[n:4][c:5]([H:12])[c:6]([H:13])[n:7]21>>[C-:1]1([H:8])[C:2]([H:10])([H:11])[C:3]2=[N:4][C:5]([H:9])([H:12])[C:6]([H:13])=[N+:7]12"
C       -1.22757918      -0.46019241       0.11212865
C       -1.42250058       1.07156543      -0.03865351
C        0.04685373       0.92117764      -0.32301858
N        1.12645983       1.13197238       0.34073083
C        1.66057502      -0.18557882       0.43908657
C        1.12416774      -0.96888751      -0.63305826
N       -0.06525372      -0.38776071      -0.84412918
H       -2.02491136      -1.14844098      -0.16050196
H        0.46328567      -0.73645445       1.18112550
H       -2.03449963       1.43711205      -0.86428467
H       -1.66070422       1.60245183       0.88023879
H        2.67523308      -0.28435306       0.80446824
H        1.33887362      -1.99261139      -0.89413242
13
Frame=6 idx=007936 GeodesicLength=0.4694166886733651 rxn_smarts="[C:1]1([H:8])([H:9])[C:2]([H:10])([H:11])[c:3]2[n:4][c:5]([H:12])[c:6]([H:13])[n:7]21>>[C-:1]1([H:8])[C:2]([H:10])([H:11])[C:3]2=[N:4][C:5]([H:9])([H:12])[C:6]([H:13])=[N+:7]12"
C       -1.23103183      -0.46219942       0.11400886
C       -1.42165352       1.07046519      -0.04017525
C        0.05059622       0.92265601      -0.32403528
N        1.13738799       1.13425489       0.32849649
C        1.65979155      -0.18871512       0.44715041
C        1.12720176      -0.96724389      -0.63428364
N       -0.06825429      -0.38969568      -0.83085697
H       -2.02618350      -1.15094045      -0.16184222
H        0.43732718      -0.74451628       1.20460228
H       -2.03118015       1.44063069      -0.86549526
H       -1.66373600       1.60174175       0.87783988
H        2.68284254      -0.27974602       0.79143211
H        1.34689207      -1.98669168      -0.90684142
13
Frame=7 idx=007936 GeodesicLength=0.5476523709398914 rxn_smarts="[C:1]1([H:8])([H:9])[C:2]([H:10])([H:11])[c:3]2[n:4][c:5]([H:12])[c:6]([H:13])[n:7]21>>[C-:1]1([H:8])[C:2]([H:10])([H:11])[C:3]2=[N:4][C:5]([H:9])([H:12])[C:6]([H:13])=[N+:7]12"
C       -1.23441417      -0.46428553       0.11593016
C       -1.42073915       1.06927876      -0.04159661
C        0.05439411       0.92410466      -0.32505693
N        1.14849840       1.13644958       0.31581424
C        1.65934538      -0.19153211       0.45476301
C        1.13033247      -0.96547948      -0.63569709
N       -0.07107124      -0.39158731      -0.81739420
H       -2.02729048      -1.15354441      -0.16329931
H        0.41064531      -0.75239203       1.22845600
H       -2.02782074       1.44404758      -0.86656116
H       -1.66666795       1.60092686       0.87554364
H        2.69000093      -0.27539948       0.77861587
H        1.35478711      -1.98058710      -0.91951760
13
Frame=8 idx=007936 GeodesicLength=0.6258977520444169 rxn_smarts="[C:1]1([H:8])([H:9])[C:2]([H:10])([H:11])[c:3]2[n:4][c:5]([H:12])[c:6]([H:13])[n:7]21>>[C-:1]1([H:8])[C:2]([H:10])([H:11])[C:3]2=[N:4][C:5]([H:9])([H:12])[C:6]([H:13])=[N+:7]12"
C       -1.23772591      -0.46645231       0.11788874
C       -1.41975925       1.06800539      -0.04291682
C        0.05824796       0.92552697      -0.32607206
N        1.15977734       1.13855307       0.30268805
C        1.65925385      -0.19401912       0.46190263
C        1.13355715      -0.96359371      -0.63731014
N       -0.07369578      -0.39342991      -0.80372496
H       -2.02822445      -1.15625396      -0.16488817
H        0.38317321      -0.76008356       1.25271653
H       -2.02441839       1.44736263      -0.86748542
H       -1.66951240       1.60000241       0.87335100
H        2.69678807      -0.27130399       0.76601421
H        1.36253861      -1.97431390      -0.93216359
13
Frame=9 idx=007936 GeodesicLength=0.7041097777810558 rxn_smarts="[C:1]1([H:8])([H:9])[C:2]([H:10])([H:11])[c:3]2[n:4][c:5]([H:12])[c:6]([H:13])[n:7]21>>[C-:1]1([H:8])[C:2]([H:10])([H:11])[C:3]2=[N:4][C:5]([H:9])([H:12])[C:6]([H:13])=[N+:7]12"
C       -1.24097071      -0.46870130       0.11987931
C       -1.41871613       1.06664503      -0.04413810
C        0.06215891       0.92692365      -0.32706055
N        1.17120706       1.14055853       0.28914959
C        1.65953959      -0.19617171       0.46855248
C        1.13686882      -0.96159000      -0.63912561
N       -0.07611903      -0.39521915      -0.78982792
H       -2.02898135      -1.15906906      -0.16662936
H        0.35485500      -0.76758805       1.27741040
H       -2.02096357       1.45057735      -0.86827880
H       -1.67228958       1.59896439       0.87125721
H        2.70328881      -0.26743912       0.75359028
H        1.37012217      -1.96789055      -0.94477894
13
Frame=10 idx=007936 GeodesicLength=0.7823436300325116 rxn_smarts="[C:1]1([H:8])([H:9])[C:2]([H:10])([H:11])[c:3]2[n:4][c:5]([H:12])[c:6]([H:13])[n:7]21>>[C-:1]1([H:8])[C:2]([H:10])([H:11])[C:3]2=[N:4][C:5]([H:9])([H:12])[C:6]([H:13])=[N+:7]12"
C       -1.24415121      -0.47103522       0.12189668
C       -1.41760926       1.06519656      -0.04525898
C        0.06613356       0.92829369      -0.32799620
N        1.18277713       1.14247016       0.27522086
C        1.66023336      -0.19799446       0.47470591
C        1.14026781      -0.95947331      -0.64114428
N       -0.07832669      -0.39695358      -0.77567403
H       -2.02955444      -1.16198804      -0.16855026
H        0.32556239      -0.77491626       1.30257475
H       -2.01744269       1.45369336      -0.86894842
H       -1.67501571       1.59780617       0.86926246
H        2.70960734      -0.26376015       0.74126999
H        1.37751839      -1.96133892      -0.95735847
13
Frame=11 idx=007936 GeodesicLength=0.860598439756874 rxn_smarts="[C:1]1([H:8])([H:9])[C:2]([H:10])([H:11])[c:3]2[n:4][c:5]([H:12])[c:6]([H:13])[n:7]21>>[C-:1]1([H:8])[C:2]([H:10])([H:11])[C:3]2=[N:4][C:5]([H:9])([H:12])[C:6]([H:13])=[N+:7]12"
C       -1.24727107      -0.47345677       0.12393559
C       -1.41643832       1.06365855      -0.04627926
C        0.07017720       0.92963530      -0.32885189
N        1.19447682       1.14429020       0.26093615
C        1.66136484      -0.19949317       0.48035916
C        1.14375109      -0.95724880      -0.64336278
N       -0.08030490      -0.39863230      -0.76123178
H       -2.02993752      -1.16501149      -0.17068275
H        0.29518430      -0.78206868       1.32824705
H       -2.01384032       1.45671226      -0.86950359
H       -1.67770983       1.59652158       0.86736422
H        2.71584083      -0.26022650       0.72896756
H        1.38470688      -1.95468016      -0.96989766
13
Frame=12 idx=007936 GeodesicLength=0.938872508462873 rxn_smarts="[C:1]1([H:8])([H:9])[C:2]([H:10])([H:11])[c:3]2[n:4][c:5]([H:12])[c:6]([H:13])[n:7]21>>[C-:1]1([H:8])[C:2]([H:10])([H:11])[C:3]2=[N:4][C:5]([H:9])([H:12])[C:6]([H:13])=[N+:7]12"
C       -1.25033556      -0.47596950       0.12599271
C       -1.41520265       1.06203024      -0.04719859
C        0.07429611       0.93094477      -0.32959444
N        1.20629340       1.14601860       0.24632785
C        1.66297152      -0.20067073       0.48550680
C        1.14731718      -0.95492138      -0.64577500
N       -0.08203762      -0.40025692      -0.74645902
H       -2.03012429      -1.16813830      -0.17305506
H        0.26359505      -0.78904932       1.35445918
H       -2.01013810       1.45963454      -0.86995641
H       -1.68039282       1.59510701       0.86555818
H        2.72208661      -0.25679677       0.71658968
H        1.39167117      -1.94793224      -0.98239588
13
Frame=13 idx=007936 GeodesicLength=1.0171531115756807 rxn_smarts="[C:1]1([H:8])([H:9])[C:2]([H:10])([H:11])[c:3]2[n:4][c:5]([H:12])[c:6]([H:13])[n:7]21>>[C-:1]1([H:8])[C:2]([H:10])([H:11])[C:3]2=[N:4][C:5]([H:9])([H:12])[C:6]([H:13])=[N+:7]12"
C       -1.25334988      -0.47857657       0.12806323
C       -1.41390032       1.06030843      -0.04801534
C        0.07849779       0.93221841      -0.33018937
N        1.21821733       1.14765934       0.23143215
C        1.66509572      -0.20153206       0.49014264
C        1.15096308      -0.95249765      -0.64837187
N       -0.08350844      -0.40182976      -0.73131186
H       -2.03010724      -1.17136741      -0.17570379
H        0.23066283      -0.79585848       1.38124535
H       -2.00631557       1.46246026      -0.87031636
H       -1.68308459       1.59355399       0.86384108
H        2.72843925      -0.25342389       0.70403027
H        1.39839005      -1.94111461      -0.99484612
13
Frame=14 idx=007936 GeodesicLength=1.0954401683204666 rxn_smarts="[C:1]1([H:8])([H:9])[C:2]([H:10])([H:11])[c:3]2[n:4][c:5]([H:12])[c:6]([H:13])[n:7]21>>[C-:1]1([H:8])[C:2]([H:10])([H:11])[C:3]2=[N:4][C:5]([H:9])([H:12])[C:6]([H:13])=[N+:7]12"
C       -1.25631862      -0.48128365       0.13014783
C       -1.41252854       1.05849064      -0.04872628
C        0.08279080       0.93344991      -0.33059619
N        1.23024130       1.14921524       0.21627401
C        1.66778599      -0.20207733       0.49425838
C        1.15468941      -0.94998194      -0.65114484
N       -0.08469720      -0.40335673      -0.71573193
H       -2.02987565      -1.17469903      -0.17865955
H        0.19622519      -0.80249632       1.40863373
H       -2.00235056       1.46518691      -0.87059434
H       -1.68580542       1.59185931       0.86221015
H        2.73499260      -0.25006444       0.69118077
H        1.40485070      -1.93424258      -1.00725174
13
Frame=15 idx=007936 GeodesicLength=1.1737200707249413 rxn_smarts="[C:1]1([H:8])([H:9])[C:2]([H:10])([H:11])[c:3]2[n:4][c:5]([H:12])[c:6]([H:13])[n:7]21>>[C-:1]1([H:8])[C:2]([H:10])([H:11])[C:3]2=[N:4][C:5]([H:9])([H:12])[C:6]([H:13])=[N+:7]12"
C       -1.25924547      -0.48409624       0.13224717
C       -1.41108409       1.05657247      -0.04932769
C        0.08718444       0.93463318      -0.33077175
N        1.24236057       1.15069389       0.20088567
C        1.67109753      -0.20230927       0.49784271
C        1.15849508      -0.94737863      -0.65408515
N       -0.08558260      -0.40484367      -0.69965622
H       -2.02941528      -1.17813405      -0.18195699
H        0.16011264      -0.80895826       1.43665311
H       -1.99821889       1.46780925      -0.87080122
H       -1.68857682       1.59001637       0.86066110
H        2.74183898      -0.24667373       0.67792129
H        1.41103390      -1.92733130      -1.01961203
13
Frame=16 idx=007936 GeodesicLength=1.251973565446661 rxn_smarts="[C:1]1([H:8])([H:9])[C:2]([H:10])([H:11])[c:3]2[n:4][c:5]([H:12])[c:6]([H:13])[n:7]21>>[C-:1]1([H:8])[C:2]([H:10])([H:11])[C:3]2=[N:4][C:5]([H:9])([H:12])[C:6]([H:13])=[N+:7]12"
C       -1.26213396      -0.48702114       0.13436526
C       -1.40956286       1.05454856      -0.04981496
C        0.09168933       0.93576077      -0.33066749
N        1.25457260       1.15210376       0.18529609
C        1.67509207      -0.20222974       0.50088171
C        1.16237886      -0.94469156      -0.65718332
N       -0.08614086      -0.40629899      -0.68300929
H       -2.02870930      -1.18167520      -0.18563032
H        0.12213858      -0.81523555       1.46533003
H       -1.99389351       1.47031943      -0.87094931
H       -1.69142153       1.58802003       0.85918874
H        2.74906947      -0.24320757       0.66412648
H        1.41692112      -1.92039281      -1.03193361
