12
Frame=0 idx=003821 GeodesicLength=0.0 rxn_smarts="[C:1]([C@@:2]1([H:10])[N:3]([H:11])[C@:4]1([C:5]#[N:6])[H:12])([H:7])([H:8])[H:9]>>[C:1]([C@@:2]1([H:10])[N:3]([H:11])[C@:4]1([N+:6]#[C-:5])[H:12])([H:7])([H:8])[H:9]"
C       -1.15968387       0.83719806      -0.02125065
C       -0.45933284      -0.41611797       0.41819192
N        0.07565936      -1.37155763      -0.53659318
C        1.00769566      -0.64955931       0.27667451
C        2.16298536       0.20252509      -0.61988421
N        1.69139740       1.05460297       0.05597276
H       -0.71568749       1.25693860      -0.92285556
H       -2.21021783       0.61604194      -0.22017295
H       -1.10938742       1.59561147       0.76076251
H       -0.90732632      -0.90042451       1.28159914
H        0.05401468      -1.02797550      -1.48937220
H        1.56988332      -1.19728316       1.01692787
12
Frame=1 idx=003821 GeodesicLength=0.0802911746434473 rxn_smarts="[C:1]([C@@:2]1([H:10])[N:3]([H:11])[C@:4]1([C:5]#[N:6])[H:12])([H:7])([H:8])[H:9]>>[C:1]([C@@:2]1([H:10])[N:3]([H:11])[C@:4]1([N+:6]#[C-:5])[H:12])([H:7])([H:8])[H:9]"
C       -1.16715166       0.83656564      -0.01426061
C       -0.45861115      -0.41337710       0.42003509
N        0.07597275      -1.36361398      -0.54016958
C        1.00824839      -0.64077281       0.27595687
C        2.23008032       0.17755022      -0.57586357
N        1.68419893       1.06358392      -0.01734127
H       -0.72573224       1.26238218      -0.91428547
H       -2.21590076       0.60978704      -0.21660615
H       -1.12795994       1.59066675       0.77260161
H       -0.90592373      -0.90412113       1.28026232
H        0.05203295      -1.01302675      -1.49035015
H        1.55074614      -1.20562396       1.02002092
12
Frame=2 idx=003821 GeodesicLength=0.1592138160128046 rxn_smarts="[C:1]([C@@:2]1([H:10])[N:3]([H:11])[C@:4]1([C:5]#[N:6])[H:12])([H:7])([H:8])[H:9]>>[C:1]([C@@:2]1([H:10])[N:3]([H:11])[C@:4]1([N+:6]#[C-:5])[H:12])([H:7])([H:8])[H:9]"
C       -1.17437498       0.83598563      -0.00689744
C       -0.45787850      -0.41091212       0.42144879
N        0.07671162      -1.35553163      -0.54433157
C        1.00899359      -0.63207584       0.27515976
C        2.29458267       0.15852069      -0.52178303
N        1.67771266       1.06735033      -0.09914186
H       -0.73739091       1.26716572      -0.90653244
H       -2.22179480       0.60415302      -0.21073244
H       -1.14348394       1.58623974       0.78404956
H       -0.90471859      -0.90845167       1.27813240
H        0.05064823      -0.99798441      -1.49185321
H        1.53099296      -1.21445947       1.02248147
12
Frame=3 idx=003821 GeodesicLength=0.2362651403582084 rxn_smarts="[C:1]([C@@:2]1([H:10])[N:3]([H:11])[C@:4]1([C:5]#[N:6])[H:12])([H:7])([H:8])[H:9]>>[C:1]([C@@:2]1([H:10])[N:3]([H:11])[C@:4]1([N+:6]#[C-:5])[H:12])([H:7])([H:8])[H:9]"
C       -1.18090434       0.83550793       0.00061841
C       -0.45712874      -0.40884818       0.42249771
N        0.07745274      -1.34789430      -0.54879637
C        1.00986248      -0.62388596       0.27396506
C        2.35411431       0.14868158      -0.45750184
N        1.67246496       1.06438849      -0.18821789
H       -0.74957201       1.27137288      -0.89948305
H       -2.22742391       0.59940596      -0.20324169
H       -1.15565063       1.58240190       0.79497593
H       -0.90355784      -0.91308467       1.27559841
H        0.04892666      -0.98389352      -1.49375716
H        1.51141630      -1.22415213       1.02334247
12
Frame=4 idx=003821 GeodesicLength=0.3110397608419524 rxn_smarts="[C:1]([C@@:2]1([H:10])[N:3]([H:11])[C@:4]1([C:5]#[N:6])[H:12])([H:7])([H:8])[H:9]>>[C:1]([C@@:2]1([H:10])[N:3]([H:11])[C@:4]1([N+:6]#[C-:5])[H:12])([H:7])([H:8])[H:9]"
C       -1.18622668       0.83518758       0.00802485
C       -0.45634149      -0.40733948       0.42326529
N        0.07757508      -1.34141213      -0.55329929
C        1.01076372      -0.61680755       0.27187320
C        2.40605957       0.15143945      -0.38330703
N        1.66903873       1.05330667      -0.28259834
H       -0.76092154       1.27510860      -0.89297207
H       -2.23223808       0.59589054      -0.19496647
H       -1.16423032       1.57920211       0.80520483
H       -0.90219776      -0.91758233       1.27320444
H        0.04571826      -0.97190574      -1.49595849
H        1.49300052      -1.23508771       1.02152906
12
Frame=5 idx=003821 GeodesicLength=0.3832077370536767 rxn_smarts="[C:1]([C@@:2]1([H:10])[N:3]([H:11])[C@:4]1([C:5]#[N:6])[H:12])([H:7])([H:8])[H:9]>>[C:1]([C@@:2]1([H:10])[N:3]([H:11])[C@:4]1([N+:6]#[C-:5])[H:12])([H:7])([H:8])[H:9]"
C       -1.18983248       0.83508967       0.01509907
C       -0.45551067      -0.40655763       0.42385545
N        0.07639006      -1.33678546      -0.55762456
C        1.01156395      -0.61147493       0.26834468
C        2.44746237       0.16981508      -0.29996668
N        1.66840765       1.03290823      -0.38013407
H       -0.76990594       1.27862237      -0.88666389
H       -2.23565204       0.59394176      -0.18687185
H       -1.16917292       1.57653613       0.81472390
H       -0.90045057      -0.92163524       1.27144864
H        0.03987112      -0.96304176      -1.49836457
H        1.47682945      -1.24741821       1.01615386
12
Frame=6 idx=003821 GeodesicLength=0.4526897614543622 rxn_smarts="[C:1]([C@@:2]1([H:10])[N:3]([H:11])[C@:4]1([C:5]#[N:6])[H:12])([H:7])([H:8])[H:9]>>[C:1]([C@@:2]1([H:10])[N:3]([H:11])[C@:4]1([N+:6]#[C-:5])[H:12])([H:7])([H:8])[H:9]"
C       -1.19115065       0.83525189       0.02164373
C       -0.45457534      -0.40675370       0.42435657
N        0.07310774      -1.33478212      -0.56165660
C        1.01219270      -0.60879923       0.26270713
C        2.47479443       0.20690606      -0.20847028
N        1.67143331       1.00214265      -0.47812165
H       -0.77502563       1.28202980      -0.88032358
H       -2.23708783       0.59411999      -0.17980039
H       -1.17009348       1.57440428       0.82339809
H       -0.89811950      -0.92494157       1.27083568
H        0.03031104      -0.95820345      -1.50091098
H        1.46421321      -1.26137462       1.00634229
12
Frame=7 idx=003821 GeodesicLength=0.5201936777396384 rxn_smarts="[C:1]([C@@:2]1([H:10])[N:3]([H:11])[C@:4]1([C:5]#[N:6])[H:12])([H:7])([H:8])[H:9]>>[C:1]([C@@:2]1([H:10])[N:3]([H:11])[C@:4]1([N+:6]#[C-:5])[H:12])([H:7])([H:8])[H:9]"
C       -1.18985791       0.83572861       0.02754098
C       -0.45369813      -0.40814572       0.42481037
N        0.06724418      -1.33572850      -0.56540569
C        1.01233846      -0.60904443       0.25462750
C        2.48344101       0.26414397      -0.11067051
N        1.68098319       0.96003105      -0.57475558
H       -0.77469114       1.28574560      -0.87334168
H       -2.23613930       0.59647917      -0.17436980
H       -1.16723089       1.57232348       0.83162508
H       -0.89510034      -0.92765024       1.27161083
H        0.01652905      -0.95756610      -1.50355120
H        1.45618181      -1.27631690       0.99187970
12
Frame=8 idx=003821 GeodesicLength=0.5876885414710955 rxn_smarts="[C:1]([C@@:2]1([H:10])[N:3]([H:11])[C@:4]1([C:5]#[N:6])[H:12])([H:7])([H:8])[H:9]>>[C:1]([C@@:2]1([H:10])[N:3]([H:11])[C@:4]1([N+:6]#[C-:5])[H:12])([H:7])([H:8])[H:9]"
C       -1.18546410       0.83648430       0.03286385
C       -0.45286096      -0.41107014       0.42547888
N        0.05873883      -1.34006440      -0.56849282
C        1.01208590      -0.61289775       0.24446228
C        2.46877335       0.34185318      -0.01315864
N        1.69774082       0.90632935      -0.66469738
H       -0.76720632       1.29028429      -0.86483240
H       -2.23209760       0.60193771      -0.17236269
H       -1.16062634       1.57004067       0.83969507
H       -0.89221813      -0.93023484       1.27348313
H       -0.00145727      -0.96117565      -1.50575542
H        1.45459181      -1.29148673       0.97331616
12
Frame=9 idx=003821 GeodesicLength=0.6579349996028594 rxn_smarts="[C:1]([C@@:2]1([H:10])[N:3]([H:11])[C@:4]1([C:5]#[N:6])[H:12])([H:7])([H:8])[H:9]>>[C:1]([C@@:2]1([H:10])[N:3]([H:11])[C@:4]1([N+:6]#[C-:5])[H:12])([H:7])([H:8])[H:9]"
C       -1.17916726       0.83734006       0.03732454
C       -0.45269000      -0.41522791       0.42636753
N        0.04828882      -1.34645519      -0.57110863
C        1.01083969      -0.61883933       0.23332971
C        2.43061485       0.43095070       0.07370864
N        1.72567383       0.84488652      -0.74150693
H       -0.75293732       1.29549198      -0.85461425
H       -2.22594987       0.60889074      -0.17352219
H       -1.15301641       1.56681831       0.84788149
H       -0.88903088      -0.93247077       1.27696648
H       -0.02135691      -0.96666911      -1.50738728
H        1.45873146      -1.30471599       0.95256088
12
Frame=10 idx=003821 GeodesicLength=0.7325932454603316 rxn_smarts="[C:1]([C@@:2]1([H:10])[N:3]([H:11])[C@:4]1([C:5]#[N:6])[H:12])([H:7])([H:8])[H:9]>>[C:1]([C@@:2]1([H:10])[N:3]([H:11])[C@:4]1([N+:6]#[C-:5])[H:12])([H:7])([H:8])[H:9]"
C       -1.17213644       0.83827905       0.04177584
C       -0.45342941      -0.42012242       0.42800673
N        0.03822530      -1.35330368      -0.57247926
C        1.00890305      -0.62497533       0.22448722
C        2.37741389       0.52131624       0.13734260
N        1.76108433       0.77893142      -0.80222732
H       -0.73274607       1.30304422      -0.84056270
H       -2.21794652       0.61707104      -0.18058474
H       -1.14824546       1.56159106       0.85799178
H       -0.88833066      -0.93617336       1.27986934
H       -0.04039058      -0.97181197      -1.50746645
H        1.46759857      -1.31384624       0.93384694
12
Frame=11 idx=003821 GeodesicLength=0.8095668220837025 rxn_smarts="[C:1]([C@@:2]1([H:10])[N:3]([H:11])[C@:4]1([C:5]#[N:6])[H:12])([H:7])([H:8])[H:9]>>[C:1]([C@@:2]1([H:10])[N:3]([H:11])[C@:4]1([N+:6]#[C-:5])[H:12])([H:7])([H:8])[H:9]"
C       -1.16595867       0.83901509       0.04576491
C       -0.45501412      -0.42499640       0.42996436
N        0.02849307      -1.35927726      -0.57368108
C        1.00618961      -0.63060195       0.21728546
C        2.31725238       0.60485046       0.17899788
N        1.80356245       0.71432830      -0.84564815
H       -0.71090434       1.31074787      -0.82517166
H       -2.21013532       0.62441439      -0.18966786
H       -1.14692534       1.55545442       0.86824986
H       -0.88770199      -0.93941108       1.28370677
H       -0.05683529      -0.97465572      -1.50695564
H        1.47797757      -1.31986810       0.91715517
12
Frame=12 idx=003821 GeodesicLength=0.8884649471138578 rxn_smarts="[C:1]([C@@:2]1([H:10])[N:3]([H:11])[C@:4]1([C:5]#[N:6])[H:12])([H:7])([H:8])[H:9]>>[C:1]([C@@:2]1([H:10])[N:3]([H:11])[C@:4]1([N+:6]#[C-:5])[H:12])([H:7])([H:8])[H:9]"
C       -1.16074381       0.83980667       0.05021599
C       -0.45733223      -0.42962991       0.43241485
N        0.02036118      -1.36383931      -0.57435128
C        1.00314111      -0.63489621       0.21329340
C        2.25635031       0.68142631       0.19854617
N        1.84916455       0.64946425      -0.87662126
H       -0.68798170       1.32014691      -0.80679968
H       -2.20210411       0.63150061      -0.20207608
H       -1.15034305       1.54761842       0.88039360
H       -0.88937885      -0.94403418       1.28624443
H       -0.07006526      -0.97490452      -1.50556413
H        1.48893186      -1.32265903       0.90430399
12
Frame=13 idx=003821 GeodesicLength=0.9688225010156937 rxn_smarts="[C:1]([C@@:2]1([H:10])[N:3]([H:11])[C@:4]1([C:5]#[N:6])[H:12])([H:7])([H:8])[H:9]>>[C:1]([C@@:2]1([H:10])[N:3]([H:11])[C@:4]1([N+:6]#[C-:5])[H:12])([H:7])([H:8])[H:9]"
C       -1.15670116       0.84049523       0.05474212
C       -0.46003597      -0.43389447       0.43494130
N        0.01297823      -1.36699029      -0.57539122
C        0.99987126      -0.63859732       0.21090598
C        2.19515941       0.75158507       0.20195971
N        1.89852987       0.58592637      -0.89562349
H       -0.66642393       1.32928978      -0.78789050
H       -2.19481179       0.63782440      -0.21438675
H       -1.15620383       1.53946031       0.89256227
H       -0.89131556      -0.94862605       1.28873003
H       -0.08041202      -0.97241184      -1.50418478
H        1.49936549      -1.32406119       0.89363533
12
Frame=14 idx=003821 GeodesicLength=1.0497854747453603 rxn_smarts="[C:1]([C@@:2]1([H:10])[N:3]([H:11])[C@:4]1([C:5]#[N:6])[H:12])([H:7])([H:8])[H:9]>>[C:1]([C@@:2]1([H:10])[N:3]([H:11])[C@:4]1([N+:6]#[C-:5])[H:12])([H:7])([H:8])[H:9]"
C       -1.15382230       0.84118244       0.05964113
C       -0.46293488      -0.43763854       0.43757359
N        0.00666772      -1.36853696      -0.57677438
C        0.99661871      -0.64152022       0.21040304
C        2.13593810       0.81548589       0.19006025
N        1.95016928       0.52339616      -0.90437348
H       -0.64678906       1.33859810      -0.76827188
H       -2.18815887       0.64343134      -0.22665522
H       -1.16473170       1.53081203       0.90520897
H       -0.89398165      -0.95364984       1.29049598
H       -0.08778792      -0.96713344      -1.50281357
H        1.50881257      -1.32442697       0.88550558
12
Frame=15 idx=003821 GeodesicLength=1.131193877261049 rxn_smarts="[C:1]([C@@:2]1([H:10])[N:3]([H:11])[C@:4]1([C:5]#[N:6])[H:12])([H:7])([H:8])[H:9]>>[C:1]([C@@:2]1([H:10])[N:3]([H:11])[C@:4]1([N+:6]#[C-:5])[H:12])([H:7])([H:8])[H:9]"
C       -1.15203768       0.84190419       0.06502173
C       -0.46588398      -0.44084183       0.44019551
N        0.00151573      -1.36840978      -0.57868270
C        0.99352487      -0.64372887       0.21167270
C        2.07914611       0.87370260       0.16410003
N        2.00359856       0.46177431      -0.90352274
H       -0.62976491       1.34791555      -0.74844346
H       -2.18228149       0.64839096      -0.23805941
H       -1.17521590       1.52186254       0.91825062
H       -0.89735587      -0.95925334       1.29125310
H       -0.09220379      -0.95904292      -1.50160386
H        1.51695833      -1.32427341       0.87981850
12
Frame=16 idx=003821 GeodesicLength=1.2125732463647794 rxn_smarts="[C:1]([C@@:2]1([H:10])[N:3]([H:11])[C@:4]1([C:5]#[N:6])[H:12])([H:7])([H:8])[H:9]>>[C:1]([C@@:2]1([H:10])[N:3]([H:11])[C@:4]1([N+:6]#[C-:5])[H:12])([H:7])([H:8])[H:9]"
C       -1.15125423       0.84262629       0.07080918
C       -0.46868938      -0.44350727       0.44267278
N       -0.00272977      -1.36672708      -0.58133498
C        0.99071236      -0.64558313       0.21414781
C        2.02464115       0.92607600       0.12571286
N        2.05849084       0.40228051      -0.89282505
H       -0.61600728       1.35682126      -0.72932635
H       -2.17741057       0.65263208      -0.24769364
H       -1.18664622       1.51308534       0.93120729
H       -0.90078299      -0.96498314       1.29137114
H       -0.09388104      -0.94834248      -1.50077101
H        1.52355713      -1.32437839       0.87602996
