15
Frame=0 idx=007355 GeodesicLength=0.0 rxn_smarts="[C:1]1([H:8])([H:9])[C:2]([H:10])([H:11])[C:3]12[C:4]([H:12])([H:13])[C@@:5]1([H:14])[O:6][C@@:7]21[H:15]>>[C:1]1([H:8])([H:9])[C:2]([H:10])([H:11])[C:3]1([C:4]([C:5](=[O:6])[H:14])([H:12])[H:13])[C:7][H:15]"
C       -1.41037515       0.35148796      -0.76093847
C       -1.62525395      -0.11485777       0.63787862
C       -0.21391036       0.07567898       0.10848326
C        0.81117554      -1.01880162      -0.12631577
C        2.04924537      -0.11073359      -0.10957220
O        2.14811835       0.78714449      -0.94058152
C        0.59722365       1.06209006       0.80069615
H       -1.60541563      -0.35064168      -1.56157949
H       -1.62563765       1.38663861      -0.99338718
H       -1.98887890       0.59253721       1.37257442
H       -1.92576048      -1.13978266       0.81444831
H        0.84113587      -1.74771770       0.68475196
H        0.72046252      -1.52695513      -1.08838315
H        2.88599821      -0.36203705       0.55959624
H        0.34187256       2.11594984       0.60232886
15
Frame=1 idx=007355 GeodesicLength=0.039617266758779655 rxn_smarts="[C:1]1([H:8])([H:9])[C:2]([H:10])([H:11])[C:3]12[C:4]([H:12])([H:13])[C@@:5]1([H:14])[O:6][C@@:7]21[H:15]>>[C:1]1([H:8])([H:9])[C:2]([H:10])([H:11])[C:3]1([C:4]([C:5](=[O:6])[H:14])([H:12])[H:13])[C:7][H:15]"
C       -1.40464831       0.35695759      -0.75768877
C       -1.62598628      -0.11773995       0.63743358
C       -0.21326805       0.06975232       0.11754255
C        0.81096682      -1.02517172      -0.12095684
C        2.04621534      -0.11469525      -0.11240257
O        2.13613509       0.78296624      -0.95109908
C        0.60554343       1.06856602       0.78070824
H       -1.58923916      -0.33869753      -1.56637472
H       -1.61757044       1.39353535      -0.98558988
H       -1.98890405       0.58754718       1.37451618
H       -1.93113814      -1.14293979       0.80452935
H        0.84485562      -1.75047479       0.69317985
H        0.71484300      -1.53611977      -1.08079663
H        2.88606695      -0.35353955       0.55656765
H        0.32612820       2.12005364       0.61043108
15
Frame=2 idx=007355 GeodesicLength=0.07931812133200039 rxn_smarts="[C:1]1([H:8])([H:9])[C:2]([H:10])([H:11])[C:3]12[C:4]([H:12])([H:13])[C@@:5]1([H:14])[O:6][C@@:7]21[H:15]>>[C:1]1([H:8])([H:9])[C:2]([H:10])([H:11])[C:3]1([C:4]([C:5](=[O:6])[H:14])([H:12])[H:13])[C:7][H:15]"
C       -1.39877287       0.36240314      -0.75454246
C       -1.62676627      -0.12058056       0.63678116
C       -0.21261981       0.06412254       0.12669136
C        0.81069887      -1.03138864      -0.11534174
C        2.04310026      -0.11855528      -0.11549305
O        2.12387291       0.77840133      -0.96231364
C        0.61361980       1.07503501       0.76016979
H       -1.57261636      -0.32673843      -1.57110797
H       -1.60956434       1.40032455      -0.97796601
H       -1.98923267       0.58253728       1.37616947
H       -1.93645655      -1.14599085       0.79431305
H        0.84867557      -1.75281411       0.70204287
H        0.70903030      -1.54548841      -1.07270596
H        2.88610870      -0.34466334       0.55305366
H        0.31092246       2.12339576       0.62024948
15
Frame=3 idx=007355 GeodesicLength=0.11912335620157156 rxn_smarts="[C:1]1([H:8])([H:9])[C:2]([H:10])([H:11])[C:3]12[C:4]([H:12])([H:13])[C@@:5]1([H:14])[O:6][C@@:7]21[H:15]>>[C:1]1([H:8])([H:9])[C:2]([H:10])([H:11])[C:3]1([C:4]([C:5](=[O:6])[H:14])([H:12])[H:13])[C:7][H:15]"
C       -1.39275355       0.36783777      -0.75151186
C       -1.62760374      -0.12338422       0.63590107
C       -0.21197044       0.05880051       0.13592802
C        0.81037445      -1.03744965      -0.10943708
C        2.03988938      -0.12230300      -0.11886373
O        2.11128737       0.77342606      -0.97426922
C        0.62143048       1.08151026       0.73904753
H       -1.55551522      -0.31474298      -1.57579848
H       -1.60162590       1.40702910      -0.97051192
H       -1.98989113       0.57749278       1.37751843
H       -1.94171896      -1.14894800       0.78375871
H        0.85261405      -1.75469785       0.71139882
H        0.70301763      -1.55509459      -1.06404875
H        2.88612899      -0.33536792       0.54900736
H        0.29633659       2.12589174       0.63188111
15
Frame=4 idx=007355 GeodesicLength=0.15897309520577418 rxn_smarts="[C:1]1([H:8])([H:9])[C:2]([H:10])([H:11])[C:3]12[C:4]([H:12])([H:13])[C@@:5]1([H:14])[O:6][C@@:7]21[H:15]>>[C:1]1([H:8])([H:9])[C:2]([H:10])([H:11])[C:3]1([C:4]([C:5](=[O:6])[H:14])([H:12])[H:13])[C:7][H:15]"
C       -1.38667021       0.37321667      -0.74860081
C       -1.62845796      -0.12613511       0.63482872
C       -0.21132103       0.05382856       0.14517859
C        0.80999347      -1.04330447      -0.10333245
C        2.03660456      -0.12593239      -0.12240109
O        2.09854901       0.76804186      -0.98682357
C        0.62893329       1.08803927       0.71725544
H       -1.53811072      -0.30282725      -1.58036407
H       -1.59386259       1.41359275      -0.96327436
H       -1.99084511       0.57245778       1.37856705
H       -1.94683110      -1.15179848       0.77299304
H        0.85660498      -1.75615314       0.72108562
H        0.69686625      -1.56477867      -1.05497217
H        2.88605717      -0.32571738       0.54461949
H        0.28248999       2.12747001       0.64524057
15
Frame=5 idx=007355 GeodesicLength=0.19888676920799003 rxn_smarts="[C:1]1([H:8])([H:9])[C:2]([H:10])([H:11])[C:3]12[C:4]([H:12])([H:13])[C@@:5]1([H:14])[O:6][C@@:7]21[H:15]>>[C:1]1([H:8])([H:9])[C:2]([H:10])([H:11])[C:3]1([C:4]([C:5](=[O:6])[H:14])([H:12])[H:13])[C:7][H:15]"
C       -1.38053008       0.37854688      -0.74582231
C       -1.62932767      -0.12883523       0.63355174
C       -0.21067611       0.04921916       0.15443596
C        0.80955533      -1.04893932      -0.09700608
C        2.03322521      -0.12942679      -0.12611218
O        2.08561520       0.76222044      -1.00000889
C        0.63609414       1.09462922       0.69476272
H       -1.52038057      -0.29097587      -1.58482869
H       -1.58628253       1.42002468      -0.95624729
H       -1.99210745       0.56742153       1.37930698
H       -1.95178253      -1.15454542       0.76198895
H        0.86065816      -1.75713301       0.73114401
H        0.69057271      -1.57455211      -1.04543526
H        2.88587175      -0.31566112       0.53987604
H        0.26949444       2.12800695       0.66039429
15
Frame=6 idx=007355 GeodesicLength=0.23888367261112897 rxn_smarts="[C:1]1([H:8])([H:9])[C:2]([H:10])([H:11])[C:3]12[C:4]([H:12])([H:13])[C@@:5]1([H:14])[O:6][C@@:7]21[H:15]>>[C:1]1([H:8])([H:9])[C:2]([H:10])([H:11])[C:3]1([C:4]([C:5](=[O:6])[H:14])([H:12])[H:13])[C:7][H:15]"
C       -1.37435322       0.38383816      -0.74318577
C       -1.63022714      -0.13149267       0.63204935
C       -0.21004554       0.04498399       0.16368963
C        0.80906031      -1.05434231      -0.09043004
C        2.02974099      -0.13276224      -0.13000388
O        2.07245308       0.75594740      -1.01385005
C        0.64287864       1.10128953       0.67153863
H       -1.50232103      -0.27917114      -1.58920153
H       -1.57890098       1.42634254      -0.94942306
H       -1.99370351       0.56236614       1.37971524
H       -1.95658377      -1.15720354       0.75071104
H        0.86478429      -1.75759268       0.74161883
H        0.68413365      -1.58442885      -1.03538166
H        2.88556818      -0.30512837       0.53475691
H        0.25751607       2.12735404       0.67739636
15
Frame=7 idx=007355 GeodesicLength=0.2789843487374163 rxn_smarts="[C:1]1([H:8])([H:9])[C:2]([H:10])([H:11])[C:3]12[C:4]([H:12])([H:13])[C@@:5]1([H:14])[O:6][C@@:7]21[H:15]>>[C:1]1([H:8])([H:9])[C:2]([H:10])([H:11])[C:3]1([C:4]([C:5](=[O:6])[H:14])([H:12])[H:13])[C:7][H:15]"
C       -1.36816258       0.38910172      -0.74070880
C       -1.63116370      -0.13411548       0.63030465
C       -0.20944170       0.04113743       0.17293141
C        0.80851066      -1.05950267      -0.08357476
C        2.02613247      -0.13591664      -0.13407856
O        2.05900929       0.74920333      -1.02837000
C        0.64924256       1.10802406       0.64757182
H       -1.48392190      -0.26739111      -1.59351469
H       -1.57174532       1.43256794      -0.94279869
H       -1.99565510       0.55727738       1.37978133
H       -1.96122888      -1.15979071       0.73912146
H        0.86900200      -1.75748454       0.75256358
H        0.67754852      -1.59442665      -1.02476294
H        2.88513488      -0.29405396       0.52924483
H        0.24673880       2.12536990       0.69628935
15
Frame=8 idx=007355 GeodesicLength=0.3192279374272331 rxn_smarts="[C:1]1([H:8])([H:9])[C:2]([H:10])([H:11])[C:3]12[C:4]([H:12])([H:13])[C@@:5]1([H:14])[O:6][C@@:7]21[H:15]>>[C:1]1([H:8])([H:9])[C:2]([H:10])([H:11])[C:3]1([C:4]([C:5](=[O:6])[H:14])([H:12])[H:13])[C:7][H:15]"
C       -1.36197579       0.39434264      -0.73840055
C       -1.63214235      -0.13671217       0.62830421
C       -0.20887647       0.03769375       0.18214846
C        0.80790436      -1.06439712      -0.07641727
C        2.02237282      -0.13885754      -0.13832899
O        2.04523621       0.74198596      -1.04356585
C        0.65513224       1.11483225       0.62285620
H       -1.46517728      -0.25562066      -1.59777302
H       -1.56482992       1.43870823      -0.93636736
H       -1.99798086       0.55213451       1.37948846
H       -1.96571462      -1.16231788       0.72718967
H        0.87331638      -1.75675808       0.76401095
H        0.67082036      -1.60453195      -1.01353398
H        2.88453979      -0.28237777       0.52332895
H        0.23737513       2.12187582       0.71706012
15
Frame=9 idx=007355 GeodesicLength=0.35960113419889844 rxn_smarts="[C:1]1([H:8])([H:9])[C:2]([H:10])([H:11])[C:3]12[C:4]([H:12])([H:13])[C@@:5]1([H:14])[O:6][C@@:7]21[H:15]>>[C:1]1([H:8])([H:9])[C:2]([H:10])([H:11])[C:3]1([C:4]([C:5](=[O:6])[H:14])([H:12])[H:13])[C:7][H:15]"
C       -1.35585148       0.39956705      -0.73627385
C       -1.63319435      -0.13928525       0.62603579
C       -0.20836642       0.03466956       0.19132748
C        0.80725899      -1.06902217      -0.06894525
C        2.01847681      -0.14155847      -0.14273398
O        2.03111692       0.73430197      -1.05940926
C        0.66051236       1.12173473       0.59741785
H       -1.44613337      -0.24386282      -1.60199412
H       -1.55821887       1.44479026      -0.93012184
H       -2.00072685       0.54694693       1.37882703
H       -1.97006220      -1.16480822       0.71488460
H        0.87776090      -1.75539618       0.77597599
H        0.66396362      -1.61475950      -1.00167606
H        2.88381480      -0.27004737       0.51702039
H        0.22964914       2.11672949       0.73966523
15
Frame=10 idx=007355 GeodesicLength=0.4002615062576386 rxn_smarts="[C:1]1([H:8])([H:9])[C:2]([H:10])([H:11])[C:3]12[C:4]([H:12])([H:13])[C@@:5]1([H:14])[O:6][C@@:7]21[H:15]>>[C:1]1([H:8])([H:9])[C:2]([H:10])([H:11])[C:3]1([C:4]([C:5](=[O:6])[H:14])([H:12])[H:13])[C:7][H:15]"
C       -1.34974466       0.40476381      -0.73432680
C       -1.63426903      -0.14186376       0.62349538
C       -0.20793458       0.03206004       0.20045608
C        0.80652399      -1.07330093      -0.06113612
C        2.01431400      -0.14396619      -0.14727761
O        2.01652727       0.72616496      -1.07585949
C        0.66526395       1.12862802       0.57130819
H       -1.42669666      -0.23206132      -1.60616562
H       -1.55184296       1.45075966      -0.92405092
H       -2.00384648       0.54163278       1.37777736
H       -1.97418634      -1.16725005       0.70221393
H        0.88225933      -1.75328173       0.78848118
H        0.65697556      -1.62498453      -0.98914741
H        2.88275798      -0.25696505       0.51030846
H        0.22389864       2.10966428       0.76392339
15
Frame=11 idx=007355 GeodesicLength=0.4409917286470947 rxn_smarts="[C:1]1([H:8])([H:9])[C:2]([H:10])([H:11])[C:3]12[C:4]([H:12])([H:13])[C@@:5]1([H:14])[O:6][C@@:7]21[H:15]>>[C:1]1([H:8])([H:9])[C:2]([H:10])([H:11])[C:3]1([C:4]([C:5](=[O:6])[H:14])([H:12])[H:13])[C:7][H:15]"
C       -1.34383345       0.40991445      -0.73256206
C       -1.63544205      -0.14443102       0.62072235
C       -0.20760028       0.02988565       0.20948932
C        0.80576434      -1.07726146      -0.05308149
C        2.01001896      -0.14606437      -0.15182618
O        2.00165867       0.71766341      -1.09270552
C        0.66937595       1.13557367       0.54465632
H       -1.40714240      -0.22033249      -1.61026793
H       -1.54591532       1.45664901      -0.91815593
H       -2.00741330       0.53628672       1.37638744
H       -1.97814921      -1.16968567       0.68925179
H        0.88685128      -1.75055129       0.80135932
H        0.64995324      -1.63517518      -0.97612730
H        2.88151256      -0.24319060       0.50338663
H        0.22036100       2.10071915       0.78947322
15
Frame=12 idx=007355 GeodesicLength=0.48189721144319514 rxn_smarts="[C:1]1([H:8])([H:9])[C:2]([H:10])([H:11])[C:3]12[C:4]([H:12])([H:13])[C@@:5]1([H:14])[O:6][C@@:7]21[H:15]>>[C:1]1([H:8])([H:9])[C:2]([H:10])([H:11])[C:3]1([C:4]([C:5](=[O:6])[H:14])([H:12])[H:13])[C:7][H:15]"
C       -1.33815059       0.41502363      -0.73096861
C       -1.63664551      -0.14699367       0.61776519
C       -0.20736766       0.02813976       0.21839737
C        0.80497816      -1.08088042      -0.04484242
C        2.00553132      -0.14783634      -0.15625858
O        1.98649063       0.70889000      -1.10976331
C        0.67273422       1.14252129       0.51761774
H       -1.38754396      -0.20866154      -1.61427416
H       -1.54048832       1.46245907      -0.91242944
H       -2.01132105       0.53088889       1.37471540
H       -1.98184027      -1.17211621       0.67608490
H        0.89149818      -1.74727947       0.81449302
H        0.64295615      -1.64518303      -0.96274487
H        2.87993259      -0.22877162       0.49645078
H        0.21923612       2.08979965       0.81575697
15
Frame=13 idx=007355 GeodesicLength=0.5231382524202116 rxn_smarts="[C:1]1([H:8])([H:9])[C:2]([H:10])([H:11])[C:3]12[C:4]([H:12])([H:13])[C@@:5]1([H:14])[O:6][C@@:7]21[H:15]>>[C:1]1([H:8])([H:9])[C:2]([H:10])([H:11])[C:3]1([C:4]([C:5](=[O:6])[H:14])([H:12])[H:13])[C:7][H:15]"
C       -1.33260013       0.42002049      -0.72947253
C       -1.63788290      -0.14962303       0.61461082
C       -0.20726892       0.02677154       0.22717149
C        0.80405923      -1.08407518      -0.03641554
C        2.00075546      -0.14917725      -0.16056954
O        1.97101531       0.69998175      -1.12685456
C        0.67535968       1.14929966       0.49031855
H       -1.36782436      -0.19707005      -1.61802302
H       -1.53533784       1.46806545      -0.90680623
H       -2.01556679       0.52533366       1.37265458
H       -1.98531476      -1.17457279       0.66272695
H        0.89599594      -1.74336941       0.82780192
H        0.63592603      -1.65484723      -0.94893653
H        2.87786318      -0.21360336       0.48936345
H        0.22082087       2.07686574       0.84243018
15
Frame=14 idx=007355 GeodesicLength=0.5644447643937741 rxn_smarts="[C:1]1([H:8])([H:9])[C:2]([H:10])([H:11])[C:3]12[C:4]([H:12])([H:13])[C@@:5]1([H:14])[O:6][C@@:7]21[H:15]>>[C:1]1([H:8])([H:9])[C:2]([H:10])([H:11])[C:3]1([C:4]([C:5](=[O:6])[H:14])([H:12])[H:13])[C:7][H:15]"
C       -1.32737693       0.42492825      -0.72810066
C       -1.63918899      -0.15226075       0.61134552
C       -0.20730461       0.02576374       0.23582196
C        0.80313609      -1.08693264      -0.02792240
C        1.99582963      -0.15015187      -0.16459210
O        1.95531910       0.69103925      -1.14373273
C        0.67721255       1.15590851       0.46314597
H       -1.34829156      -0.18561219      -1.62161507
H       -1.53073148       1.47354803      -0.90131175
H       -2.02015498       0.51976003       1.37037994
H       -1.98855736      -1.17703840       0.64926873
H        0.90051484      -1.73906683       0.84111433
H        0.62902225      -1.66415625      -0.93502523
H        2.87549046      -0.19790820       0.48242160
H        0.22508098       2.06217934       0.86880190
15
Frame=15 idx=007355 GeodesicLength=0.6059027279420265 rxn_smarts="[C:1]1([H:8])([H:9])[C:2]([H:10])([H:11])[C:3]12[C:4]([H:12])([H:13])[C@@:5]1([H:14])[O:6][C@@:7]21[H:15]>>[C:1]1([H:8])([H:9])[C:2]([H:10])([H:11])[C:3]1([C:4]([C:5](=[O:6])[H:14])([H:12])[H:13])[C:7][H:15]"
C       -1.32242971       0.42972724      -0.72678707
C       -1.64054827      -0.15494721       0.60801752
C       -0.20748182       0.02505416       0.24436605
C        0.80217086      -1.08946229      -0.01941566
C        1.99072236      -0.15074549      -0.16827638
O        1.93943360       0.68222531      -1.16020309
C        0.67831307       1.16223628       0.43634662
H       -1.32892411      -0.17427551      -1.62496172
H       -1.52654542       1.47888256      -0.89589313
H       -2.02504130       0.51411599       1.36791912
H       -1.99157822      -1.17954605       0.63578646
H        0.90494488      -1.73447805       0.85429922
H        0.62225529      -1.67300632      -0.92110450
H        2.87273016      -0.18175007       0.47564869
H        0.23197864       2.04596944       0.89425785
15
Frame=16 idx=007355 GeodesicLength=0.647501100445738 rxn_smarts="[C:1]1([H:8])([H:9])[C:2]([H:10])([H:11])[C:3]12[C:4]([H:12])([H:13])[C@@:5]1([H:14])[O:6][C@@:7]21[H:15]>>[C:1]1([H:8])([H:9])[C:2]([H:10])([H:11])[C:3]1([C:4]([C:5](=[O:6])[H:14])([H:12])[H:13])[C:7][H:15]"
C       -1.31774971       0.43440769      -0.72548731
C       -1.64193191      -0.15768776       0.60468110
C       -0.20778817       0.02458541       0.25282781
C        0.80116751      -1.09169622      -0.01097023
C        1.98544817      -0.15098525      -0.17154748
O        1.92340016       0.67367062      -1.17605897
C        0.67871075       1.16819113       0.41019905
H       -1.30980068      -0.16307051      -1.62801629
H       -1.52272908       1.48405968      -0.89052176
H       -2.03015352       0.50840333       1.36533294
H       -1.99435925      -1.18209231       0.62235652
H        0.90925676      -1.72975081       0.86720630
H        0.61565634      -1.68131492      -0.90733520
H        2.86958419      -0.16529430       0.46913247
H        0.24128846       2.02857422       0.91820104
