12
Frame=0 idx=000546 GeodesicLength=0.0 rxn_smarts="[C:1]1([H:7])([H:8])[C@:2]2([H:9])[O:3][C:4]([H:10])([H:11])[O:5][C@:6]12[H:12]>>[C:1]1([H:7])([H:8])[C@:2]2([H:9])[O+:3]=[C-:4][O:5][C@:6]12[H:12].[H:10][H:11]"
C        1.52216639       0.30332660       0.29076790
C        0.43794225      -0.72733180       0.38060438
O       -0.70570961      -0.33556718       1.12338818
C       -1.41447424       0.52689051       0.37786794
O       -0.65176544       1.04325086      -0.59898813
C        0.47454735       0.19813127      -0.77556532
H        2.51848277      -0.04035634       0.04581579
H        1.46218153       1.14828489       0.96419754
H        0.60809830      -1.79408959       0.35709586
H       -2.38915113      -0.53958845      -0.50611336
H       -2.53846057       0.28042184       0.14528174
H        0.67614239      -0.06337265      -1.80435248
12
Frame=1 idx=000546 GeodesicLength=0.06668040618721555 rxn_smarts="[C:1]1([H:7])([H:8])[C@:2]2([H:9])[O:3][C:4]([H:10])([H:11])[O:5][C@:6]12[H:12]>>[C:1]1([H:7])([H:8])[C@:2]2([H:9])[O+:3]=[C-:4][O:5][C@:6]12[H:12].[H:10][H:11]"
C        1.52495107       0.30297033       0.29041251
C        0.44032113      -0.72729910       0.38103151
O       -0.70134346      -0.33437387       1.12593898
C       -1.41412687       0.52267870       0.37603639
O       -0.64810202       1.04542853      -0.59654814
C        0.47621502       0.19834970      -0.77499690
H        2.52087124      -0.04123524       0.04426938
H        1.46610261       1.14776456       0.96421059
H        0.61124545      -1.79396689       0.35779547
H       -2.39394677      -0.54033592      -0.50446604
H       -2.55994996       0.28258778       0.14028954
H        0.67776257      -0.06256858      -1.80397328
12
Frame=2 idx=000546 GeodesicLength=0.1322640211362035 rxn_smarts="[C:1]1([H:7])([H:8])[C@:2]2([H:9])[O:3][C:4]([H:10])([H:11])[O:5][C@:6]12[H:12]>>[C:1]1([H:7])([H:8])[C@:2]2([H:9])[O+:3]=[C-:4][O:5][C@:6]12[H:12].[H:10][H:11]"
C        1.52775386       0.30266486       0.29004785
C        0.44274630      -0.72726857       0.38142872
O       -0.69696103      -0.33324036       1.12849731
C       -1.41371017       0.51846588       0.37427280
O       -0.64444199       1.04754970      -0.59406363
C        0.47789371       0.19857083      -0.77446811
H        2.52326041      -0.04209647       0.04275064
H        1.47000048       1.14723435       0.96422477
H        0.61442686      -1.79384203       0.35847356
H       -2.39882490      -0.54089565      -0.50261409
H       -2.58152423       0.28466617       0.13503058
H        0.67938071      -0.06180871      -1.80358040
12
Frame=3 idx=000546 GeodesicLength=0.19690245836641335 rxn_smarts="[C:1]1([H:7])([H:8])[C@:2]2([H:9])[O:3][C:4]([H:10])([H:11])[O:5][C@:6]12[H:12]>>[C:1]1([H:7])([H:8])[C@:2]2([H:9])[O+:3]=[C-:4][O:5][C@:6]12[H:12].[H:10][H:11]"
C        1.53059547       0.30233094       0.28967720
C        0.44522578      -0.72724717       0.38185477
O       -0.69250573      -0.33208722       1.13108568
C       -1.41328627       0.51420276       0.37252214
O       -0.64078112       1.04967348      -0.59142312
C        0.47958458       0.19879024      -0.77389379
H        2.52568046      -0.04296458       0.04117642
H        1.47399040       1.14670967       0.96423232
H        0.61764454      -1.79371399       0.35917334
H       -2.40381950      -0.54129353      -0.50048567
H       -2.60326057       0.28660081       0.12927381
H        0.68093197      -0.06100141      -1.80319312
12
Frame=4 idx=000546 GeodesicLength=0.2602904036383865 rxn_smarts="[C:1]1([H:7])([H:8])[C@:2]2([H:9])[O:3][C:4]([H:10])([H:11])[O:5][C@:6]12[H:12]>>[C:1]1([H:7])([H:8])[C@:2]2([H:9])[O+:3]=[C-:4][O:5][C@:6]12[H:12].[H:10][H:11]"
C        1.53344892       0.30200517       0.28932099
C        0.44774288      -0.72724395       0.38230776
O       -0.68802534      -0.33096612       1.13366026
C       -1.41279585       0.50989937       0.37083176
O       -0.63715596       1.05173024      -0.58876935
C        0.48128604       0.19902493      -0.77332258
H        2.52809498      -0.04378050       0.03957647
H        1.47798834       1.14618274       0.96424439
H        0.62087477      -1.79360088       0.35983913
H       -2.40889636      -0.54154698      -0.49815774
H       -2.62506217       0.28850394       0.12325085
H        0.68249976      -0.06020795      -1.80278192
12
Frame=5 idx=000546 GeodesicLength=0.32323952862494537 rxn_smarts="[C:1]1([H:7])([H:8])[C@:2]2([H:9])[O:3][C:4]([H:10])([H:11])[O:5][C@:6]12[H:12]>>[C:1]1([H:7])([H:8])[C@:2]2([H:9])[O+:3]=[C-:4][O:5][C@:6]12[H:12].[H:10][H:11]"
C        1.53638673       0.30166794       0.28893362
C        0.45031397      -0.72720749       0.38280218
O       -0.68343904      -0.32975814       1.13634915
C       -1.41230349       0.50553575       0.36926561
O       -0.63351661       1.05384587      -0.58594956
C        0.48296750       0.19931819      -0.77267467
H        2.53055721      -0.04467383       0.03782049
H        1.48214601       1.14560422       0.96426391
H        0.62412092      -1.79348535       0.36054801
H       -2.41406825      -0.54169059      -0.49554522
H       -2.64715277       0.29019182       0.11651974
H        0.68398782      -0.05934839      -1.80233326
12
Frame=6 idx=000546 GeodesicLength=0.38490255293558906 rxn_smarts="[C:1]1([H:7])([H:8])[C@:2]2([H:9])[O:3][C:4]([H:10])([H:11])[O:5][C@:6]12[H:12]>>[C:1]1([H:7])([H:8])[C@:2]2([H:9])[O+:3]=[C-:4][O:5][C@:6]12[H:12].[H:10][H:11]"
C        1.53934979       0.30129052       0.28853247
C        0.45288999      -0.72721831       0.38329230
O       -0.67880225      -0.32853679       1.13906008
C       -1.41173636       0.50116033       0.36769601
O       -0.62990213       1.05588459      -0.58305237
C        0.48467045       0.19958643      -0.77202674
H        2.53302021      -0.04551253       0.03610972
H        1.48629567       1.14504376       0.96426165
H        0.62739627      -1.79337156       0.36122166
H       -2.41931850      -0.54166085      -0.49271275
H       -2.66929907       0.29178893       0.10950400
H        0.68543594      -0.05845453      -1.80188603
12
Frame=7 idx=000546 GeodesicLength=0.4458669797349531 rxn_smarts="[C:1]1([H:7])([H:8])[C@:2]2([H:9])[O:3][C:4]([H:10])([H:11])[O:5][C@:6]12[H:12]>>[C:1]1([H:7])([H:8])[C@:2]2([H:9])[O+:3]=[C-:4][O:5][C@:6]12[H:12].[H:10][H:11]"
C        1.54236867       0.30094346       0.28810184
C        0.45553730      -0.72720500       0.38380759
O       -0.67406921      -0.32726364       1.14184181
C       -1.41114457       0.49675953       0.36620165
O       -0.62629429       1.05792595      -0.58001791
C        0.48637227       0.19991194      -0.77134302
H        2.53549921      -0.04643502       0.03433854
H        1.49056877       1.14447507       0.96425139
H        0.63065370      -1.79326812       0.36186758
H       -2.42468867      -0.54146228      -0.48955693
H       -2.69166818       0.29314479       0.10190923
H        0.68686500      -0.05752667      -1.80140176
12
Frame=8 idx=000546 GeodesicLength=0.5058598270881529 rxn_smarts="[C:1]1([H:7])([H:8])[C@:2]2([H:9])[O:3][C:4]([H:10])([H:11])[O:5][C@:6]12[H:12]>>[C:1]1([H:7])([H:8])[C@:2]2([H:9])[O+:3]=[C-:4][O:5][C@:6]12[H:12].[H:10][H:11]"
C        1.54540848       0.30060188       0.28766501
C        0.45823107      -0.72720025       0.38433030
O       -0.66927361      -0.32603759       1.14465280
C       -1.41048838       0.49237077       0.36481746
O       -0.62267966       1.05995216      -0.57691646
C        0.48808682       0.20024565      -0.77066377
H        2.53798494      -0.04730195       0.03254049
H        1.49486641       1.14389275       0.96425427
H        0.63395019      -1.79317070       0.36249067
H       -2.43014981      -0.54103141      -0.48618154
H       -2.71416343       0.29434241       0.09390546
H        0.68822697      -0.05666372      -1.80089469
12
Frame=9 idx=000546 GeodesicLength=0.56494875051982 rxn_smarts="[C:1]1([H:7])([H:8])[C@:2]2([H:9])[O:3][C:4]([H:10])([H:11])[O:5][C@:6]12[H:12]>>[C:1]1([H:7])([H:8])[C@:2]2([H:9])[O+:3]=[C-:4][O:5][C@:6]12[H:12].[H:10][H:11]"
C        1.54859300       0.30022587       0.28720375
C        0.46101605      -0.72721195       0.38495626
O       -0.66436147      -0.32465206       1.14765938
C       -1.41001400       0.48737334       0.36338303
O       -0.61909053       1.06208782      -0.57329478
C        0.48977926       0.20059052      -0.76986617
H        2.54059145      -0.04821004       0.03039204
H        1.49942364       1.14320779       0.96425254
H        0.63741891      -1.79305028       0.36321447
H       -2.43567399      -0.54106870      -0.48232990
H       -2.73712663       0.29627012       0.08478711
H        0.68944431      -0.05556241      -1.80035773
12
Frame=10 idx=000546 GeodesicLength=0.6230703677693373 rxn_smarts="[C:1]1([H:7])([H:8])[C@:2]2([H:9])[O:3][C:4]([H:10])([H:11])[O:5][C@:6]12[H:12]>>[C:1]1([H:7])([H:8])[C@:2]2([H:9])[O+:3]=[C-:4][O:5][C@:6]12[H:12].[H:10][H:11]"
C        1.55179966       0.29982992       0.28671780
C        0.46384024      -0.72719502       0.38560293
O       -0.65936193      -0.32324171       1.15075175
C       -1.40949109       0.48243304       0.36209984
O       -0.61553228       1.06419161      -0.56958478
C        0.49146417       0.20098371      -0.76904392
H        2.54318659      -0.04916052       0.02821298
H        1.50404220       1.14252967       0.96420386
H        0.64085830      -1.79293609       0.36389594
H       -2.44130225      -0.54077697      -0.47821575
H       -2.76015810       0.29780537       0.07515476
H        0.69065449      -0.05446300      -1.79979540
12
Frame=11 idx=000546 GeodesicLength=0.6809000124409582 rxn_smarts="[C:1]1([H:7])([H:8])[C@:2]2([H:9])[O:3][C:4]([H:10])([H:11])[O:5][C@:6]12[H:12]>>[C:1]1([H:7])([H:8])[C@:2]2([H:9])[O+:3]=[C-:4][O:5][C@:6]12[H:12].[H:10][H:11]"
C        1.55505821       0.29942269       0.28621026
C        0.46672826      -0.72718703       0.38627736
O       -0.65425891      -0.32181960       1.15391444
C       -1.40888278       0.47750578       0.36095212
O       -0.61193922       1.06635118      -0.56571388
C        0.49317289       0.20140821      -0.76819396
H        2.54580383      -0.05016568       0.02599775
H        1.50878352       1.14185179       0.96413098
H        0.64433896      -1.79283085       0.36455087
H       -2.44705686      -0.54026222      -0.47366751
H       -2.78350554       0.29905280       0.06477487
H        0.69175764      -0.05332706      -1.79923330
12
Frame=12 idx=000546 GeodesicLength=0.7376772376786774 rxn_smarts="[C:1]1([H:7])([H:8])[C@:2]2([H:9])[O:3][C:4]([H:10])([H:11])[O:5][C@:6]12[H:12]>>[C:1]1([H:7])([H:8])[C@:2]2([H:9])[O+:3]=[C-:4][O:5][C@:6]12[H:12].[H:10][H:11]"
C        1.55834628       0.29903506       0.28567594
C        0.46966033      -0.72718899       0.38692530
O       -0.64905696      -0.32038074       1.15710725
C       -1.40819925       0.47262823       0.35992262
O       -0.60837980       1.06841636      -0.56178361
C        0.49485907       0.20184057      -0.76731651
H        2.54842804      -0.05113340       0.02373757
H        1.51357625       1.14112957       0.96409348
H        0.64781752      -1.79272343       0.36520393
H       -2.45297444      -0.53936887      -0.46883190
H       -2.80688971       0.29994810       0.05388891
H        0.69281267      -0.05220244      -1.79862298
12
Frame=13 idx=000546 GeodesicLength=0.7937995534185613 rxn_smarts="[C:1]1([H:7])([H:8])[C@:2]2([H:9])[O:3][C:4]([H:10])([H:11])[O:5][C@:6]12[H:12]>>[C:1]1([H:7])([H:8])[C@:2]2([H:9])[O+:3]=[C-:4][O:5][C@:6]12[H:12].[H:10][H:11]"
C        1.56170606       0.29860010       0.28512877
C        0.47265409      -0.72720102       0.38766310
O       -0.64373859      -0.31894136       1.16045684
C       -1.40750885       0.46763710       0.35906884
O       -0.60482812       1.07050307      -0.55759857
C        0.49651110       0.20232318      -0.76633057
H        2.55110014      -0.05211361       0.02129300
H        1.51852221       1.14040827       0.96400147
H        0.65134433      -1.79263808       0.36581819
H       -2.45906358      -0.53834590      -0.46343282
H       -2.83044850       0.30074981       0.04192192
H        0.69374970      -0.05098155      -1.79799017
12
Frame=14 idx=000546 GeodesicLength=0.8492480245021676 rxn_smarts="[C:1]1([H:7])([H:8])[C@:2]2([H:9])[O:3][C:4]([H:10])([H:11])[O:5][C@:6]12[H:12]>>[C:1]1([H:7])([H:8])[C@:2]2([H:9])[O+:3]=[C-:4][O:5][C@:6]12[H:12].[H:10][H:11]"
C        1.56510616       0.29817751       0.28452205
C        0.47568977      -0.72720927       0.38839889
O       -0.63828896      -0.31747586       1.16387130
C       -1.40673431       0.46266283       0.35841455
O       -0.60135582       1.07253701      -0.55328095
C        0.49813256       0.20282925      -0.76534137
H        2.55377188      -0.05319812       0.01885423
H        1.52356194       1.13969838       0.96383992
H        0.65485421      -1.79255016       0.36641976
H       -2.46527542      -0.53685377      -0.45759863
H       -2.85409355       0.30106111       0.02919944
H        0.69463155      -0.04967892      -1.79729918
12
Frame=15 idx=000546 GeodesicLength=0.9038385781068898 rxn_smarts="[C:1]1([H:7])([H:8])[C@:2]2([H:9])[O:3][C:4]([H:10])([H:11])[O:5][C@:6]12[H:12]>>[C:1]1([H:7])([H:8])[C@:2]2([H:9])[O+:3]=[C-:4][O:5][C@:6]12[H:12].[H:10][H:11]"
C        1.56854659       0.29775927       0.28391343
C        0.47877514      -0.72722002       0.38917562
O       -0.63274193      -0.31603243       1.16735459
C       -1.40587612       0.45769882       0.35788114
O       -0.59792490       1.07450459      -0.54885788
C        0.49975588       0.20339156      -0.76429199
H        2.55646266      -0.05422949       0.01629039
H        1.52868360       1.13890941       0.96375795
H        0.65841778      -1.79246427       0.36696690
H       -2.47164787      -0.53519770      -0.45127847
H       -2.87784070       0.30126113       0.01569021
H        0.69538987      -0.04838085      -1.79660187
12
Frame=16 idx=000546 GeodesicLength=0.9576665324308314 rxn_smarts="[C:1]1([H:7])([H:8])[C@:2]2([H:9])[O:3][C:4]([H:10])([H:11])[O:5][C@:6]12[H:12]>>[C:1]1([H:7])([H:8])[C@:2]2([H:9])[O+:3]=[C-:4][O:5][C@:6]12[H:12].[H:10][H:11]"
C        1.57200782       0.29733541       0.28327280
C        0.48189508      -0.72723987       0.38996417
O       -0.62711505      -0.31458013       1.17086862
C       -1.40491238       0.45278360       0.35754956
O       -0.59450402       1.07648897      -0.54429160
C        0.50134631       0.20394461      -0.76323985
H        2.55913705      -0.05526850       0.01364213
H        1.53387599       1.13812917       0.96363481
H        0.66195819      -1.79239358       0.36755789
H       -2.47814901      -0.53302394      -0.44471818
H       -2.90164332       0.30091624       0.00161765
H        0.69610334      -0.04709197      -1.79585799
