12
Frame=0 idx=001322 GeodesicLength=0.0 rxn_smarts="[C:1]([C@@:2]1([H:10])[C:3]([H:11])([H:12])[O:4][C:5]1=[O:6])([H:7])([H:8])[H:9]>>[C:1]([C+:2]=[C:5]([O:4][C:3]([H:10])([H:11])[H:12])[O-:6])([H:7])([H:8])[H:9]"
C        1.55539683      -0.44615152      -0.01148022
C        0.16127536      -0.71619908       0.38414640
C       -1.11685068       1.07282929       0.42993790
O       -1.76812467       0.20584017      -0.45605428
C       -0.86299417      -0.80447505      -0.64129708
O       -0.96586767      -1.65665882      -1.47449373
H        2.23114749      -0.31705783       0.83224792
H        1.82365837      -1.39752694      -0.49471630
H        1.71292431       0.33302076      -0.76494256
H       -0.43160448       0.39508786       1.11799679
H       -0.52251439       1.83551403      -0.07124622
H       -1.81644634       1.49577714       1.14990141
12
Frame=1 idx=001322 GeodesicLength=0.05818521659964419 rxn_smarts="[C:1]([C@@:2]1([H:10])[C:3]([H:11])([H:12])[O:4][C:5]1=[O:6])([H:7])([H:8])[H:9]>>[C:1]([C+:2]=[C:5]([O:4][C:3]([H:10])([H:11])[H:12])[O-:6])([H:7])([H:8])[H:9]"
C        1.55476472      -0.44696426      -0.02115308
C        0.15917874      -0.70902279       0.37550897
C       -1.11011251       1.06912868       0.43582092
O       -1.76239303       0.21786702      -0.46874426
C       -0.86552943      -0.79823137      -0.65025266
O       -0.97162124      -1.65875903      -1.47429867
H        2.21760474      -0.28175068       0.82716072
H        1.83940518      -1.40948784      -0.47018626
H        1.71136213       0.31332882      -0.79356996
H       -0.44184950       0.37317806       1.14669387
H       -0.51190634       1.83716737      -0.05280947
H       -1.81890346       1.49354602       1.14582989
12
Frame=2 idx=001322 GeodesicLength=0.11637164085787333 rxn_smarts="[C:1]([C@@:2]1([H:10])[C:3]([H:11])([H:12])[O:4][C:5]1=[O:6])([H:7])([H:8])[H:9]>>[C:1]([C+:2]=[C:5]([O:4][C:3]([H:10])([H:11])[H:12])[O-:6])([H:7])([H:8])[H:9]"
C        1.55415331      -0.44801082      -0.03053911
C        0.15700235      -0.70159410       0.36699928
C       -1.10339473       1.06539748       0.44168194
O       -1.75637022       0.23023289      -0.48144378
C       -0.86797640      -0.79172069      -0.65931701
O       -0.97745851      -1.66055700      -1.47400692
H        2.20378952      -0.24617550       0.82071849
H        1.85503471      -1.42052592      -0.44439248
H        1.71003177       0.29259543      -0.82172900
H       -0.45215028       0.35064131       1.17418394
H       -0.50187254       1.83890755      -0.03450278
H       -1.82078899       1.49080937       1.14234742
12
Frame=3 idx=001322 GeodesicLength=0.1745636220231782 rxn_smarts="[C:1]([C@@:2]1([H:10])[C:3]([H:11])([H:12])[O:4][C:5]1=[O:6])([H:7])([H:8])[H:9]>>[C:1]([C+:2]=[C:5]([O:4][C:3]([H:10])([H:11])[H:12])[O-:6])([H:7])([H:8])[H:9]"
C        1.55358773      -0.44929712      -0.03960986
C        0.15476010      -0.69394129       0.35862374
C       -1.09672918       1.06167077       0.44748696
O       -1.75011806       0.24288211      -0.49408900
C       -0.87033003      -0.78494758      -0.66849292
O       -0.98340619      -1.66208544      -1.47360081
H        2.18977458      -0.21053765       0.81292150
H        1.87056185      -1.43053782      -0.41748048
H        1.70895652       0.27088584      -0.84928274
H       -0.46245464       0.32753311       1.20049086
H       -0.49242521       1.84074966      -0.01639377
H       -1.82217747       1.48762540       1.13942652
12
Frame=4 idx=001322 GeodesicLength=0.23276454348643533 rxn_smarts="[C:1]([C@@:2]1([H:10])[C:3]([H:11])([H:12])[O:4][C:5]1=[O:6])([H:7])([H:8])[H:9]>>[C:1]([C+:2]=[C:5]([O:4][C:3]([H:10])([H:11])[H:12])[O-:6])([H:7])([H:8])[H:9]"
C        1.55306010      -0.45083341      -0.04835707
C        0.15245582      -0.68608850       0.35038047
C       -1.09012104       1.05795442       0.45322609
O       -1.74365985       0.25578222      -0.50662581
C       -0.87258274      -0.77789758      -0.67778022
O       -0.98944612      -1.66327995      -1.47312225
H        2.17556276      -0.17485011       0.80372463
H        1.88597879      -1.43948472      -0.38943359
H        1.70812333       0.24815271      -0.87621977
H       -0.47271108       0.30386342       1.22565311
H       -0.48354571       1.84268293       0.00150072
H       -1.82311427       1.48399857       1.13705369
12
Frame=5 idx=001322 GeodesicLength=0.2909752673252813 rxn_smarts="[C:1]([C@@:2]1([H:10])[C:3]([H:11])([H:12])[O:4][C:5]1=[O:6])([H:7])([H:8])[H:9]>>[C:1]([C+:2]=[C:5]([O:4][C:3]([H:10])([H:11])[H:12])[O-:6])([H:7])([H:8])[H:9]"
C        1.55256752      -0.45262519      -0.05676473
C        0.15009406      -0.67805884       0.34227360
C       -1.08357741       1.05426133       0.45888360
O       -1.73703020       0.26889431      -0.51900335
C       -0.87473113      -0.77056865      -0.68717250
O       -0.99556453      -1.66410373      -1.47260057
H        2.16117760      -0.13918807       0.79309884
H        1.90127816      -1.44730484      -0.36028896
H        1.70752148       0.22438783      -0.90248992
H       -0.48287012       0.27965221       1.24970838
H       -0.47522181       1.84470450       0.01914878
H       -1.82364362       1.47994913       1.13520683
12
Frame=6 idx=001322 GeodesicLength=0.34919190832133873 rxn_smarts="[C:1]([C@@:2]1([H:10])[C:3]([H:11])([H:12])[O:4][C:5]1=[O:6])([H:7])([H:8])[H:9]>>[C:1]([C+:2]=[C:5]([O:4][C:3]([H:10])([H:11])[H:12])[O-:6])([H:7])([H:8])[H:9]"
C        1.55210657      -0.45467353      -0.06481584
C        0.14767953      -0.66987175       0.33430534
C       -1.07710366       1.05060497       0.46444264
O       -1.73026308       0.28218322      -0.53117868
C       -0.87677047      -0.76295814      -0.69666399
O       -1.00175253      -1.66453338      -1.47204971
H        2.14663954      -0.10364697       0.78102761
H        1.91645584      -1.45392599      -0.33010530
H        1.70713895       0.19959345      -0.92803356
H       -0.49288394       0.25491853       1.27269177
H       -0.46744133       1.84681248       0.03651980
H       -1.82380540       1.47549711       1.13385990
12
Frame=7 idx=001322 GeodesicLength=0.4074153564850535 rxn_smarts="[C:1]([C@@:2]1([H:10])[C:3]([H:11])([H:12])[O:4][C:5]1=[O:6])([H:7])([H:8])[H:9]>>[C:1]([C+:2]=[C:5]([O:4][C:3]([H:10])([H:11])[H:12])[O-:6])([H:7])([H:8])[H:9]"
C        1.55167212      -0.45698016      -0.07249490
C        0.14521446      -0.66154643       0.32648105
C       -1.07070244       1.04699805       0.46989137
O       -1.72339141       0.29561736      -0.54311580
C       -0.87870191      -0.75507018      -0.70624343
O       -1.00799209      -1.66453960      -1.47149962
H        2.13196943      -0.06830279       0.76749072
H        1.93150587      -1.45928643      -0.29893023
H        1.70695893       0.17376474      -0.95280319
H       -0.50270976       0.22967581       1.29464469
H       -0.46018694       1.84900680       0.05359084
H       -1.82363626       1.47066285       1.13298850
12
Frame=8 idx=001322 GeodesicLength=0.46564475287808205 rxn_smarts="[C:1]([C@@:2]1([H:10])[C:3]([H:11])([H:12])[O:4][C:5]1=[O:6])([H:7])([H:8])[H:9]>>[C:1]([C+:2]=[C:5]([O:4][C:3]([H:10])([H:11])[H:12])[O-:6])([H:7])([H:8])[H:9]"
C        1.55125289      -0.45954155      -0.07978454
C        0.14269847      -0.65310474       0.31881109
C       -1.06436879       1.04345189       0.47521876
O       -1.71643352       0.30917599      -0.55479784
C       -0.88053218      -0.74691707      -0.71589201
O       -1.01426747      -1.66410174      -1.47097640
H        2.11719264      -0.03322866       0.75246816
H        1.94642400      -1.46331478      -0.26681840
H        1.70694337       0.14690148      -0.97675020
H       -0.51231524       0.20392727       1.31560929
H       -0.45342693       1.85128696       0.07035334
H       -1.82316724       1.46546494       1.13255874
12
Frame=9 idx=001322 GeodesicLength=0.5238751088890703 rxn_smarts="[C:1]([C@@:2]1([H:10])[C:3]([H:11])([H:12])[O:4][C:5]1=[O:6])([H:7])([H:8])[H:9]>>[C:1]([C+:2]=[C:5]([O:4][C:3]([H:10])([H:11])[H:12])[O-:6])([H:7])([H:8])[H:9]"
C        1.55084352      -0.46235516      -0.08666987
C        0.14013375      -0.64455961       0.31129728
C       -1.05810588       1.03998074       0.48041443
O       -1.70942116       0.32283484      -0.56619751
C       -0.88225959      -0.73849942      -0.72560030
O       -1.02056148      -1.66320275      -1.47049597
H        2.10232121       0.00148424       0.73595411
H        1.96121122      -1.46594487      -0.23383721
H        1.70707736       0.11900192      -0.99982237
H       -0.52166316       0.17768196       1.33562156
H       -0.44714746       1.85365430       0.08678826
H       -1.82242833       1.45992381       1.13254757
12
Frame=10 idx=001322 GeodesicLength=0.5821079616568012 rxn_smarts="[C:1]([C@@:2]1([H:10])[C:3]([H:11])([H:12])[O:4][C:5]1=[O:6])([H:7])([H:8])[H:9]>>[C:1]([C+:2]=[C:5]([O:4][C:3]([H:10])([H:11])[H:12])[O-:6])([H:7])([H:8])[H:9]"
C        1.55043408      -0.46541527      -0.09313497
C        0.13751740      -0.63592769       0.30394963
C       -1.05190990       1.03659678       0.48547322
O       -1.70237176       0.33657981      -0.57730693
C       -0.88389301      -0.72982923      -0.73535069
O       -1.02685570      -1.66182559      -1.47008957
H        2.08737681       0.03577166       0.71793200
H        1.97586814      -1.46710893      -0.20004083
H        1.70732801       0.09005378      -1.02198015
H       -0.53073075       0.15093682       1.35472427
H       -0.44131584       1.85611048       0.10289590
H       -1.82144748       1.45405738       1.13292811
12
Frame=11 idx=001322 GeodesicLength=0.6403533785085804 rxn_smarts="[C:1]([C@@:2]1([H:10])[C:3]([H:11])([H:12])[O:4][C:5]1=[O:6])([H:7])([H:8])[H:9]>>[C:1]([C+:2]=[C:5]([O:4][C:3]([H:10])([H:11])[H:12])[O-:6])([H:7])([H:8])[H:9]"
C        1.55000930      -0.46872123      -0.09916797
C        0.13484807      -0.62722658       0.29677881
C       -1.04577657       1.03331024       0.49039773
O       -1.69529548       0.35040938      -0.58812065
C       -0.88544243      -0.72091577      -0.74512062
O       -1.03311205      -1.65993182      -1.46981299
H        2.07237156       0.06960379       0.69835347
H        1.99039670      -1.46674737      -0.16543415
H        1.70764888       0.06000916      -1.04320600
H       -0.53949411       0.12367518       1.37296121
H       -0.43590485       1.85865865       0.11869161
H       -1.82024903       1.44787637       1.13367955
12
Frame=12 idx=001322 GeodesicLength=0.6986095984637771 rxn_smarts="[C:1]([C@@:2]1([H:10])[C:3]([H:11])([H:12])[O:4][C:5]1=[O:6])([H:7])([H:8])[H:9]>>[C:1]([C+:2]=[C:5]([O:4][C:3]([H:10])([H:11])[H:12])[O-:6])([H:7])([H:8])[H:9]"
C        1.54957013      -0.47225569      -0.10474648
C        0.13212055      -0.61846020       0.28979442
C       -1.03970372       1.03013199       0.49517609
O       -1.68821572       0.36430526      -0.59863886
C       -0.88691717      -0.71176377      -0.75489898
O       -1.03934207      -1.65753207      -1.46965674
H        2.05733154       0.10287569       0.67724512
H        2.00479746      -1.46477748      -0.13013899
H        1.70803121       0.02889122      -1.06343211
H       -0.54794185       0.09589291       1.39036521
H       -0.43087320       1.86129460       0.13416390
H       -1.81885718       1.44139754       1.13476743
12
Frame=13 idx=001322 GeodesicLength=0.7568075793293273 rxn_smarts="[C:1]([C@@:2]1([H:10])[C:3]([H:11])([H:12])[O:4][C:5]1=[O:6])([H:7])([H:8])[H:9]>>[C:1]([C+:2]=[C:5]([O:4][C:3]([H:10])([H:11])[H:12])[O-:6])([H:7])([H:8])[H:9]"
C        1.54907114      -0.47600933      -0.10984956
C        0.12933703      -0.60965454       0.28303134
C       -1.03367428       1.02708936       0.49977726
O       -1.68111418       0.37823029      -0.60885043
C       -0.88830702      -0.70243449      -0.76461795
O       -1.04547611      -1.65467015      -1.46960710
H        2.04228704       0.13536379       0.65467941
H        2.01903591      -1.46113873      -0.09440118
H        1.70834954      -0.00311350      -1.08249937
H       -0.55604263       0.06762331       1.40695756
H       -0.42620052       1.86402075       0.14926906
H       -1.81726593       1.43469324       1.13611096
12
Frame=14 idx=001322 GeodesicLength=0.8150307113782851 rxn_smarts="[C:1]([C@@:2]1([H:10])[C:3]([H:11])([H:12])[O:4][C:5]1=[O:6])([H:7])([H:8])[H:9]>>[C:1]([C+:2]=[C:5]([O:4][C:3]([H:10])([H:11])[H:12])[O-:6])([H:7])([H:8])[H:9]"
C        1.54853550      -0.47996777      -0.11446318
C        0.12648951      -0.60081579       0.27649386
C       -1.02769495       1.02418707       0.50421805
O       -1.67402762       0.39220517      -0.61878697
C       -0.88964629      -0.69290956      -0.77429721
O       -1.05155729      -1.65132074      -1.46971002
H        2.02726505       0.16709908       0.63062751
H        2.03316206      -1.45576847      -0.05819237
H        1.70863015      -0.03611575      -1.10044692
H       -0.56380338       0.03881098       1.42279648
H       -0.42183366       1.86684348       0.16404588
H       -1.81551910       1.42775231       1.13771489
12
Frame=15 idx=001322 GeodesicLength=0.8732415578450995 rxn_smarts="[C:1]([C@@:2]1([H:10])[C:3]([H:11])([H:12])[O:4][C:5]1=[O:6])([H:7])([H:8])[H:9]>>[C:1]([C+:2]=[C:5]([O:4][C:3]([H:10])([H:11])[H:12])[O-:6])([H:7])([H:8])[H:9]"
C        1.54793821      -0.48413822      -0.11859497
C        0.12357274      -0.59193980       0.27016221
C       -1.02176700       1.02142119       0.50854373
O       -1.66689596       0.40629761      -0.62845114
C       -0.89091435      -0.68314612      -0.78392659
O       -1.05751038      -1.64738808      -1.47003499
H        2.01218664       0.19820272       0.60487095
H        2.04720121      -1.44856469      -0.02135548
H        1.70884016      -0.07041395      -1.11732710
H       -0.57124962       0.00938567       1.43788456
H       -0.41774374       1.86974445       0.17863376
H       -1.81365792       1.42053921       1.13959507
12
Frame=16 idx=001322 GeodesicLength=0.9314857880613525 rxn_smarts="[C:1]([C@@:2]1([H:10])[C:3]([H:11])([H:12])[O:4][C:5]1=[O:6])([H:7])([H:8])[H:9]>>[C:1]([C+:2]=[C:5]([O:4][C:3]([H:10])([H:11])[H:12])[O-:6])([H:7])([H:8])[H:9]"
C        1.54726280      -0.48850128      -0.12221322
C        0.12058560      -0.58305082       0.26405962
C       -1.01587710       1.01880707       0.51275685
O       -1.65971173       0.42052304      -0.63786905
C       -0.89212476      -0.67315787      -0.79349423
O       -1.06333015      -1.64288204      -1.47061726
H        1.99706071       0.22862786       0.57739024
H        2.06116931      -1.43943819       0.01604028
H        1.70890683      -0.10603403      -1.13308033
H       -0.57837159      -0.02071175       1.45224860
H       -0.41388823       1.87274590       0.19305981
H       -1.81168169       1.41307212       1.14171871
