8
Frame=0 idx=003774 GeodesicLength=0.0 rxn_smarts="[n:1]1([H:6])[c:2]([H:7])[n:3][c:4]([H:8])[n:5]1>>[N:1]([C@@:2]1([H:7])[N:3]=[C:4]1[H:8])([N:5])[H:6]"
N       -0.68258233       0.77589633       0.06636683
C       -0.55872892      -0.56827947      -0.00304901
N        0.56604279      -0.97226838      -0.94380097
C        1.06525965      -0.19168100      -0.05280914
N        0.49445498       1.26170921      -0.14850933
H       -1.52289177       1.33963954       0.08569414
H       -1.25219362      -1.31375394       0.34470039
H        1.89063923      -0.33126232       0.65140712
8
Frame=1 idx=003774 GeodesicLength=0.04860825586997297 rxn_smarts="[n:1]1([H:6])[c:2]([H:7])[n:3][c:4]([H:8])[n:5]1>>[N:1]([C@@:2]1([H:7])[N:3]=[C:4]1[H:8])([N:5])[H:6]"
N       -0.68546923       0.77812291       0.05381763
C       -0.55734289      -0.56951232      -0.00674377
N        0.56489787      -0.97842151      -0.93419381
C        1.07059506      -0.19538474      -0.04759943
N        0.49110277       1.26986710      -0.14248277
H       -1.52931256       1.33604078       0.09188824
H       -1.25964384      -1.30733074       0.34066209
H        1.90517282      -0.33338149       0.64465181
8
Frame=2 idx=003774 GeodesicLength=0.09722075960404017 rxn_smarts="[n:1]1([H:6])[c:2]([H:7])[n:3][c:4]([H:8])[n:5]1>>[N:1]([C@@:2]1([H:7])[N:3]=[C:4]1[H:8])([N:5])[H:6]"
N       -0.68843280       0.78042117       0.03970782
C       -0.55603772      -0.57069994      -0.01064692
N        0.56406801      -0.98496013      -0.92414784
C        1.07584538      -0.19921551      -0.04202457
N        0.48756738       1.27805196      -0.13689976
H       -1.53536203       1.33223915       0.09980574
H       -1.26729095      -1.30067139       0.33621722
H        1.91964273      -0.33516531       0.63798829
8
Frame=3 idx=003774 GeodesicLength=0.14580275729245679 rxn_smarts="[n:1]1([H:6])[c:2]([H:7])[n:3][c:4]([H:8])[n:5]1>>[N:1]([C@@:2]1([H:7])[N:3]=[C:4]1[H:8])([N:5])[H:6]"
N       -0.69148357       0.78280049       0.02409646
C       -0.55483322      -0.57180620      -0.01475827
N        0.56346341      -0.99181855      -0.91368317
C        1.08096703      -0.20315904      -0.03606204
N        0.48378777       1.28626258      -0.13169596
H       -1.54086288       1.32810562       0.10931283
H       -1.27507683      -1.29375841       0.33139552
H        1.93403829      -0.33662648       0.63139463
8
Frame=4 idx=003774 GeodesicLength=0.19445246624450876 rxn_smarts="[n:1]1([H:6])[c:2]([H:7])[n:3][c:4]([H:8])[n:5]1>>[N:1]([C@@:2]1([H:7])[N:3]=[C:4]1[H:8])([N:5])[H:6]"
N       -0.69458602       0.78529587       0.00756064
C       -0.55374667      -0.57281229      -0.01893175
N        0.56292565      -0.99882639      -0.90289877
C        1.08596638      -0.20720730      -0.02973386
N        0.47974325       1.29455892      -0.12659051
H       -1.54579502       1.32353166       0.11963247
H       -1.28298708      -1.28665828       0.32630030
H        1.94847951      -0.33788218       0.62466149
8
Frame=5 idx=003774 GeodesicLength=0.24284340699659226 rxn_smarts="[n:1]1([H:6])[c:2]([H:7])[n:3][c:4]([H:8])[n:5]1>>[N:1]([C@@:2]1([H:7])[N:3]=[C:4]1[H:8])([N:5])[H:6]"
N       -0.69756956       0.78780535      -0.00844424
C       -0.55272687      -0.57369599      -0.02274895
N        0.56211522      -1.00545535      -0.89202973
C        1.09084390      -0.21136208      -0.02314159
N        0.47545281       1.30290039      -0.12075173
H       -1.55042778       1.31852908       0.12870073
H       -1.29087407      -1.27947540       0.32125560
H        1.96318636      -0.33924600       0.61715991
8
Frame=6 idx=003774 GeodesicLength=0.29130681699883043 rxn_smarts="[n:1]1([H:6])[c:2]([H:7])[n:3][c:4]([H:8])[n:5]1>>[N:1]([C@@:2]1([H:7])[N:3]=[C:4]1[H:8])([N:5])[H:6]"
N       -0.70041648       0.79046040      -0.02327685
C       -0.55176430      -0.57444891      -0.02605911
N        0.56088059      -1.01163803      -0.88125495
C        1.09565458      -0.21567696      -0.01630479
N        0.47090675       1.31137007      -0.11381786
H       -1.55499066       1.31310954       0.13563006
H       -1.29864775      -1.27227982       0.31641222
H        1.97837725      -0.34089629       0.60867129
8
Frame=7 idx=003774 GeodesicLength=0.339776474462514 rxn_smarts="[n:1]1([H:6])[c:2]([H:7])[n:3][c:4]([H:8])[n:5]1>>[N:1]([C@@:2]1([H:7])[N:3]=[C:4]1[H:8])([N:5])[H:6]"
N       -0.70305817       0.79317039      -0.03661928
C       -0.55082921      -0.57512545      -0.02877470
N        0.55921857      -1.01729570      -0.87061148
C        1.10045396      -0.22018833      -0.00924367
N        0.46615589       1.31993129      -0.10558906
H       -1.55976985       1.30754086       0.13998161
H       -1.30628603      -1.26515252       0.31184520
H        1.99411485      -0.34288054       0.59901138
8
Frame=8 idx=003774 GeodesicLength=0.38822083074726366 rxn_smarts="[n:1]1([H:6])[c:2]([H:7])[n:3][c:4]([H:8])[n:5]1>>[N:1]([C@@:2]1([H:7])[N:3]=[C:4]1[H:8])([N:5])[H:6]"
N       -0.70546548       0.79592729      -0.04870234
C       -0.54990704      -0.57573919      -0.03098104
N        0.55721475      -1.02251706      -0.86005495
C        1.10524479      -0.22491660      -0.00193559
N        0.46121671       1.32855551      -0.09621062
H       -1.56479284       1.30189150       0.14211204
H       -1.31377882      -1.25807890       0.30751419
H        2.01026794      -0.34512254       0.58825832
8
Frame=9 idx=003774 GeodesicLength=0.43666540470593745 rxn_smarts="[n:1]1([H:6])[c:2]([H:7])[n:3][c:4]([H:8])[n:5]1>>[N:1]([C@@:2]1([H:7])[N:3]=[C:4]1[H:8])([N:5])[H:6]"
N       -0.70767300       0.79874401      -0.05982356
C       -0.54900725      -0.57629866      -0.03275024
N        0.55497411      -1.02742578      -0.84949977
C        1.11003396      -0.22988461       0.00568985
N        0.45608036       1.33722283      -0.08583908
H       -1.57000839       1.29617963       0.14244653
H       -1.32119511      -1.25102286       0.30331427
H        2.02679531      -0.34751457       0.57646201
8
Frame=10 idx=003774 GeodesicLength=0.4850706292199284 rxn_smarts="[n:1]1([H:6])[c:2]([H:7])[n:3][c:4]([H:8])[n:5]1>>[N:1]([C@@:2]1([H:7])[N:3]=[C:4]1[H:8])([N:5])[H:6]"
N       -0.70966013       0.80158237      -0.07010189
C       -0.54812331      -0.57682724      -0.03409891
N        0.55254628      -1.03207260      -0.83887972
C        1.11481607      -0.23512020       0.01369125
N        0.45075154       1.34589821      -0.07451218
H       -1.57541083       1.29047724       0.14114835
H       -1.32857509      -1.24397996       0.29917542
H        2.04365547      -0.34995783       0.56357768
8
Frame=11 idx=003774 GeodesicLength=0.533482364779872 rxn_smarts="[n:1]1([H:6])[c:2]([H:7])[n:3][c:4]([H:8])[n:5]1>>[N:1]([C@@:2]1([H:7])[N:3]=[C:4]1[H:8])([N:5])[H:6]"
N       -0.71142922       0.80446419      -0.07969870
C       -0.54726090      -0.57732740      -0.03505664
N        0.54997951      -1.03652761      -0.82813819
C        1.11959464      -0.24064831       0.02213541
N        0.44522798       1.35457490      -0.06226835
H       -1.58097194       1.28477733       0.13840576
H       -1.33595656      -1.23693108       0.29504299
H        2.06081649      -0.35238203       0.54957772
8
Frame=12 idx=003774 GeodesicLength=0.5818724742023749 rxn_smarts="[n:1]1([H:6])[c:2]([H:7])[n:3][c:4]([H:8])[n:5]1>>[N:1]([C@@:2]1([H:7])[N:3]=[C:4]1[H:8])([N:5])[H:6]"
N       -0.71297680       0.80736079      -0.08871005
C       -0.54642188      -0.57781495      -0.03563502
N        0.54731993      -1.04084138      -0.81720369
C        1.12436306      -0.24650431       0.03109887
N        0.43950038       1.36321748      -0.04913816
H       -1.58663607       1.27911874       0.13435737
H       -1.34338530      -1.22985945       0.29083519
H        2.07823668      -0.35467692       0.53439549
8
Frame=13 idx=003774 GeodesicLength=0.6302521317001017 rxn_smarts="[n:1]1([H:6])[c:2]([H:7])[n:3][c:4]([H:8])[n:5]1>>[N:1]([C@@:2]1([H:7])[N:3]=[C:4]1[H:8])([N:5])[H:6]"
N       -0.71428062       0.81028914      -0.09722709
C       -0.54559331      -0.57828613      -0.03589294
N        0.54460046      -1.04503557      -0.80609060
C        1.12913226      -0.25269412       0.04057056
N        0.43356484       1.37182744      -0.03522511
H       -1.59235869       1.27349279       0.12917646
H       -1.35080729      -1.22276752       0.28657213
H        2.09574235      -0.35682603       0.51811660
8
Frame=14 idx=003774 GeodesicLength=0.6786247192247774 rxn_smarts="[n:1]1([H:6])[c:2]([H:7])[n:3][c:4]([H:8])[n:5]1>>[N:1]([C@@:2]1([H:7])[N:3]=[C:4]1[H:8])([N:5])[H:6]"
N       -0.71532813       0.81323727      -0.10530965
C       -0.54477497      -0.57875450      -0.03582985
N        0.54184388      -1.04914350      -0.79476114
C        1.13390657      -0.25924723       0.05060700
N        0.42742188       1.38038938      -0.02053284
H       -1.59808681       1.26791159       0.12293370
H       -1.35825539      -1.21565046       0.28220841
H        2.11327298      -0.35874254       0.50068438
8
Frame=15 idx=003774 GeodesicLength=0.7269913524682734 rxn_smarts="[n:1]1([H:6])[c:2]([H:7])[n:3][c:4]([H:8])[n:5]1>>[N:1]([C@@:2]1([H:7])[N:3]=[C:4]1[H:8])([N:5])[H:6]"
N       -0.71609696       0.81619945      -0.11299260
C       -0.54395314      -0.57922517      -0.03544029
N        0.53906949      -1.05318862      -0.78318911
C        1.13869647      -0.26619419       0.06123974
N        0.42106410       1.38888428      -0.00505271
H       -1.60378297       1.26238013       0.11566454
H       -1.36572949      -1.20849267       0.27771995
H        2.13073249      -0.36036322       0.48205049
8
Frame=16 idx=003774 GeodesicLength=0.7753434715669484 rxn_smarts="[n:1]1([H:6])[c:2]([H:7])[n:3][c:4]([H:8])[n:5]1>>[N:1]([C@@:2]1([H:7])[N:3]=[C:4]1[H:8])([N:5])[H:6]"
N       -0.71656369       0.81917392      -0.12030484
C       -0.54310171      -0.57970068      -0.03474666
N        0.53628821      -1.05717740      -0.77141356
C        1.14352762      -0.27353539       0.07241080
N        0.41449014       1.39731477       0.01110613
H       -1.60938275       1.25689276       0.10749484
H       -1.37317662      -1.20130286       0.27312148
H        2.14791879      -0.36166511       0.46233182
