14
Frame=0 idx=006036 GeodesicLength=0.0 rxn_smarts="[C:1]1([H:7])([H:8])[C:2]([H:9])([H:10])[C:3]([H:11])=[C:4]([H:12])[C:5]([H:13])([H:14])[O:6]1>>[C:1]([H:7])[H:8].[C:2]1([H:9])([H:10])[C:3]([H:11])=[C:4]([H:12])[C:5]([H:13])([H:14])[O:6]1"
C       -1.12271971      -1.23962180      -0.72713797
C       -1.15210596       0.55332848       0.43238148
C        0.03773333       1.44463574       0.32870076
C        1.22013005       0.88966688       0.12846572
C        1.17931512      -0.61208187       0.15172591
O       -0.17150838      -0.91277969       0.44037468
H       -1.18142423      -2.33227023      -0.75779192
H       -0.60134706      -0.88767325      -1.62638872
H       -1.92719461       0.83113168      -0.27002316
H       -1.57270395       0.39868498       1.42130087
H       -0.13009044       2.51569648       0.33387873
H        2.14288920       1.43558826      -0.01683320
H        1.79949354      -1.01443333       0.95899111
H        1.47953310      -1.06987228      -0.79764424
14
Frame=1 idx=006036 GeodesicLength=0.03250797866144638 rxn_smarts="[C:1]1([H:7])([H:8])[C:2]([H:9])([H:10])[C:3]([H:11])=[C:4]([H:12])[C:5]([H:13])([H:14])[O:6]1>>[C:1]([H:7])[H:8].[C:2]1([H:9])([H:10])[C:3]([H:11])=[C:4]([H:12])[C:5]([H:13])([H:14])[O:6]1"
C       -1.12129407      -1.23650048      -0.72149855
C       -1.15085659       0.54757627       0.42114478
C        0.03643572       1.44467813       0.32912385
C        1.21990516       0.89184870       0.12804724
C        1.18392122      -0.60982017       0.14586569
O       -0.16472526      -0.91896535       0.43895057
H       -1.20338800      -2.32775839      -0.73240590
H       -0.60190996      -0.90319031      -1.62892289
H       -1.92406199       0.83476789      -0.28075730
H       -1.58022410       0.39891112       1.40776230
H       -0.13028693       2.51560106       0.35221322
H        2.14377255       1.43977280      -0.00249543
H        1.80698569      -1.01549711       0.94900847
H        1.48572656      -1.06142415      -0.80603607
14
Frame=2 idx=006036 GeodesicLength=0.06496390741092775 rxn_smarts="[C:1]1([H:7])([H:8])[C:2]([H:9])([H:10])[C:3]([H:11])=[C:4]([H:12])[C:5]([H:13])([H:14])[O:6]1>>[C:1]([H:7])[H:8].[C:2]1([H:9])([H:10])[C:3]([H:11])=[C:4]([H:12])[C:5]([H:13])([H:14])[O:6]1"
C       -1.11974533      -1.23350172      -0.71585657
C       -1.14945819       0.54190584       0.40988911
C        0.03512369       1.44467018       0.32930789
C        1.21962591       0.89398463       0.12766227
C        1.18840019      -0.60748710       0.13993803
O       -0.15793331      -0.92502105       0.43745194
H       -1.22500568      -2.32252410      -0.70691888
H       -0.60274726      -0.91894818      -1.63123657
H       -1.92074905       0.83815811      -0.29151897
H       -1.58748053       0.39926086       1.39411897
H       -0.13055676       2.51507978       0.37051890
H        2.14446375       1.44369726       0.01227099
H        1.81435332      -1.01647827       0.93887628
H        1.49170925      -1.05279624      -0.81450341
14
Frame=3 idx=006036 GeodesicLength=0.09748052984204195 rxn_smarts="[C:1]1([H:7])([H:8])[C:2]([H:9])([H:10])[C:3]([H:11])=[C:4]([H:12])[C:5]([H:13])([H:14])[O:6]1>>[C:1]([H:7])[H:8].[C:2]1([H:9])([H:10])[C:3]([H:11])=[C:4]([H:12])[C:5]([H:13])([H:14])[O:6]1"
C       -1.11798406      -1.23055590      -0.71040873
C       -1.14800611       0.53624629       0.39876397
C        0.03378066       1.44465083       0.32955739
C        1.21936569       0.89612087       0.12744567
C        1.19289022      -0.60515498       0.13407622
O       -0.15112704      -0.93112297       0.43584437
H       -1.24677879      -2.31634760      -0.68145757
H       -0.60357091      -0.93487216      -1.63341582
H       -1.91738106       0.84135176      -0.30213783
H       -1.59462710       0.39949723       1.38050398
H       -0.13101471       2.51426066       0.38844143
H        2.14499061       1.44747478       0.02686769
H        1.82168779      -1.01747244       0.92880288
H        1.49777480      -1.04407636      -0.82288366
14
Frame=4 idx=006036 GeodesicLength=0.12989591939294623 rxn_smarts="[C:1]1([H:7])([H:8])[C:2]([H:9])([H:10])[C:3]([H:11])=[C:4]([H:12])[C:5]([H:13])([H:14])[O:6]1>>[C:1]([H:7])[H:8].[C:2]1([H:9])([H:10])[C:3]([H:11])=[C:4]([H:12])[C:5]([H:13])([H:14])[O:6]1"
C       -1.11617198      -1.22768655      -0.70500800
C       -1.14650921       0.53067649       0.38777098
C        0.03242178       1.44463590       0.32975066
C        1.21911753       0.89821112       0.12740139
C        1.19730908      -0.60284783       0.12827353
O       -0.14437597      -0.93721709       0.43419459
H       -1.26806142      -2.30962296      -0.65624878
H       -0.60459480      -0.95073263      -1.63536889
H       -1.91400595       0.84441689      -0.31260285
H       -1.60164490       0.39977581       1.36695054
H       -0.13158700       2.51318292       0.40592487
H        2.14540971       1.45101847       0.04141676
H        1.82893410      -1.01853006       0.91874412
H        1.50375904      -1.03528045      -0.83119892
14
Frame=5 idx=006036 GeodesicLength=0.1623104370486412 rxn_smarts="[C:1]1([H:7])([H:8])[C:2]([H:9])([H:10])[C:3]([H:11])=[C:4]([H:12])[C:5]([H:13])([H:14])[O:6]1>>[C:1]([H:7])[H:8].[C:2]1([H:9])([H:10])[C:3]([H:11])=[C:4]([H:12])[C:5]([H:13])([H:14])[O:6]1"
C       -1.11411310      -1.22476609      -0.69983683
C       -1.14491873       0.52506646       0.37703866
C        0.03103049       1.44450596       0.33008333
C        1.21882688       0.90019740       0.12763881
C        1.20166375      -0.60056882       0.12267442
O       -0.13764518      -0.94335923       0.43246949
H       -1.28915399      -2.30175809      -0.63144670
H       -0.60563320      -0.96643461      -1.63713652
H       -1.91055914       0.84722082      -0.32273400
H       -1.60840453       0.39989775       1.35358177
H       -0.13238494       2.51171906       0.42258810
H        2.14552643       1.45430752       0.05539957
H        1.83599870      -1.01958374       0.90893568
H        1.50976654      -1.02644438      -0.83925578
14
Frame=6 idx=006036 GeodesicLength=0.19463469610650028 rxn_smarts="[C:1]1([H:7])([H:8])[C:2]([H:9])([H:10])[C:3]([H:11])=[C:4]([H:12])[C:5]([H:13])([H:14])[O:6]1>>[C:1]([H:7])[H:8].[C:2]1([H:9])([H:10])[C:3]([H:11])=[C:4]([H:12])[C:5]([H:13])([H:14])[O:6]1"
C       -1.11196976      -1.22187207      -0.69480141
C       -1.14331271       0.51950238       0.36654165
C        0.02961422       1.44436071       0.33048626
C        1.21854797       0.90211547       0.12809922
C        1.20597451      -0.59836043       0.11721804
O       -0.13098388      -0.94956987       0.43068871
H       -1.30981601      -2.29324150      -0.60706261
H       -0.60676995      -0.98192798      -1.63871088
H       -1.90716895       0.84990078      -0.33256726
H       -1.61504914       0.39995511       1.34039515
H       -0.13333746       2.51007846       0.43853844
H        2.14553034       1.45739866       0.06902961
H        1.84295141      -1.02072832       0.89928182
H        1.51578942      -1.01761139      -0.84713675
14
Frame=7 idx=006036 GeodesicLength=0.2269662646287421 rxn_smarts="[C:1]1([H:7])([H:8])[C:2]([H:9])([H:10])[C:3]([H:11])=[C:4]([H:12])[C:5]([H:13])([H:14])[O:6]1>>[C:1]([H:7])[H:8].[C:2]1([H:9])([H:10])[C:3]([H:11])=[C:4]([H:12])[C:5]([H:13])([H:14])[O:6]1"
C       -1.10972616      -1.21908187      -0.68986231
C       -1.14168989       0.51397992       0.35618226
C        0.02816593       1.44422060       0.33087721
C        1.21828651       0.90400338       0.12868816
C        1.21027258      -0.59619206       0.11182646
O       -0.12435102      -0.95583946       0.42884285
H       -1.33024155      -2.28395745      -0.58290505
H       -0.60803956      -0.99747898      -1.64008289
H       -1.90379286       0.85242426      -0.34225045
H       -1.62160797       0.39998034       1.32727776
H       -0.13443241       2.50827474       0.45412033
H        2.14544671       1.46034475       0.08253508
H        1.84986648      -1.02192806       0.88967827
H        1.52184322      -1.00875010      -0.85492768
14
Frame=8 idx=006036 GeodesicLength=0.2591983033294284 rxn_smarts="[C:1]1([H:7])([H:8])[C:2]([H:9])([H:10])[C:3]([H:11])=[C:4]([H:12])[C:5]([H:13])([H:14])[O:6]1>>[C:1]([H:7])[H:8].[C:2]1([H:9])([H:10])[C:3]([H:11])=[C:4]([H:12])[C:5]([H:13])([H:14])[O:6]1"
C       -1.10745015      -1.21635087      -0.68492404
C       -1.13998586       0.50854521       0.34590853
C        0.02670995       1.44404557       0.33116310
C        1.21798070       0.90581597       0.12936980
C        1.21444696      -0.59401323       0.10645138
O       -0.11776240      -0.96204281       0.42695448
H       -1.35007420      -2.27423583      -0.55893421
H       -0.60953498      -1.01298801      -1.64122117
H       -1.90034330       0.85479929      -0.35185921
H       -1.62797940       0.40008930       1.31418103
H       -0.13558206       2.50620733       0.46940951
H        2.14522658       1.46303498       0.09615126
H        1.85664617      -1.02311422       0.88003742
H        1.52770198      -0.99979267      -0.86268789
14
Frame=9 idx=006036 GeodesicLength=0.2914802451507094 rxn_smarts="[C:1]1([H:7])([H:8])[C:2]([H:9])([H:10])[C:3]([H:11])=[C:4]([H:12])[C:5]([H:13])([H:14])[O:6]1>>[C:1]([H:7])[H:8].[C:2]1([H:9])([H:10])[C:3]([H:11])=[C:4]([H:12])[C:5]([H:13])([H:14])[O:6]1"
C       -1.10497307      -1.21361339      -0.68017550
C       -1.13822245       0.50305805       0.33590389
C        0.02521522       1.44375279       0.33160089
C        1.21762850       0.90751073       0.13029115
C        1.21856818      -0.59189262       0.10127624
O       -0.11120303      -0.96833315       0.42500229
H       -1.36961426      -2.26339858      -0.53544842
H       -0.61109162      -1.02831003      -1.64217163
H       -1.89686770       0.85693585      -0.36113457
H       -1.63414331       0.40002751       1.30129595
H       -0.13693098       2.50389404       0.48390131
H        2.14476857       1.46552508       0.10919645
H        1.86326984      -1.02430939       0.87064737
H        1.53359611      -0.99084687      -0.87018543
14
Frame=10 idx=006036 GeodesicLength=0.3236582998842696 rxn_smarts="[C:1]1([H:7])([H:8])[C:2]([H:9])([H:10])[C:3]([H:11])=[C:4]([H:12])[C:5]([H:13])([H:14])[O:6]1>>[C:1]([H:7])[H:8].[C:2]1([H:9])([H:10])[C:3]([H:11])=[C:4]([H:12])[C:5]([H:13])([H:14])[O:6]1"
C       -1.10246656      -1.21089790      -0.67552686
C       -1.13646159       0.49762028       0.32614562
C        0.02369946       1.44343941       0.33212062
C        1.21727271       0.90911821       0.13140139
C        1.22263263      -0.58985645       0.09625074
O       -0.10472971      -0.97470086       0.42300724
H       -1.38856700      -2.25207696      -0.51248591
H       -0.61279302      -1.04334742      -1.64292187
H       -1.89346889       0.85898021      -0.37010713
H       -1.64020268       0.39992016       1.28861837
H       -0.13839936       2.50150710       0.49768406
H        2.14423339       1.46783644       0.12187169
H        1.86977178      -1.02559743       0.86142893
H        1.53947885      -0.98194479      -0.87748688
14
Frame=11 idx=006036 GeodesicLength=0.35580859701077333 rxn_smarts="[C:1]1([H:7])([H:8])[C:2]([H:9])([H:10])[C:3]([H:11])=[C:4]([H:12])[C:5]([H:13])([H:14])[O:6]1>>[C:1]([H:7])[H:8].[C:2]1([H:9])([H:10])[C:3]([H:11])=[C:4]([H:12])[C:5]([H:13])([H:14])[O:6]1"
C       -1.09990602      -1.20824057      -0.67093368
C       -1.13467409       0.49222716       0.31654608
C        0.02215934       1.44309106       0.33263910
C        1.21689225       0.91064567       0.13263772
C        1.22662982      -0.58786203       0.09131542
O       -0.09830848      -0.98109808       0.42096776
H       -1.40700743      -2.24017689      -0.48987895
H       -0.61467568      -1.05826992      -1.64346056
H       -1.89007219       0.86088767      -0.37890960
H       -1.64613994       0.39980445       1.27604542
H       -0.13995937       2.49898248       0.51103807
H        2.14358940       1.46996120       0.13435542
H        1.87616920      -1.02691519       0.85229477
H        1.54530319      -0.97303699      -0.88465697
14
Frame=12 idx=006036 GeodesicLength=0.38793677659198683 rxn_smarts="[C:1]1([H:7])([H:8])[C:2]([H:9])([H:10])[C:3]([H:11])=[C:4]([H:12])[C:5]([H:13])([H:14])[O:6]1>>[C:1]([H:7])[H:8].[C:2]1([H:9])([H:10])[C:3]([H:11])=[C:4]([H:12])[C:5]([H:13])([H:14])[O:6]1"
C       -1.09731664      -1.20569683      -0.66637553
C       -1.13287341       0.48689534       0.30704974
C        0.02060123       1.44274430       0.33312085
C        1.21651030       0.91212366       0.13397367
C        1.23057393      -0.58589759       0.08641126
O       -0.09193394      -0.98751382       0.41887693
H       -1.42497638      -2.22773008      -0.46748762
H       -0.61677024      -1.07322348      -1.64379270
H       -1.88666701       0.86266510      -0.38763829
H       -1.65201288       0.39972588       1.26351614
H       -0.14159977       2.49634022       0.52415167
H        2.14289445       1.47193728       0.14681731
H        1.88250344      -1.02826287       0.84315649
H        1.55106693      -0.96410711      -0.89177992
14
Frame=13 idx=006036 GeodesicLength=0.4200744261572385 rxn_smarts="[C:1]1([H:7])([H:8])[C:2]([H:9])([H:10])[C:3]([H:11])=[C:4]([H:12])[C:5]([H:13])([H:14])[O:6]1>>[C:1]([H:7])[H:8].[C:2]1([H:9])([H:10])[C:3]([H:11])=[C:4]([H:12])[C:5]([H:13])([H:14])[O:6]1"
C       -1.09470778      -1.20324496      -0.66177601
C       -1.13102610       0.48164142       0.29760929
C        0.01902377       1.44238725       0.33349888
C        1.21609128       0.91354503       0.13533970
C        1.23443745      -0.58393698       0.08149970
O       -0.08558541      -0.99390439       0.41675206
H       -1.44241073      -2.21485526      -0.44527156
H       -0.61910109      -1.08819315      -1.64385717
H       -1.88320163       0.86432622      -0.39636281
H       -1.65777897       0.39972495       1.25096810
H       -0.14328384       2.49353235       0.53711189
H        2.14208538       1.47370918       0.15942272
H        1.88877189      -1.02961843       0.83394944
H        1.55668577      -0.95511324      -0.89888421
14
Frame=14 idx=006036 GeodesicLength=0.4522459795253604 rxn_smarts="[C:1]1([H:7])([H:8])[C:2]([H:9])([H:10])[C:3]([H:11])=[C:4]([H:12])[C:5]([H:13])([H:14])[O:6]1>>[C:1]([H:7])[H:8].[C:2]1([H:9])([H:10])[C:3]([H:11])=[C:4]([H:12])[C:5]([H:13])([H:14])[O:6]1"
C       -1.09202658      -1.20078183      -0.65727229
C       -1.12915903       0.47639271       0.28839947
C        0.01741297       1.44194686       0.33397176
C        1.21561421       0.91484263       0.13688768
C        1.23821234      -0.58204736       0.07673544
O       -0.07929585      -1.00035673       0.41457570
H       -1.45921358      -2.20134599      -0.42352384
H       -0.62160594      -1.10287766      -1.64373435
H       -1.87975711       0.86585854      -0.40481289
H       -1.66338923       0.39962503       1.23860467
H       -0.14506155       2.49061356       0.54937062
H        2.14113939       1.47529200       0.17166186
H        1.89487973      -1.03102798       0.82491421
H        1.56225022      -0.94613378      -0.90577805
14
Frame=15 idx=006036 GeodesicLength=0.4843375497022719 rxn_smarts="[C:1]1([H:7])([H:8])[C:2]([H:9])([H:10])[C:3]([H:11])=[C:4]([H:12])[C:5]([H:13])([H:14])[O:6]1>>[C:1]([H:7])[H:8].[C:2]1([H:9])([H:10])[C:3]([H:11])=[C:4]([H:12])[C:5]([H:13])([H:14])[O:6]1"
C       -1.08934929      -1.19836313      -0.65281358
C       -1.12728962       0.47119853       0.27939450
C        0.01579276       1.44148569       0.33449970
C        1.21512504       0.91605507       0.13855537
C        1.24192268      -0.58022049       0.07207505
O       -0.07308667      -1.00685881       0.41236101
H       -1.47539308      -2.18748833      -0.40226417
H       -0.62431082      -1.11733239      -1.64341200
H       -1.87635508       0.86730081      -0.41303593
H       -1.66890571       0.39953161       1.22641370
H       -0.14692527       2.48767199       0.56106566
H        2.14012906       1.47670809       0.18369873
H        1.90087885      -1.03248439       0.81598731
H        1.56776715      -0.93720425      -0.91252536
14
Frame=16 idx=006036 GeodesicLength=0.5164217507120256 rxn_smarts="[C:1]1([H:7])([H:8])[C:2]([H:9])([H:10])[C:3]([H:11])=[C:4]([H:12])[C:5]([H:13])([H:14])[O:6]1>>[C:1]([H:7])[H:8].[C:2]1([H:9])([H:10])[C:3]([H:11])=[C:4]([H:12])[C:5]([H:13])([H:14])[O:6]1"
C       -1.08666671      -1.19600114      -0.64836878
C       -1.12540842       0.46606134       0.27052651
C        0.01415596       1.44100114       0.33502993
C        1.21460616       0.91718933       0.14030671
C        1.24555728      -0.57843505       0.06747360
O       -0.06693492      -1.01338204       0.41010462
H       -1.49095398      -2.17325318      -0.38134004
H       -0.62724478      -1.13165809      -1.64287744
H       -1.87295086       0.86864720      -0.42113998
H       -1.67433565       0.39946346       1.21430734
H       -0.14884119       2.48466609       0.57239548
H        2.13904088       1.47795295       0.19565517
H        1.90677945      -1.03397189       0.80710028
H        1.57319677      -0.92828013      -0.91917340
