15
Frame=0 idx=010621 GeodesicLength=0.0 rxn_smarts="[O:1]=[C:2]1[C:3]([H:8])([H:9])[C:4]([H:10])([H:11])[C@@:5]2([H:12])[C:6]([H:13])([H:14])[C@@:7]12[H:15]>>[O:1]([C+:2]1[C:3]([H:8])([H:9])[C:4]([H:10])([H:11])[C-:5]2[C:6]([H:13])([H:14])[C@@:7]12[H:15])[H:12]"
O       -0.17942673       1.39508489       1.54288231
C       -0.12443147       1.10844386       0.27194832
C       -1.34870263       0.54516409      -0.40163080
C       -0.96935363      -0.83844648       0.13281867
C        0.56125072      -0.64283967       0.53756465
C        1.38940752      -0.65417283      -0.72282488
C        1.16894476       0.70337550      -0.14949467
H       -1.32078220       0.63404030      -1.48516752
H       -2.26873244       0.96321082      -0.00565516
H       -1.53724028      -1.09672454       1.02304220
H       -1.06691718      -1.63838008      -0.59880498
H        0.39997865       0.31244100       1.72528175
H        0.89922396      -0.95382271      -1.64601445
H        2.42622487      -0.96334522      -0.66451504
H        1.97055601       1.12597103       0.44056954
15
Frame=1 idx=010621 GeodesicLength=0.093493809325162 rxn_smarts="[O:1]=[C:2]1[C:3]([H:8])([H:9])[C:4]([H:10])([H:11])[C@@:5]2([H:12])[C:6]([H:13])([H:14])[C@@:7]12[H:15]>>[O:1]([C+:2]1[C:3]([H:8])([H:9])[C:4]([H:10])([H:11])[C-:5]2[C:6]([H:13])([H:14])[C@@:7]12[H:15])[H:12]"
O       -0.18363798       1.41632717       1.53711536
C       -0.12442738       1.12093791       0.26942457
C       -1.34355674       0.54081840      -0.40122819
C       -0.96660651      -0.84457508       0.13167451
C        0.56089739      -0.65368852       0.53854638
C        1.38527188      -0.65660210      -0.72191042
C        1.16736166       0.70008230      -0.14289460
H       -1.31717602       0.63270849      -1.48474354
H       -2.26575479       0.95585517      -0.00656434
H       -1.53802471      -1.10082661       1.02053671
H       -1.07217699      -1.64485141      -0.59870367
H        0.40404803       0.31347506       1.73985488
H        0.89714065      -0.93405819      -1.65332580
H        2.42136967      -0.96866142      -0.66632784
H        1.97527185       1.12305884       0.43854598
15
Frame=2 idx=010621 GeodesicLength=0.18691764484305634 rxn_smarts="[O:1]=[C:2]1[C:3]([H:8])([H:9])[C:4]([H:10])([H:11])[C@@:5]2([H:12])[C:6]([H:13])([H:14])[C@@:7]12[H:15]>>[O:1]([C+:2]1[C:3]([H:8])([H:9])[C:4]([H:10])([H:11])[C-:5]2[C:6]([H:13])([H:14])[C@@:7]12[H:15])[H:12]"
O       -0.18793252       1.43799359       1.53089866
C       -0.12438230       1.13354897       0.26660311
C       -1.33833187       0.53649573      -0.40070659
C       -0.96388970      -0.85078514       0.13046579
C        0.56056219      -0.66486506       0.53938504
C        1.38112919      -0.65895566      -0.72110002
C        1.16569588       0.69667994      -0.13602574
H       -1.31371967       0.63134932      -1.48420784
H       -2.26265003       0.94854559      -0.00730021
H       -1.53878269      -1.10499181       1.01799012
H       -1.07756863      -1.65126562      -0.59871827
H        0.40818501       0.31430809       1.75467197
H        0.89525882      -0.91431140      -1.66023368
H        2.41652939      -0.97380709      -0.66831500
H        1.97989691       1.12006055       0.43659268
15
Frame=3 idx=010621 GeodesicLength=0.280302724388405 rxn_smarts="[O:1]=[C:2]1[C:3]([H:8])([H:9])[C:4]([H:10])([H:11])[C@@:5]2([H:12])[C:6]([H:13])([H:14])[C@@:7]12[H:15]>>[O:1]([C+:2]1[C:3]([H:8])([H:9])[C:4]([H:10])([H:11])[C-:5]2[C:6]([H:13])([H:14])[C@@:7]12[H:15])[H:12]"
O       -0.19231265       1.46012475       1.52419194
C       -0.12428916       1.14627603       0.26346773
C       -1.33302588       0.53219446      -0.40006098
C       -0.96120488      -0.85708024       0.12919249
C        0.56024495      -0.67638654       0.54007159
C        1.37698356      -0.66123010      -0.72038995
C        1.16394169       0.69315905      -0.12886765
H       -1.31041934       0.62995468      -1.48355581
H       -2.25941317       0.94128400      -0.00785288
H       -1.53951259      -1.10922077       1.01540611
H       -1.08309757      -1.65762221      -0.59884952
H        0.41239503       0.31491292       1.76975098
H        0.89357589      -0.89456499      -1.66674546
H        2.41170952      -0.97877367      -0.67047708
H        1.98442460       1.11697264       0.43471847
15
Frame=4 idx=010621 GeodesicLength=0.3736738578544565 rxn_smarts="[O:1]=[C:2]1[C:3]([H:8])([H:9])[C:4]([H:10])([H:11])[C@@:5]2([H:12])[C:6]([H:13])([H:14])[C@@:7]12[H:15]>>[O:1]([C+:2]1[C:3]([H:8])([H:9])[C:4]([H:10])([H:11])[C-:5]2[C:6]([H:13])([H:14])[C@@:7]12[H:15])[H:12]"
O       -0.19678359       1.48276182       1.51695579
C       -0.12414153       1.15911871       0.26000285
C       -1.32763657       0.52791338      -0.39928629
C       -0.95855306      -0.86346296       0.12785414
C        0.55994627      -0.68826910       0.54059598
C        1.37284133      -0.66342104      -0.71977485
C        1.16209435       0.68951238      -0.12139926
H       -1.30728049       0.62851798      -1.48278273
H       -2.25603996       0.93407146      -0.00821309
H       -1.54021135      -1.11351367       1.01278829
H       -1.08876907      -1.66391982      -0.59909825
H        0.41668507       0.31526016       1.78511126
H        0.89208233      -0.87481002      -1.67287504
H        2.40691796      -0.98355240      -0.67281341
H        1.98884832       1.11379313       0.43293463
15
Frame=5 idx=010621 GeodesicLength=0.46705427298941976 rxn_smarts="[O:1]=[C:2]1[C:3]([H:8])([H:9])[C:4]([H:10])([H:11])[C@@:5]2([H:12])[C:6]([H:13])([H:14])[C@@:7]12[H:15]>>[O:1]([C+:2]1[C:3]([H:8])([H:9])[C:4]([H:10])([H:11])[C-:5]2[C:6]([H:13])([H:14])[C@@:7]12[H:15])[H:12]"
O       -0.20134425       1.50595088       1.50913828
C       -0.12392980       1.17207444       0.25618698
C       -1.32216200       0.52365149      -0.39837536
C       -0.95593653      -0.86993759       0.12644939
C        0.55966553      -0.70053379       0.54094547
C        1.36870628      -0.66552206      -0.71925258
C        1.16014523       0.68572847      -0.11359593
H       -1.30431327       0.62703141      -1.48188146
H       -2.25252405       0.92691138      -0.00836527
H       -1.54087680      -1.11787260       1.01013955
H       -1.09459039      -1.67015677      -0.59946756
H        0.42105963       0.31531690       1.80077335
H        0.89078066      -0.85502923      -1.67862157
H        2.40216065      -0.98813039      -0.67532330
H        1.99315911       1.11051748       0.43125000
15
Frame=6 idx=010621 GeodesicLength=0.5604668579872765 rxn_smarts="[O:1]=[C:2]1[C:3]([H:8])([H:9])[C:4]([H:10])([H:11])[C@@:5]2([H:12])[C:6]([H:13])([H:14])[C@@:7]12[H:15]>>[O:1]([C+:2]1[C:3]([H:8])([H:9])[C:4]([H:10])([H:11])[C-:5]2[C:6]([H:13])([H:14])[C@@:7]12[H:15])[H:12]"
O       -0.20599519       1.52974167       1.50068421
C       -0.12364470       1.18514089       0.25199779
C       -1.31660047       0.51940714      -0.39732168
C       -0.95335717      -0.87650780       0.12497758
C        0.55940189      -0.71319937       0.54110906
C        1.36458352      -0.66752924      -0.71881640
C        1.15808660       0.68179669      -0.10543309
H       -1.30152760       0.62548602      -1.48084516
H       -2.24885929       0.91980580      -0.00829481
H       -1.54150682      -1.12229953       1.00746321
H       -1.10056744      -1.67633134      -0.59995966
H        0.42552679       0.31504531       1.81676060
H        0.88966742      -0.83520112      -1.68399251
H        2.39744467      -0.99249666      -0.67800586
H        1.99734779       1.10714154       0.42967670
15
Frame=7 idx=010621 GeodesicLength=0.6539065911202294 rxn_smarts="[O:1]=[C:2]1[C:3]([H:8])([H:9])[C:4]([H:10])([H:11])[C@@:5]2([H:12])[C:6]([H:13])([H:14])[C@@:7]12[H:15]>>[O:1]([C+:2]1[C:3]([H:8])([H:9])[C:4]([H:10])([H:11])[C-:5]2[C:6]([H:13])([H:14])[C@@:7]12[H:15])[H:12]"
O       -0.21073434       1.55417895       1.49154002
C       -0.12327587       1.19831572       0.24741172
C       -1.31095009       0.51517967      -0.39611764
C       -0.95081701      -0.88317718       0.12343609
C        0.55915512      -0.72628596       0.54107203
C        1.36047852      -0.66943535      -0.71846205
C        1.15590905       0.67770671      -0.09688423
H       -1.29893515       0.62387503      -1.47966618
H       -2.24503908       0.91275862      -0.00798388
H       -1.54209819      -1.12679722       1.00476119
H       -1.10670714      -1.68244066      -0.60057869
H        0.43009051       0.31441012       1.83309585
H        0.88874148      -0.81531420      -1.68898894
H        2.39277785      -0.99663671      -0.68085811
H        2.00140433       1.10366246       0.42822282
15
Frame=8 idx=010621 GeodesicLength=0.747398216680132 rxn_smarts="[O:1]=[C:2]1[C:3]([H:8])([H:9])[C:4]([H:10])([H:11])[C@@:5]2([H:12])[C:6]([H:13])([H:14])[C@@:7]12[H:15]>>[O:1]([C+:2]1[C:3]([H:8])([H:9])[C:4]([H:10])([H:11])[C-:5]2[C:6]([H:13])([H:14])[C@@:7]12[H:15])[H:12]"
O       -0.21555822       1.57932490       1.48163033
C       -0.12281113       1.21159414       0.24240259
C       -1.30520951       0.51096776      -0.39475360
C       -0.94831819      -0.88995075       0.12182268
C        0.55892417      -0.73981677       0.54081883
C        1.35639703      -0.67123305      -0.71818357
C        1.15360186       0.67344516      -0.08791907
H       -1.29655072       0.62219002      -1.47833411
H       -2.24105536       0.90577285      -0.00741019
H       -1.54264792      -1.13137015       1.00203579
H       -1.11301663      -1.68848172      -0.60133010
H        0.43475829       0.31336411       1.84980611
H        0.88800173      -0.79534680      -1.69361232
H        2.38816826      -1.00053359      -0.68387742
H        2.00531635       1.10007390       0.42690405
15
Frame=9 idx=010621 GeodesicLength=0.8409231084543036 rxn_smarts="[O:1]=[C:2]1[C:3]([H:8])([H:9])[C:4]([H:10])([H:11])[C@@:5]2([H:12])[C:6]([H:13])([H:14])[C@@:7]12[H:15]>>[O:1]([C+:2]1[C:3]([H:8])([H:9])[C:4]([H:10])([H:11])[C-:5]2[C:6]([H:13])([H:14])[C@@:7]12[H:15])[H:12]"
O       -0.22046137       1.60522685       1.47089101
C       -0.12223729       1.22497296       0.23694004
C       -1.29937734       0.50677105      -0.39322126
C       -0.94586359      -0.89683178       0.12013430
C        0.55870718      -0.75381184       0.54033399
C        1.35234394      -0.67291284      -0.71797496
C        1.15115217       0.66900075      -0.07850711
H       -1.29439066       0.62042252      -1.47684026
H       -2.23690032       0.89885382      -0.00655169
H       -1.54315329      -1.13602137       0.99928860
H       -1.11950302      -1.69445072      -0.60221879
H        0.43953751       0.31186038       1.86691813
H        0.88745169      -0.77528275      -1.69786035
H        2.38362363      -1.00417063      -0.68705723
H        2.00907075       1.09637360       0.42572558
15
Frame=10 idx=010621 GeodesicLength=0.9345056912271743 rxn_smarts="[O:1]=[C:2]1[C:3]([H:8])([H:9])[C:4]([H:10])([H:11])[C@@:5]2([H:12])[C:6]([H:13])([H:14])[C@@:7]12[H:15]>>[O:1]([C+:2]1[C:3]([H:8])([H:9])[C:4]([H:10])([H:11])[C-:5]2[C:6]([H:13])([H:14])[C@@:7]12[H:15])[H:12]"
O       -0.22543536       1.63195893       1.45922223
C       -0.12153976       1.23844418       0.23099239
C       -1.29345288       0.50258813      -0.39150841
C       -0.94345609      -0.90382644       0.11836740
C        0.55850251      -0.76829726       0.53959700
C        1.34832556      -0.67446503      -0.71782851
C        1.14854612       0.66435813      -0.06861327
H       -1.29247481       0.61856372      -1.47517032
H       -2.23256436       0.89200570      -0.00537807
H       -1.54361001      -1.14075832       0.99652150
H       -1.12617524      -1.70034355      -0.60325222
H        0.44443709       0.30983943       1.88446473
H        0.88709239      -0.75509402      -1.70172931
H        2.37915398      -1.00752727      -0.69039297
H        2.01265087       1.09255367       0.42470783
15
Frame=11 idx=010621 GeodesicLength=1.0281302853685403 rxn_smarts="[O:1]=[C:2]1[C:3]([H:8])([H:9])[C:4]([H:10])([H:11])[C@@:5]2([H:12])[C:6]([H:13])([H:14])[C@@:7]12[H:15]>>[O:1]([C+:2]1[C:3]([H:8])([H:9])[C:4]([H:10])([H:11])[C-:5]2[C:6]([H:13])([H:14])[C@@:7]12[H:15])[H:12]"
O       -0.23047166       1.65958368       1.44653326
C       -0.12070282       1.25200101       0.22452468
C       -1.28743543       0.49841856      -0.38960330
C       -0.94109833      -0.91093913       0.11651780
C        0.55830834      -0.78329496       0.53858804
C        1.34434829      -0.67587869      -0.71773600
C        1.14576859       0.65950460      -0.05820211
H       -1.29082408       0.61660523      -1.47331199
H       -2.22803744       0.88523436      -0.00385861
H       -1.54401426      -1.14558747       0.99373523
H       -1.13304085      -1.70615510      -0.60443808
H        0.44946655       0.30724178       1.90247889
H        0.88692504      -0.73476186      -1.70521628
H        2.37476853      -1.01058125      -0.69387695
H        2.01603953       1.08860925       0.42386542
15
Frame=12 idx=010621 GeodesicLength=1.1217966886039692 rxn_smarts="[O:1]=[C:2]1[C:3]([H:8])([H:9])[C:4]([H:10])([H:11])[C@@:5]2([H:12])[C:6]([H:13])([H:14])[C@@:7]12[H:15]>>[O:1]([C+:2]1[C:3]([H:8])([H:9])[C:4]([H:10])([H:11])[C-:5]2[C:6]([H:13])([H:14])[C@@:7]12[H:15])[H:12]"
O       -0.23555492       1.68817643       1.43270988
C       -0.11970755       1.26563421       0.21749570
C       -1.28132490       0.49426149      -0.38749241
C       -0.93879417      -0.91817561       0.11458039
C        0.55812172      -0.79883150       0.53728287
C        1.34041887      -0.67713967      -0.71768752
C        1.14279981       0.65442394      -0.04723271
H       -1.28946568       0.61453724      -1.47124926
H       -2.22330777       0.87854669      -0.00195526
H       -1.54436174      -1.15051683       0.99093067
H       -1.14010973      -1.71187989      -0.60578550
H        0.45463738       0.30399388       1.92099784
H        0.88695560      -0.71425785      -1.70831179
H        2.37047867      -1.01330601      -0.69749874
H        2.01921441       1.08453349       0.42321585
15
Frame=13 idx=010621 GeodesicLength=1.2154732603776237 rxn_smarts="[O:1]=[C:2]1[C:3]([H:8])([H:9])[C:4]([H:10])([H:11])[C@@:5]2([H:12])[C:6]([H:13])([H:14])[C@@:7]12[H:15]>>[O:1]([C+:2]1[C:3]([H:8])([H:9])[C:4]([H:10])([H:11])[C-:5]2[C:6]([H:13])([H:14])[C@@:7]12[H:15])[H:12]"
O       -0.24066908       1.71780661       1.41763791
C       -0.11853400       1.27933407       0.20986128
C       -1.27512136       0.49011752      -0.38516104
C       -0.93654662      -0.92554048       0.11254861
C        0.55794036      -0.81493032       0.53565526
C        1.33654554      -0.67823304      -0.71767277
C        1.13961921       0.64910243      -0.03566386
H       -1.28842923       0.61235142      -1.46896505
H       -2.21836176       0.87195093       0.00037391
H       -1.54464713      -1.15555580       0.98810687
H       -1.14739076      -1.71751047      -0.60730554
H        0.45995934       0.30002305       1.94005920
H        0.88718735      -0.69356533      -1.71100706
H        2.36629618      -1.01567067      -0.70124561
H        2.02215195       1.08032008       0.42277788
15
Frame=14 idx=010621 GeodesicLength=1.309143830091473 rxn_smarts="[O:1]=[C:2]1[C:3]([H:8])([H:9])[C:4]([H:10])([H:11])[C@@:5]2([H:12])[C:6]([H:13])([H:14])[C@@:7]12[H:15]>>[O:1]([C+:2]1[C:3]([H:8])([H:9])[C:4]([H:10])([H:11])[C-:5]2[C:6]([H:13])([H:14])[C@@:7]12[H:15])[H:12]"
O       -0.24579165       1.74855781       1.40117435
C       -0.11715911       1.29308761       0.20157087
C       -1.26882581       0.48598646      -0.38259177
C       -0.93435976      -0.93304004       0.11041489
C        0.55776073      -0.83161764       0.53367639
C        1.33273618      -0.67914019      -0.71767954
C        1.13620155       0.64352337      -0.02344965
H       -1.28775159       0.61003786      -1.46643838
H       -2.21318336       0.86545694       0.00318074
H       -1.54486529      -1.16071691       0.98526215
H       -1.15489364      -1.72303911      -0.60901161
H        0.46544573       0.29524158       1.95970617
H        0.88762851      -0.67265596      -1.71328798
H        2.36223457      -1.01764173      -0.70510220
H        2.02482295       1.07595997       0.42257557
15
Frame=15 idx=010621 GeodesicLength=1.4027687319271498 rxn_smarts="[O:1]=[C:2]1[C:3]([H:8])([H:9])[C:4]([H:10])([H:11])[C@@:5]2([H:12])[C:6]([H:13])([H:14])[C@@:7]12[H:15]>>[O:1]([C+:2]1[C:3]([H:8])([H:9])[C:4]([H:10])([H:11])[C-:5]2[C:6]([H:13])([H:14])[C@@:7]12[H:15])[H:12]"
O       -0.25089669       1.78050852       1.38317123
C       -0.11555850       1.30688102       0.19257009
C       -1.26243999       0.48186879      -0.37976705
C       -0.93223757      -0.94067940       0.10817099
C        0.55757902      -0.84891680       0.53131472
C        1.32899967      -0.67984147      -0.71769348
C        1.13251921       0.63767167      -0.01054374
H       -1.28747241       0.60758666      -1.46364767
H       -2.20775541       0.85907556       0.00652028
H       -1.54501013      -1.16601272       0.98239457
H       -1.16262814      -1.72845691      -0.61091741
H        0.47111173       0.28955712       1.97998303
H        0.88828640      -0.65150453      -1.71514059
H        2.35830816      -1.01918193      -0.70904935
H        2.02719466       1.07144441       0.42263439
15
Frame=16 idx=010621 GeodesicLength=1.4963114583642356 rxn_smarts="[O:1]=[C:2]1[C:3]([H:8])([H:9])[C:4]([H:10])([H:11])[C@@:5]2([H:12])[C:6]([H:13])([H:14])[C@@:7]12[H:15]>>[O:1]([C+:2]1[C:3]([H:8])([H:9])[C:4]([H:10])([H:11])[C-:5]2[C:6]([H:13])([H:14])[C@@:7]12[H:15])[H:12]"
O       -0.25595125       1.81374520       1.36345271
C       -0.11370388       1.32069625       0.18279593
C       -1.25596651       0.47776580      -0.37666580
C       -0.93018444      -0.94846422       0.10580654
C        0.55739075      -0.86685151       0.52853501
C        1.32534605      -0.68031315      -0.71769851
C        1.12853909       0.63153257       0.00310481
H       -1.28764064       0.60498865      -1.46056635
H       -2.20205725       0.85282005       0.01045996
H       -1.54507472      -1.17145937       0.97950019
H       -1.17060416      -1.73375330      -0.61304012
H        0.47697486       0.28286376       2.00093930
H        0.88917108      -0.63008579      -1.71654784
H        2.35453327      -1.02024739      -0.71306340
H        2.02922775       1.06676246       0.42298756
