21
Frame=0 idx=011540 GeodesicLength=0.0 rxn_smarts="[C:1]([C@@:2]1([H:11])[C:3]([H:12])([H:13])[C@:4]([C:5]([H:15])([H:16])[H:17])([H:14])[C@:6]1([C:7]([H:19])([H:20])[H:21])[H:18])([H:8])([H:9])[H:10]>>[C:1]([C:7]([C@@:6]1([H:18])[C:2]([H:8])([H:11])[C:3]([H:12])([H:13])[C@:4]1([C:5]([H:15])([H:16])[H:17])[H:14])([H:20])[H:21])([H:9])([H:10])[H:19]"
C        3.43656191       0.97233088      -0.69336775
C        0.79406093      -1.00716948      -0.15272394
C       -0.41782282      -1.45800087       0.68779821
C       -1.31835550      -0.59310095      -0.21883309
C       -2.48804597       0.14837483       0.39276035
C       -0.04815054       0.17781483      -0.68296563
C        0.23144138       1.48270464       0.04016104
H        1.70833524      -0.75998074       0.39593811
H        3.69062480       0.75641232       0.36507527
H        3.48638901      -0.03324342      -1.15814250
H        1.04166507      -1.72605176      -0.93500833
H       -0.62862622      -2.52633221       0.74359746
H       -0.37648730      -1.06128643       1.70463815
H       -1.67295143      -1.20429262      -1.05375574
H       -2.17703227       0.76177482       1.24129783
H       -2.96950743       0.80560680      -0.33566359
H       -3.24288283      -0.55470077       0.75319297
H        0.01357646       0.34480231      -1.76067205
H        1.21016811       1.87516698      -0.25958504
H        0.24033094       1.35436788       1.12608575
H       -0.51329147       2.24480289      -0.19982747
21
Frame=1 idx=011540 GeodesicLength=0.17978193543727528 rxn_smarts="[C:1]([C@@:2]1([H:11])[C:3]([H:12])([H:13])[C@:4]([C:5]([H:15])([H:16])[H:17])([H:14])[C@:6]1([C:7]([H:19])([H:20])[H:21])[H:18])([H:8])([H:9])[H:10]>>[C:1]([C:7]([C@@:6]1([H:18])[C:2]([H:8])([H:11])[C:3]([H:12])([H:13])[C@:4]1([C:5]([H:15])([H:16])[H:17])[H:14])([H:20])[H:21])([H:9])([H:10])[H:19]"
C        3.33220782       0.95169526      -0.62682489
C        0.80760306      -0.99814084      -0.15271114
C       -0.40376261      -1.45458033       0.68623575
C       -1.30896031      -0.59445789      -0.22001461
C       -2.47774801       0.14803480       0.39226086
C       -0.04291916       0.17811603      -0.69120139
C        0.24173965       1.48515830       0.02691024
H        1.72178868      -0.73684161       0.42617290
H        3.67081880       0.65300814       0.38523888
H        3.42583234       0.01260590      -1.20665407
H        1.05434149      -1.72113216      -0.93182534
H       -0.60948985      -2.52396381       0.74340131
H       -0.36419372      -1.05646077       1.70273148
H       -1.66428503      -1.20941412      -1.05193705
H       -2.16517050       0.76486898       1.23781819
H       -2.96265389       0.80201118      -0.33695606
H       -3.23054275      -0.55503592       0.75722428
H        0.01331296       0.33994270      -1.77005960
H        1.22754450       1.90919343      -0.26862987
H        0.24196655       1.36249923       1.11372631
H       -0.50743003       2.24289350      -0.21490617
21
Frame=2 idx=011540 GeodesicLength=0.3596412810563894 rxn_smarts="[C:1]([C@@:2]1([H:11])[C:3]([H:12])([H:13])[C@:4]([C:5]([H:15])([H:16])[H:17])([H:14])[C@:6]1([C:7]([H:19])([H:20])[H:21])[H:18])([H:8])([H:9])[H:10]>>[C:1]([C:7]([C@@:6]1([H:18])[C:2]([H:8])([H:11])[C:3]([H:12])([H:13])[C@:4]1([C:5]([H:15])([H:16])[H:17])[H:14])([H:20])[H:21])([H:9])([H:10])[H:19]"
C        3.23521972       0.92775266      -0.56643053
C        0.82014089      -0.99113533      -0.15147650
C       -0.39166237      -1.45242540       0.68482018
C       -1.30013737      -0.59602945      -0.22129273
C       -2.46776649       0.14844030       0.39099698
C       -0.03732000       0.17715992      -0.69829133
C        0.25310708       1.48589353       0.01536491
H        1.73320673      -0.71643294       0.45930831
H        3.65024537       0.56192651       0.39214660
H        3.36500801       0.06521249      -1.24713890
H        1.06621448      -1.71780743      -0.92774855
H       -0.59324625      -2.52264351       0.74272767
H       -0.35443285      -1.05335487       1.70117131
H       -1.65607027      -1.21411428      -1.05069503
H       -2.15373792       0.76816011       1.23397960
H       -2.95489838       0.79982295      -0.33913342
H       -3.21942921      -0.55395445       0.75970458
H        0.01456002       0.33411264      -1.77813874
H        1.24692417       1.94057737      -0.27366664
H        0.24326059       1.36867049       1.10293280
H       -0.49918595       2.24016869      -0.22914056
21
Frame=3 idx=011540 GeodesicLength=0.5397357929083488 rxn_smarts="[C:1]([C@@:2]1([H:11])[C:3]([H:12])([H:13])[C@:4]([C:5]([H:15])([H:16])[H:17])([H:14])[C@:6]1([C:7]([H:19])([H:20])[H:21])[H:18])([H:8])([H:9])[H:10]>>[C:1]([C:7]([C@@:6]1([H:18])[C:2]([H:8])([H:11])[C:3]([H:12])([H:13])[C@:4]1([C:5]([H:15])([H:16])[H:17])[H:14])([H:20])[H:21])([H:9])([H:10])[H:19]"
C        3.14426447       0.90158340      -0.51164904
C        0.83162859      -0.98568902      -0.14936403
C       -0.38127881      -1.45110734       0.68358809
C       -1.29170703      -0.59775071      -0.22251634
C       -2.45778434       0.14937377       0.38921590
C       -0.03144854       0.17509119      -0.70451722
C        0.26537549       1.48487153       0.00496029
H        1.74245617      -0.69813243       0.49454334
H        3.62835310       0.48088825       0.38835222
H        3.30396417       0.12393878      -1.28027450
H        1.07718379      -1.71546410      -0.92304589
H       -0.57951832      -2.52179431       0.74191277
H       -0.34689482      -1.05151310       1.69983498
H       -1.64810032      -1.21834164      -1.04962147
H       -2.14245160       0.77145562       1.22977128
H       -2.94598716       0.79856790      -0.34194161
H       -3.20903004      -0.55165756       0.76120699
H        0.01711534       0.32742426      -1.78518061
H        1.26836552       1.96890300      -0.27515399
H        0.24406426       1.37293695       1.09307446
H       -0.48856990       2.23641556      -0.24319560
21
Frame=4 idx=011540 GeodesicLength=0.7198716899972553 rxn_smarts="[C:1]([C@@:2]1([H:11])[C:3]([H:12])([H:13])[C@:4]([C:5]([H:15])([H:16])[H:17])([H:14])[C@:6]1([C:7]([H:19])([H:20])[H:21])[H:18])([H:8])([H:9])[H:10]>>[C:1]([C:7]([C@@:6]1([H:18])[C:2]([H:8])([H:11])[C:3]([H:12])([H:13])[C@:4]1([C:5]([H:15])([H:16])[H:17])[H:14])([H:20])[H:21])([H:9])([H:10])[H:19]"
C        3.05927293       0.87426077      -0.46203502
C        0.84238936      -0.98198693      -0.14673510
C       -0.37206448      -1.45091364       0.68254142
C       -1.28401549      -0.59984635      -0.22374767
C       -2.44827088       0.15090589       0.38704183
C       -0.02571217       0.17203914      -0.71023785
C        0.27836920       1.48284594      -0.00462180
H        1.75042912      -0.68169813       0.53131785
H        3.60567933       0.40871341       0.37634354
H        3.24307386       0.18742414      -1.30637573
H        1.08733338      -1.71468542      -0.91819315
H       -0.56758397      -2.52212968       0.74110309
H       -0.34053114      -1.05084392       1.69882366
H       -1.64114252      -1.22275664      -1.04880306
H       -2.13137321       0.77525212       1.22535583
H       -2.93700952       0.79838163      -0.34534451
H       -3.19969574      -0.54834847       0.76205123
H        0.02000691       0.31990214      -1.79171606
H        1.29216924       1.99459873      -0.27324796
H        0.24476163       1.37622542       1.08396040
H       -0.47608585       2.23265982      -0.25748095
21
Frame=5 idx=011540 GeodesicLength=0.9002020029698281 rxn_smarts="[C:1]([C@@:2]1([H:11])[C:3]([H:12])([H:13])[C@:4]([C:5]([H:15])([H:16])[H:17])([H:14])[C@:6]1([C:7]([H:19])([H:20])[H:21])[H:18])([H:8])([H:9])[H:10]>>[C:1]([C:7]([C@@:6]1([H:18])[C:2]([H:8])([H:11])[C:3]([H:12])([H:13])[C@:4]1([C:5]([H:15])([H:16])[H:17])[H:14])([H:20])[H:21])([H:9])([H:10])[H:19]"
C        2.97939138       0.84648721      -0.41750316
C        0.85242354      -0.97951284      -0.14389348
C       -0.36385109      -1.45135018       0.68162237
C       -1.27679106      -0.60220266      -0.22485993
C       -2.43894073       0.15279827       0.38464384
C       -0.02001735       0.16816821      -0.71555693
C        0.29198438       1.47969354      -0.01365959
H        1.75708217      -0.66637516       0.56886164
H        3.58101070       0.34408521       0.35775267
H        3.18168266       0.25456595      -1.32572425
H        1.09669620      -1.71476490      -0.91338053
H       -0.55715405      -2.52294576       0.74043718
H       -0.33525389      -1.05086962       1.69788388
H       -1.63474313      -1.22719886      -1.04787841
H       -2.12041056       0.77926490       1.22067174
H       -2.92761080       0.79874043      -0.34907572
H       -3.19101055      -0.54422799       0.76256272
H        0.02343865       0.31170998      -1.79772376
H        1.31856568       2.01695184      -0.26809869
H        0.24516887       1.37843311       1.07513874
H       -0.46166105       2.22854934      -0.27222033
21
Frame=6 idx=011540 GeodesicLength=1.0806870819259835 rxn_smarts="[C:1]([C@@:2]1([H:11])[C:3]([H:12])([H:13])[C@:4]([C:5]([H:15])([H:16])[H:17])([H:14])[C@:6]1([C:7]([H:19])([H:20])[H:21])[H:18])([H:8])([H:9])[H:10]>>[C:1]([C:7]([C@@:6]1([H:18])[C:2]([H:8])([H:11])[C:3]([H:12])([H:13])[C@:4]1([C:5]([H:15])([H:16])[H:17])[H:14])([H:20])[H:21])([H:9])([H:10])[H:19]"
C        2.90386068       0.81838318      -0.37803731
C        0.86175200      -0.97816838      -0.14129762
C       -0.35630951      -1.45237610       0.68069584
C       -1.27014685      -0.60481923      -0.22588073
C       -2.42983143       0.15502331       0.38228094
C       -0.01471500       0.16362885      -0.72078176
C        0.30585446       1.47569585      -0.02238830
H        1.76275582      -0.65184677       0.60641081
H        3.55423459       0.28737681       0.33452694
H        3.12169398       0.32302516      -1.33783660
H        1.10509148      -1.71571651      -0.90918294
H       -0.54778063      -2.52430306       0.73981947
H       -0.33040729      -1.05145060       1.69695130
H       -1.62922626      -1.23176388      -1.04688970
H       -2.10940248       0.78351267       1.21604196
H       -2.91813935       0.79968476      -0.35280581
H       -3.18283700      -0.53944103       0.76310083
H        0.02671451       0.30298489      -1.80361150
H        1.34721293       2.03629642      -0.26008215
H        0.24545196       1.37987407       1.06646028
H       -0.44582663       2.22439958      -0.28749397
21
Frame=7 idx=011540 GeodesicLength=1.261292758063704 rxn_smarts="[C:1]([C@@:2]1([H:11])[C:3]([H:12])([H:13])[C@:4]([C:5]([H:15])([H:16])[H:17])([H:14])[C@:6]1([C:7]([H:19])([H:20])[H:21])[H:18])([H:8])([H:9])[H:10]>>[C:1]([C:7]([C@@:6]1([H:18])[C:2]([H:8])([H:11])[C:3]([H:12])([H:13])[C@:4]1([C:5]([H:15])([H:16])[H:17])[H:14])([H:20])[H:21])([H:9])([H:10])[H:19]"
C        2.83217759       0.79041619      -0.34348374
C        0.87041866      -0.97769405      -0.13921131
C       -0.34923939      -1.45378776       0.67971634
C       -1.26402444      -0.60765085      -0.22677973
C       -2.42091395       0.15745317       0.38006906
C       -0.00988008       0.15859486      -0.72604593
C        0.31976661       1.47098377      -0.03097411
H        1.76768509      -0.63759810       0.64340555
H        3.52507556       0.23785206       0.30822010
H        3.06340527       0.39137058      -1.34317175
H        1.11251773      -1.71726795      -0.90583328
H       -0.53915757      -2.52598034       0.73931780
H       -0.32570867      -1.05234059       1.69592097
H       -1.62451480      -1.23644263      -1.04571582
H       -2.09835483       0.78788606       1.21151102
H       -2.90867181       0.80099814      -0.35637045
H       -3.17503030      -0.53418300       0.76387079
H        0.02970379       0.29392315      -1.80949231
H        1.37799701       2.05255554      -0.24931779
H        0.24557641       1.38066367       1.05772698
H       -0.42882789       2.22024807      -0.30336241
21
Frame=8 idx=011540 GeodesicLength=1.441968523669894 rxn_smarts="[C:1]([C@@:2]1([H:11])[C:3]([H:12])([H:13])[C@:4]([C:5]([H:15])([H:16])[H:17])([H:14])[C@:6]1([C:7]([H:19])([H:20])[H:21])[H:18])([H:8])([H:9])[H:10]>>[C:1]([C:7]([C@@:6]1([H:18])[C:2]([H:8])([H:11])[C:3]([H:12])([H:13])[C@:4]1([C:5]([H:15])([H:16])[H:17])[H:14])([H:20])[H:21])([H:9])([H:10])[H:19]"
C        2.76393932       0.76295370      -0.31361473
C        0.87848088      -0.97790011      -0.13787168
C       -0.34245203      -1.45543502       0.67863340
C       -1.25842141      -0.61067319      -0.22755851
C       -2.41224123       0.15999313       0.37809620
C       -0.00561335       0.15321682      -0.73146956
C        0.33350597       1.46573161      -0.03952094
H        1.77216943      -0.62318488       0.67938347
H        3.49362266       0.19495034       0.28027170
H        3.00723985       0.45818787      -1.34231822
H        1.11898220      -1.71926812      -0.90356285
H       -0.53100392      -2.52784627       0.73895648
H       -0.32085989      -1.05331511       1.69472075
H       -1.62061908      -1.24127651      -1.04431753
H       -2.08732287       0.79233228       1.20715007
H       -2.89939706       0.80252960      -0.35964306
H       -3.16754844      -0.52862932       0.76500707
H        0.03221968       0.28468020      -1.81548853
H        1.41075426       2.06578786      -0.23589542
H        0.24554751       1.38097160       1.04883786
H       -0.41098246       2.21619353      -0.31979596
21
Frame=9 idx=011540 GeodesicLength=1.6229728678571398 rxn_smarts="[C:1]([C@@:2]1([H:11])[C:3]([H:12])([H:13])[C@:4]([C:5]([H:15])([H:16])[H:17])([H:14])[C@:6]1([C:7]([H:19])([H:20])[H:21])[H:18])([H:8])([H:9])[H:10]>>[C:1]([C:7]([C@@:6]1([H:18])[C:2]([H:8])([H:11])[C:3]([H:12])([H:13])[C@:4]1([C:5]([H:15])([H:16])[H:17])[H:14])([H:20])[H:21])([H:9])([H:10])[H:19]"
C        2.69863480       0.73632718      -0.28811608
C        0.88593499      -0.97859150      -0.13743176
C       -0.33582919      -1.45717774       0.67741945
C       -1.25327867      -0.61386095      -0.22821171
C       -2.40376862       0.16252530       0.37639418
C       -0.00195614       0.14764308      -0.73711857
C        0.34692630       1.46008182      -0.04810545
H        1.77636031      -0.60818363       0.71400095
H        3.46003760       0.15809995       0.25186229
H        2.95316032       0.52237275      -1.33604445
H        1.12444798      -1.72152522      -0.90247622
H       -0.52314037      -2.52976114       0.73878350
H       -0.31568388      -1.05419657       1.69327249
H       -1.61744967      -1.24627457      -1.04263507
H       -2.07630311       0.79674688       1.20295809
H       -2.89031624       0.80411065      -0.36256307
H       -3.16027083      -0.52297464       0.76656224
H        0.03418993       0.27543526      -1.82164161
H        1.44543733       2.07601977      -0.21983639
H        0.24535166       1.38090168       1.03969238
H       -0.39248449       2.21228166      -0.33676519
21
Frame=10 idx=011540 GeodesicLength=1.8040131929014296 rxn_smarts="[C:1]([C@@:2]1([H:11])[C:3]([H:12])([H:13])[C@:4]([C:5]([H:15])([H:16])[H:17])([H:14])[C@:6]1([C:7]([H:19])([H:20])[H:21])[H:18])([H:8])([H:9])[H:10]>>[C:1]([C:7]([C@@:6]1([H:18])[C:2]([H:8])([H:11])[C:3]([H:12])([H:13])[C@:4]1([C:5]([H:15])([H:16])[H:17])[H:14])([H:20])[H:21])([H:9])([H:10])[H:19]"
C        2.63601084       0.71066191      -0.26660052
C        0.89284141      -0.97964500      -0.13805066
C       -0.32922840      -1.45892117       0.67603481
C       -1.24860910      -0.61717306      -0.22876586
C       -2.39557341       0.16501098       0.37503223
C        0.00099731       0.14199304      -0.74309543
C        0.35980430       1.45419202      -0.05680273
H        1.78051395      -0.59230652       0.74703345
H        3.42469667       0.12683811       0.22402546
H        2.90172104       0.58283591      -1.32504426
H        1.12898442      -1.72394887      -0.90275482
H       -0.51534091      -2.53165074       0.73877639
H       -0.30996071      -1.05485112       1.69156419
H       -1.61502434      -1.25143018      -1.04070620
H       -2.06537728       0.80110704       1.19903400
H       -2.88163721       0.80569297      -0.36503820
H       -3.15318903      -0.51732272       0.76863287
H        0.03545023       0.26631212      -1.82809217
H        1.48166493       2.08340403      -0.20125431
H        0.24495325       1.38060262       1.03028095
H       -0.37369797       2.20859863      -0.35420920
21
Frame=11 idx=011540 GeodesicLength=1.98512579852811 rxn_smarts="[C:1]([C@@:2]1([H:11])[C:3]([H:12])([H:13])[C@:4]([C:5]([H:15])([H:16])[H:17])([H:14])[C@:6]1([C:7]([H:19])([H:20])[H:21])[H:18])([H:8])([H:9])[H:10]>>[C:1]([C:7]([C@@:6]1([H:18])[C:2]([H:8])([H:11])[C:3]([H:12])([H:13])[C@:4]1([C:5]([H:15])([H:16])[H:17])[H:14])([H:20])[H:21])([H:9])([H:10])[H:19]"
C        2.57574602       0.68613362      -0.24863322
C        0.89921664      -0.98092218      -0.13978627
C       -0.32258067      -1.46057027       0.67446259
C       -1.24437773      -0.62058170      -0.22922834
C       -2.38765561       0.16738108       0.37401157
C        0.00322989       0.13636852      -0.74942455
C        0.37202966       1.44817619      -0.06565901
H        1.78473801      -0.57523149       0.77839082
H        3.38797732       0.10055591       0.19746669
H        2.85286530       0.63900678      -1.31018070
H        1.13263214      -1.72639907      -0.90441977
H       -0.50748915      -2.53342084       0.73894315
H       -0.30360035      -1.05516636       1.68955468
H       -1.61327743      -1.25673517      -1.03851497
H       -2.05458058       0.80535118       1.19536730
H       -2.87339872       0.80717672      -0.36704808
H       -3.14625464      -0.51179444       0.77122106
H        0.03597158       0.25742361      -1.83485151
H        1.51930319       2.08790953      -0.18014179
H        0.24431128       1.38016986       1.02055823
H       -0.35480613       2.20516850      -0.37208788
21
Frame=12 idx=011540 GeodesicLength=2.1662909090437963 rxn_smarts="[C:1]([C@@:2]1([H:11])[C:3]([H:12])([H:13])[C@:4]([C:5]([H:15])([H:16])[H:17])([H:14])[C@:6]1([C:7]([H:19])([H:20])[H:21])[H:18])([H:8])([H:9])[H:10]>>[C:1]([C:7]([C@@:6]1([H:18])[C:2]([H:8])([H:11])[C:3]([H:12])([H:13])[C@:4]1([C:5]([H:15])([H:16])[H:17])[H:14])([H:20])[H:21])([H:9])([H:10])[H:19]"
C        2.51759678       0.66282627      -0.23374230
C        0.90509561      -0.98232201      -0.14266193
C       -0.31582577      -1.46205676       0.67269792
C       -1.24055759      -0.62406135      -0.22961404
C       -2.38003726       0.16959609       0.37332399
C        0.00473542       0.13084822      -0.75612352
C        0.38351130       1.44214066      -0.07470758
H        1.78912650      -0.55669955       0.80807916
H        3.35028631       0.07865920       0.17264964
H        2.80650315       0.69056230      -1.29226072
H        1.13547206      -1.72877792      -0.90747455
H       -0.49947845      -2.53500931       0.73928681
H       -0.29653780      -1.05505806       1.68723588
H       -1.61215034      -1.26218289      -1.03607553
H       -2.04396810       0.80945151       1.19195604
H       -2.86566254       0.80850199      -0.36859820
H       -3.13945339      -0.50647076       0.77431606
H        0.03573909       0.24884954      -1.84194291
H        1.55821129       2.08948027      -0.15649098
H        0.24338093       1.37970381       1.01051282
H       -0.33598719       2.20201875      -0.39036605
21
Frame=13 idx=011540 GeodesicLength=2.3475874547778233 rxn_smarts="[C:1]([C@@:2]1([H:11])[C:3]([H:12])([H:13])[C@:4]([C:5]([H:15])([H:16])[H:17])([H:14])[C@:6]1([C:7]([H:19])([H:20])[H:21])[H:18])([H:8])([H:9])[H:10]>>[C:1]([C:7]([C@@:6]1([H:18])[C:2]([H:8])([H:11])[C:3]([H:12])([H:13])[C@:4]1([C:5]([H:15])([H:16])[H:17])[H:14])([H:20])[H:21])([H:9])([H:10])[H:19]"
C        2.46132142       0.64079499      -0.22145905
C        0.91049985      -0.98375949      -0.14666463
C       -0.30892344      -1.46332480       0.67073900
C       -1.23710565      -0.62759410      -0.22993355
C       -2.37270567       0.17162317       0.37294045
C        0.00552735       0.12549166      -0.76318351
C        0.39420011       1.43617373      -0.08397087
H        1.79370405      -0.53646747       0.83616530
H        3.31196969       0.06057390       0.14982896
H        2.76236776       0.73741943      -1.27202352
H        1.13757293      -1.73100071      -0.91187614
H       -0.49123446      -2.53636476       0.73980787
H       -0.28874267      -1.05445613       1.68459047
H       -1.61156367      -1.26777285      -1.03339203
H       -2.03356178       0.81338942       1.18876734
H       -2.85843063       0.80961386      -0.36971696
H       -3.13274568      -0.50141665       0.77787713
H        0.03476551       0.24064340      -1.84934993
H        1.59831709       2.08797287      -0.13025304
H        0.24212761       1.37929525       1.00012515
H       -0.31735972       2.19916527      -0.40901842
21
Frame=14 idx=011540 GeodesicLength=2.528892330262916 rxn_smarts="[C:1]([C@@:2]1([H:11])[C:3]([H:12])([H:13])[C@:4]([C:5]([H:15])([H:16])[H:17])([H:14])[C@:6]1([C:7]([H:19])([H:20])[H:21])[H:18])([H:8])([H:9])[H:10]>>[C:1]([C:7]([C@@:6]1([H:18])[C:2]([H:8])([H:11])[C:3]([H:12])([H:13])[C@:4]1([C:5]([H:15])([H:16])[H:17])[H:14])([H:20])[H:21])([H:9])([H:10])[H:19]"
C        2.40677522       0.62001406      -0.21131040
C        0.91546930      -0.98517116      -0.15178072
C       -0.30184116      -1.46434303       0.66857777
C       -1.23399901      -0.63115181      -0.23020104
C       -2.36567812       0.17344955       0.37286358
C        0.00562243       0.12034814      -0.77060938
C        0.40405125       1.43035784      -0.09348635
H        1.79850199      -0.51435882       0.86275502
H        3.27331828       0.04579949       0.12917059
H        2.72039193       0.77956404      -1.25002557
H        1.13903902      -1.73299120      -0.91760727
H       -0.48269105      -2.53745922       0.74047486
H       -0.28019508      -1.05333889       1.68162002
H       -1.61147214      -1.27347565      -1.03049085
H       -2.02339691       0.81715131       1.18581572
H       -2.85175210       0.81049540      -0.37039680
H       -3.12612798      -0.49667135       0.78190653
H        0.03307421       0.23284693      -1.85709152
H        1.63944802       2.08328750      -0.10154674
H        0.24052311       1.37903643       0.98939124
H       -0.29906123       2.19661043      -0.42802870
21
Frame=15 idx=011540 GeodesicLength=2.710238544324466 rxn_smarts="[C:1]([C@@:2]1([H:11])[C:3]([H:12])([H:13])[C@:4]([C:5]([H:15])([H:16])[H:17])([H:14])[C@:6]1([C:7]([H:19])([H:20])[H:21])[H:18])([H:8])([H:9])[H:10]>>[C:1]([C:7]([C@@:6]1([H:18])[C:2]([H:8])([H:11])[C:3]([H:12])([H:13])[C@:4]1([C:5]([H:15])([H:16])[H:17])[H:14])([H:20])[H:21])([H:9])([H:10])[H:19]"
C        2.35378949       0.60047087      -0.20284598
C        0.92002709      -0.98649830      -0.15797086
C       -0.29456117      -1.46508070       0.66620637
C       -1.23119895      -0.63471476      -0.23042465
C       -2.35893476       0.17505918       0.37307542
C        0.00505304       0.11545191      -0.77837804
C        0.41305854       1.42475369      -0.10327467
H        1.80349337      -0.49019069       0.88798170
H        3.23454124       0.03384641       0.11069775
H        2.68033936       0.81716662      -1.22674600
H        1.13994679      -1.73467483      -0.92461163
H       -0.47380932      -2.53826044       0.74125735
H       -0.27089511      -1.05168184       1.67830700
H       -1.61181311      -1.27927101      -1.02738141
H       -2.01347137       0.82072279       1.18308165
H       -2.84561555       0.81111820      -0.37064865
H       -3.11956742      -0.49226890       0.78637424
H        0.03070996       0.22548071      -1.86513841
H        1.68152185       2.07522405      -0.07046955
H        0.23855631       1.37900856       0.97829433
H       -0.28117027       2.19433848      -0.44738595
21
Frame=16 idx=011540 GeodesicLength=2.891633118164986 rxn_smarts="[C:1]([C@@:2]1([H:11])[C:3]([H:12])([H:13])[C@:4]([C:5]([H:15])([H:16])[H:17])([H:14])[C@:6]1([C:7]([H:19])([H:20])[H:21])[H:18])([H:8])([H:9])[H:10]>>[C:1]([C:7]([C@@:6]1([H:18])[C:2]([H:8])([H:11])[C:3]([H:12])([H:13])[C@:4]1([C:5]([H:15])([H:16])[H:17])[H:14])([H:20])[H:21])([H:9])([H:10])[H:19]"
C        2.30222360       0.58213197      -0.19563021
C        0.92420357      -0.98769905      -0.16518881
C       -0.28706716      -1.46552304       0.66362031
C       -1.22866671      -0.63826292      -0.23061391
C       -2.35246001       0.17644691       0.37356298
C        0.00385944       0.11083184      -0.78646458
C        0.42122416       1.41941814      -0.11334637
H        1.80864311      -0.46381401       0.91200091
H        3.19578681       0.02424924       0.09435717
H        2.64199554       0.85046762      -1.20254955
H        1.14038402      -1.73599196      -0.93283816
H       -0.46455202      -2.53875562       0.74212079
H       -0.26084882      -1.04948049       1.67464645
H       -1.61252336      -1.28513356      -1.02408522
H       -2.00378676       0.82409739       1.18055937
H       -2.84001376       0.81147320      -0.37048292
H       -3.11303991      -0.48823106       0.79125417
H        0.02773312       0.21856217      -1.87346801
H        1.72444628       2.06358194      -0.03721292
H        0.23622240       1.37929454       0.96683578
H       -0.26376356       2.19233675      -0.46707728
