19
Frame=0 idx=008070 GeodesicLength=0.0 rxn_smarts="[C:1]([C:2]([C@@:3]([O:4][H:14])([C@@:5]([C:6]([H:16])([H:17])[H:18])([O:7][H:19])[H:15])[H:13])([H:11])[H:12])([H:8])([H:9])[H:10]>>[C:1](=[C:2]([H:11])[H:12])([H:8])[H:10].[C:3](\[O:4][H:14])(=[C:5](/[C:6]([H:16])([H:17])[H:18])[O:7][H:19])[H:13].[H:9][H:15]"
C        1.64885328       1.07137182       1.14746209
C        1.69970087      -0.29442340       1.04407371
C       -0.28423214      -1.18024406       0.15708747
O       -0.83113499      -1.69751436       1.28877572
C       -0.93133993      -0.16401657      -0.52343395
C       -0.76221264      -0.01150500      -2.01037351
O       -2.21716234       0.09364888      -0.01984788
H        2.28940797       1.69196595       0.53026453
H        0.39285036       1.50757221       0.36626943
H        1.30976627       1.53209110       2.06909620
H        2.33440038      -0.75332770       0.29600389
H        1.39723775      -0.92357684       1.86894912
H        0.39114560      -1.85060289      -0.35083549
H       -1.65193867      -1.21343134       1.44476432
H       -0.24502795       1.07759596      -0.07335900
H       -1.43424906      -0.68547491      -2.54762780
H       -0.97399266       1.01038182      -2.33312626
H        0.26476313      -0.24534753      -2.29568891
H       -2.39683526       1.03483695      -0.05845371
19
Frame=1 idx=008070 GeodesicLength=0.15028947319286243 rxn_smarts="[C:1]([C:2]([C@@:3]([O:4][H:14])([C@@:5]([C:6]([H:16])([H:17])[H:18])([O:7][H:19])[H:15])[H:13])([H:11])[H:12])([H:8])([H:9])[H:10]>>[C:1](=[C:2]([H:11])[H:12])([H:8])[H:10].[C:3](\[O:4][H:14])(=[C:5](/[C:6]([H:16])([H:17])[H:18])[O:7][H:19])[H:13].[H:9][H:15]"
C        1.67576124       1.09063430       1.13342394
C        1.65742502      -0.28231797       1.12073660
C       -0.25421234      -1.17854441       0.12604441
O       -0.82413379      -1.79808424       1.19518170
C       -0.92444281      -0.15778180      -0.52960662
C       -0.80255007      -0.00292771      -2.02093573
O       -2.19990168       0.08227602       0.00768260
H        2.35354485       1.62455327       0.47544212
H        0.41585892       1.55669220       0.33835534
H        1.40207209       1.62476418       2.03738949
H        2.34039095      -0.82918024       0.48206954
H        1.30919813      -0.82914767       1.98617958
H        0.42856187      -1.81938325      -0.41172194
H       -1.64702936      -1.32921204       1.38171844
H       -0.24526540       1.11077170      -0.09655969
H       -1.49077620      -0.67482208      -2.53968715
H       -1.02226978       1.02064519      -2.33338487
H        0.21493150      -0.23134668      -2.34245358
H       -2.38716314       1.02241124      -0.00987418
19
Frame=2 idx=008070 GeodesicLength=0.29419423098881026 rxn_smarts="[C:1]([C:2]([C@@:3]([O:4][H:14])([C@@:5]([C:6]([H:16])([H:17])[H:18])([O:7][H:19])[H:15])[H:13])([H:11])[H:12])([H:8])([H:9])[H:10]>>[C:1](=[C:2]([H:11])[H:12])([H:8])[H:10].[C:3](\[O:4][H:14])(=[C:5](/[C:6]([H:16])([H:17])[H:18])[O:7][H:19])[H:13].[H:9][H:15]"
C        1.70274826       1.10436831       1.12147440
C        1.61064537      -0.26628985       1.19674567
C       -0.22109023      -1.17612034       0.09381938
O       -0.80416101      -1.88928533       1.09768894
C       -0.91524834      -0.15156914      -0.53583998
C       -0.84525764       0.00335478      -2.03041233
O       -2.17749937       0.06985889       0.03934424
H        2.41629950       1.54608848       0.43274025
H        0.44444148       1.60534853       0.30584137
H        1.49724898       1.70416676       2.00237546
H        2.32437200      -0.89479689       0.67759756
H        1.20683080      -0.72484184       2.08987685
H        0.47366917      -1.78128283      -0.47144017
H       -1.63278027      -1.44332132       1.31162875
H       -0.24342502       1.14526536      -0.12303131
H       -1.55058623      -0.66734494      -2.52700191
H       -1.07398846       1.02809897      -2.33295590
H        0.16041451      -0.22006499      -2.39046520
H       -2.37263349       1.00836739       0.04201391
19
Frame=3 idx=008070 GeodesicLength=0.43289525054532196 rxn_smarts="[C:1]([C:2]([C@@:3]([O:4][H:14])([C@@:5]([C:6]([H:16])([H:17])[H:18])([O:7][H:19])[H:15])[H:13])([H:11])[H:12])([H:8])([H:9])[H:10]>>[C:1](=[C:2]([H:11])[H:12])([H:8])[H:10].[C:3](\[O:4][H:14])(=[C:5](/[C:6]([H:16])([H:17])[H:18])[O:7][H:19])[H:13].[H:9][H:15]"
C        1.72932684       1.11210316       1.11096688
C        1.55947437      -0.24679504       1.26939875
C       -0.18564584      -1.17261216       0.06161177
O       -0.77284090      -1.96966219       1.00018341
C       -0.90420519      -0.14553986      -0.54167986
C       -0.88796078       0.00774067      -2.03785518
O       -2.15092606       0.05512490       0.07340097
H        2.47482006       1.45677757       0.40030388
H        0.47659609       1.65274666       0.27140839
H        1.59610433       1.76850099       1.96548185
H        2.28541793      -0.94757423       0.87442115
H        1.09449199      -0.61289008       2.17631608
H        0.52375193      -1.73790646      -0.52807420
H       -1.60976636      -1.55215109       1.23687394
H       -0.24162557       1.18085670      -0.15041548
H       -1.60971624      -0.66274501      -2.51005644
H       -1.12668778       1.03303219      -2.33093818
H        0.10405560      -0.21033614      -2.43680742
H       -2.35466445       0.99132940       0.09545969
19
Frame=4 idx=008070 GeodesicLength=0.5688564502519746 rxn_smarts="[C:1]([C:2]([C@@:3]([O:4][H:14])([C@@:5]([C:6]([H:16])([H:17])[H:18])([O:7][H:19])[H:15])[H:13])([H:11])[H:12])([H:8])([H:9])[H:10]>>[C:1](=[C:2]([H:11])[H:12])([H:8])[H:10].[C:3](\[O:4][H:14])(=[C:5](/[C:6]([H:16])([H:17])[H:18])[O:7][H:19])[H:13].[H:9][H:15]"
C        1.75442332       1.11453135       1.10316163
C        1.50599168      -0.22468555       1.33503628
C       -0.14917688      -1.16826196       0.02996097
O       -0.73338288      -2.03804131       0.90624484
C       -0.89218709      -0.13999224      -0.54765650
C       -0.92902463       0.00969399      -2.04350954
O       -2.12218563       0.03838871       0.10688877
H        2.52683991       1.36300974       0.38034626
H        0.51020885       1.69881759       0.23761386
H        1.69543259       1.81401712       1.93174822
H        2.22615274      -0.98719684       1.06223298
H        0.98152768      -0.49853003       2.24307022
H        0.57460656      -1.69276565      -0.58120746
H       -1.57696033      -1.64848418       1.16528391
H       -0.24118469       1.21738301      -0.17809068
H       -1.66609998      -0.66139981      -2.49023376
H       -1.17800233       1.03517616      -2.32793934
H        0.04818781      -0.20343672      -2.48009875
H       -2.33516669       0.97177660       0.14714808
19
Frame=5 idx=008070 GeodesicLength=0.7025652128330431 rxn_smarts="[C:1]([C:2]([C@@:3]([O:4][H:14])([C@@:5]([C:6]([H:16])([H:17])[H:18])([O:7][H:19])[H:15])[H:13])([H:11])[H:12])([H:8])([H:9])[H:10]>>[C:1](=[C:2]([H:11])[H:12])([H:8])[H:10].[C:3](\[O:4][H:14])(=[C:5](/[C:6]([H:16])([H:17])[H:18])[O:7][H:19])[H:13].[H:9][H:15]"
C        1.77745555       1.11208888       1.09750116
C        1.45066338      -0.20076708       1.39309691
C       -0.11233535      -1.16266551      -0.00042184
O       -0.68804883      -2.09525550       0.81748333
C       -0.87959042      -0.13486945      -0.55352661
C       -0.96741546       0.00976439      -2.04748866
O       -2.09188471       0.01955726       0.13889897
H        2.57124600       1.26568253       0.37074215
H        0.54428739       1.74334478       0.20525360
H        1.79365519       1.84197925       1.90199234
H        2.14961107      -1.01394033       1.23625726
H        0.87237059      -0.38371239       2.29226232
H        0.62384508      -1.64708679      -0.63095903
H       -1.53581557      -1.73212478       1.09955699
H       -0.24310551       1.25445872      -0.20485528
H       -1.71781097      -0.66280918      -2.46865577
H       -1.22685919       1.03485715      -2.32411665
H       -0.00580608      -0.19811350      -2.51963990
H       -2.31446216       0.94961155       0.19661870
19
Frame=6 idx=008070 GeodesicLength=0.8358686058157448 rxn_smarts="[C:1]([C:2]([C@@:3]([O:4][H:14])([C@@:5]([C:6]([H:16])([H:17])[H:18])([O:7][H:19])[H:15])[H:13])([H:11])[H:12])([H:8])([H:9])[H:10]>>[C:1](=[C:2]([H:11])[H:12])([H:8])[H:10].[C:3](\[O:4][H:14])(=[C:5](/[C:6]([H:16])([H:17])[H:18])[O:7][H:19])[H:13].[H:9][H:15]"
C        1.79866362       1.10598552       1.09429149
C        1.39485695      -0.17540834       1.44347205
C       -0.07539078      -1.15602995      -0.02976240
O       -0.63886740      -2.14292614       0.73378413
C       -0.86685195      -0.13014459      -0.55956996
C       -1.00333498       0.00785300      -2.05002891
O       -2.06099643      -0.00024205       0.16856496
H        2.60872569       1.16826966       0.37105215
H        0.57852851       1.78685482       0.17472654
H        1.88900251       1.85336154       1.87796035
H        2.05944247      -1.03003846       1.39479120
H        0.77059490      -0.26981269       2.32644047
H        0.67032350      -1.60220293      -0.67841873
H       -1.48762062      -1.80393946       1.04144807
H       -0.24745904       1.29207947      -0.23102874
H       -1.76543470      -0.66684799      -2.44560263
H       -1.27323229       1.03226550      -2.31972904
H       -0.05778104      -0.19517468      -2.55559453
H       -2.29316890       0.92609777       0.24320353
19
Frame=7 idx=008070 GeodesicLength=0.9685728127602233 rxn_smarts="[C:1]([C:2]([C@@:3]([O:4][H:14])([C@@:5]([C:6]([H:16])([H:17])[H:18])([O:7][H:19])[H:15])[H:13])([H:11])[H:12])([H:8])([H:9])[H:10]>>[C:1](=[C:2]([H:11])[H:12])([H:8])[H:10].[C:3](\[O:4][H:14])(=[C:5](/[C:6]([H:16])([H:17])[H:18])[O:7][H:19])[H:13].[H:9][H:15]"
C        1.81803603       1.09655893       1.09260218
C        1.33856202      -0.14900660       1.48685599
C       -0.03875426      -1.14812232      -0.05765175
O       -0.58694546      -2.18220668       0.65581062
C       -0.85426941      -0.12577863      -0.56553302
C       -1.03640163       0.00466579      -2.05140656
O       -2.03002629      -0.02143221       0.19582367
H        2.63899861       1.07044495       0.37860880
H        0.61264567       1.82941665       0.14612521
H        1.98126820       1.85031008       1.85885215
H        1.95806291      -1.03655909       1.53719140
H        0.67772838      -0.15713518       2.34905504
H        0.71316568      -1.55829357      -0.72392118
H       -1.43378327      -1.86576669       0.99121101
H       -0.25479121       1.33005242      -0.25576557
H       -1.80811755      -0.67296984      -2.42213669
H       -1.31681978       1.02796003      -2.31492093
H       -0.10702759      -0.19303967      -2.58803300
H       -2.27153107       0.90090162       0.28723262
19
Frame=8 idx=008070 GeodesicLength=1.1017959108706294 rxn_smarts="[C:1]([C:2]([C@@:3]([O:4][H:14])([C@@:5]([C:6]([H:16])([H:17])[H:18])([O:7][H:19])[H:15])[H:13])([H:11])[H:12])([H:8])([H:9])[H:10]>>[C:1](=[C:2]([H:11])[H:12])([H:8])[H:10].[C:3](\[O:4][H:14])(=[C:5](/[C:6]([H:16])([H:17])[H:18])[O:7][H:19])[H:13].[H:9][H:15]"
C        1.83614387       1.08473370       1.09308454
C        1.28278380      -0.12147650       1.52397385
C       -0.00221781      -1.13914482      -0.08463079
O       -0.53293949      -2.21449518       0.58260748
C       -0.84190623      -0.12163722      -0.57167538
C       -1.06763645      -0.00015439      -2.05183641
O       -1.99895216      -0.04258711       0.22073516
H        2.66364532       0.97402867       0.39392493
H        0.64732383       1.87141897       0.11912780
H        2.06865038       1.83438644       1.84587490
H        1.84769321      -1.03540673       1.66386759
H        0.59479765      -0.04568219       2.36250337
H        0.75243375      -1.51589054      -0.76863651
H       -1.37523338      -1.91959024       0.94761615
H       -0.26456773       1.36845130      -0.27994129
H       -1.84749715      -0.68131576      -2.39785701
H       -1.35866430       1.02181662      -2.30994086
H       -0.15470946      -0.19296641      -2.61768810
H       -2.24914766       0.87551138       0.32889058
19
Frame=9 idx=008070 GeodesicLength=1.2344068755210122 rxn_smarts="[C:1]([C:2]([C@@:3]([O:4][H:14])([C@@:5]([C:6]([H:16])([H:17])[H:18])([O:7][H:19])[H:15])[H:13])([H:11])[H:12])([H:8])([H:9])[H:10]>>[C:1](=[C:2]([H:11])[H:12])([H:8])[H:10].[C:3](\[O:4][H:14])(=[C:5](/[C:6]([H:16])([H:17])[H:18])[O:7][H:19])[H:13].[H:9][H:15]"
C        1.85278555       1.07035176       1.09431634
C        1.22696516      -0.09297795       1.55521451
C        0.03381445      -1.12869988      -0.11022089
O       -0.47730784      -2.24010528       0.51507377
C       -0.82997498      -0.11777571      -0.57755625
C       -1.09626684      -0.00588912      -2.05118972
O       -1.96841664      -0.06477954       0.24346710
H        2.68180622       0.87793423       0.41386860
H        0.68213294       1.91275331       0.09384564
H        2.15195348       1.80694129       1.83716241
H        1.72967109      -1.02694944       1.77504274
H        0.52204323       0.06454919       2.36919890
H        0.78794013      -1.47438724      -0.81223384
H       -1.31328314      -1.96656158       0.90990665
H       -0.27746518       1.40692631      -0.30256382
H       -1.88231144      -0.69128980      -2.37349193
H       -1.39801153       1.01423245      -2.30438638
H       -0.19958674      -0.19310327      -2.64419795
H       -2.22648793       0.84883026       0.36874411
19
Frame=10 idx=008070 GeodesicLength=1.3675538050474765 rxn_smarts="[C:1]([C:2]([C@@:3]([O:4][H:14])([C@@:5]([C:6]([H:16])([H:17])[H:18])([O:7][H:19])[H:15])[H:13])([H:11])[H:12])([H:8])([H:9])[H:10]>>[C:1](=[C:2]([H:11])[H:12])([H:8])[H:10].[C:3](\[O:4][H:14])(=[C:5](/[C:6]([H:16])([H:17])[H:18])[O:7][H:19])[H:13].[H:9][H:15]"
C        1.86866598       1.05418073       1.09735932
C        1.17223740      -0.06334503       1.58135195
C        0.06957458      -1.11714839      -0.13495974
O       -0.42023154      -2.26028723       0.45234989
C       -0.81845895      -0.11404605      -0.58350004
C       -1.12354660      -0.01303045      -2.04979230
O       -1.93804950      -0.08648959       0.26420641
H        2.69530373       0.78348147       0.43992544
H        0.71803447       1.95382610       0.06986915
H        2.22906960       1.76974981       1.83413222
H        1.60572370      -1.01259631       1.87096309
H        0.46005636       0.17329787       2.37091479
H        0.81989264      -1.43435992      -0.85559530
H       -1.24860818      -2.00829765       0.87637745
H       -0.29294533       1.44569546      -0.32471996
H       -1.91447870      -0.70314501      -2.34858058
H       -1.43612736       1.00503135      -2.29877438
H       -0.24330759      -0.19503692      -2.66846568
H       -2.20280472       0.82251975       0.40693826
19
Frame=11 idx=008070 GeodesicLength=1.5011072386572692 rxn_smarts="[C:1]([C:2]([C@@:3]([O:4][H:14])([C@@:5]([C:6]([H:16])([H:17])[H:18])([O:7][H:19])[H:15])[H:13])([H:11])[H:12])([H:8])([H:9])[H:10]>>[C:1](=[C:2]([H:11])[H:12])([H:8])[H:10].[C:3](\[O:4][H:14])(=[C:5](/[C:6]([H:16])([H:17])[H:18])[O:7][H:19])[H:13].[H:9][H:15]"
C        1.88381172       1.03620669       1.10143060
C        1.11827496      -0.03251147       1.60283502
C        0.10482263      -1.10430754      -0.15861233
O       -0.36180233      -2.27550689       0.39490509
C       -0.80753802      -0.11050665      -0.58930578
C       -1.14919471      -0.02122171      -2.04773912
O       -1.90834985      -0.10849000       0.28310881
H        2.70349880       0.69008442       0.46996069
H        0.75502580       1.99487861       0.04727197
H        2.30124957       1.72369077       1.83571260
H        1.47661348      -0.99249062       1.95256155
H        0.40873751       0.28054962       2.36942129
H        0.84847109      -1.39527893      -0.89836049
H       -1.18223402      -2.04564362       0.84602047
H       -0.31149740       1.48467940      -0.34596963
H       -1.94347346      -0.71676450      -2.32375921
H       -1.47287891       0.99440205      -2.29304460
H       -0.28524800      -0.19763801      -2.69050960
H       -2.17828887       0.79586837       0.44407267
19
Frame=12 idx=008070 GeodesicLength=1.635330151091724 rxn_smarts="[C:1]([C:2]([C@@:3]([O:4][H:14])([C@@:5]([C:6]([H:16])([H:17])[H:18])([O:7][H:19])[H:15])[H:13])([H:11])[H:12])([H:8])([H:9])[H:10]>>[C:1](=[C:2]([H:11])[H:12])([H:8])[H:10].[C:3](\[O:4][H:14])(=[C:5](/[C:6]([H:16])([H:17])[H:18])[O:7][H:19])[H:13].[H:9][H:15]"
C        1.89855525       1.01654220       1.10694513
C        1.06551358      -0.00029535       1.61999553
C        0.13974629      -1.09016776      -0.18154162
O       -0.30185198      -2.28627050       0.34201586
C       -0.79711510      -0.10701565      -0.59504030
C       -1.17383497      -0.03071405      -2.04492756
O       -1.87894770      -0.13001181       0.30047945
H        2.70738584       0.59782507       0.50481088
H        0.79396424       2.03577431       0.02555891
H        2.36686570       1.67009059       1.84224745
H        1.34307152      -0.96712747       2.01979444
H        0.36790258       0.38599196       2.36557480
H        0.87409287      -1.35695145      -0.94087251
H       -1.11461330      -2.07935898       0.81739652
H       -0.33302209       1.52385784      -0.36689706
H       -1.97017671      -0.73221048      -2.29833618
H       -1.50897132       0.98209969      -2.28714893
H       -0.32632298      -0.20168937      -2.71060808
H       -2.15224172       0.76963120       0.48055328
19
Frame=13 idx=008070 GeodesicLength=1.7706870139942912 rxn_smarts="[C:1]([C:2]([C@@:3]([O:4][H:14])([C@@:5]([C:6]([H:16])([H:17])[H:18])([O:7][H:19])[H:15])[H:13])([H:11])[H:12])([H:8])([H:9])[H:10]>>[C:1](=[C:2]([H:11])[H:12])([H:8])[H:10].[C:3](\[O:4][H:14])(=[C:5](/[C:6]([H:16])([H:17])[H:18])[O:7][H:19])[H:13].[H:9][H:15]"
C        1.91293259       0.99527394       1.11363130
C        1.01391417       0.03342369       1.63314802
C        0.17415098      -1.07472139      -0.20371020
O       -0.24039847      -2.29300799       0.29392819
C       -0.78732508      -0.10364290      -0.60066652
C       -1.19737725      -0.04138572      -2.04158072
O       -1.85014720      -0.15147800       0.31643704
H        2.70633593       0.50668866       0.54296911
H        0.83510722       2.07692936       0.00486905
H        2.42685610       1.60941760       1.85337356
H        1.20557887      -0.93636821       2.07330105
H        0.33741416       0.48918614       2.36064740
H        0.89688551      -1.31920696      -0.98292090
H       -1.04634121      -2.10982486       0.79010124
H       -0.35802183       1.56325694      -0.38736434
H       -1.99439759      -0.74952955      -2.27289535
H       -1.54441581       0.96819887      -2.28121885
H       -0.36623769      -0.20666445      -2.72899044
H       -2.12451340       0.74345483       0.51694136
19
Frame=14 idx=008070 GeodesicLength=1.9076614919375812 rxn_smarts="[C:1]([C:2]([C@@:3]([O:4][H:14])([C@@:5]([C:6]([H:16])([H:17])[H:18])([O:7][H:19])[H:15])[H:13])([H:11])[H:12])([H:8])([H:9])[H:10]>>[C:1](=[C:2]([H:11])[H:12])([H:8])[H:10].[C:3](\[O:4][H:14])(=[C:5](/[C:6]([H:16])([H:17])[H:18])[O:7][H:19])[H:13].[H:9][H:15]"
C        1.92718634       0.97220673       1.12177975
C        0.96372069       0.06879737       1.64241240
C        0.20821174      -1.05782617      -0.22544236
O       -0.17709816      -2.29585282       0.25002750
C       -0.77810427      -0.10024508      -0.60622406
C       -1.22027469      -0.05337523      -2.03751633
O       -1.82164883      -0.17245949       0.33119366
H        2.70094679       0.41628774       0.58522201
H        0.87944495       2.11801717      -0.01526278
H        2.48001122       1.54271650       1.86919662
H        1.06435913      -0.90018784       2.11267772
H        0.31685990       0.58961364       2.35506621
H        0.91729932      -1.28167166      -1.02463583
H       -0.97742079      -2.13728041       0.76334909
H       -0.38677213       1.60282467      -0.40772832
H       -2.01668423      -0.76876319      -2.24681578
H       -1.57983523       0.95247656      -2.27508360
H       -0.40565885      -0.21296757      -2.74570459
H       -2.09454290       0.71768908       0.55348869
19
Frame=15 idx=008070 GeodesicLength=2.0472746899358465 rxn_smarts="[C:1]([C:2]([C@@:3]([O:4][H:14])([C@@:5]([C:6]([H:16])([H:17])[H:18])([O:7][H:19])[H:15])[H:13])([H:11])[H:12])([H:8])([H:9])[H:10]>>[C:1](=[C:2]([H:11])[H:12])([H:8])[H:10].[C:3](\[O:4][H:14])(=[C:5](/[C:6]([H:16])([H:17])[H:18])[O:7][H:19])[H:13].[H:9][H:15]"
C        1.94133615       0.94743471       1.13148540
C        0.91506099       0.10595267       1.64799415
C        0.24178759      -1.03952856      -0.24688450
O       -0.11195558      -2.29509103       0.21045853
C       -0.76953602      -0.09687794      -0.61176914
C       -1.24252346      -0.06666039      -2.03301607
O       -1.79356723      -0.19319788       0.34488915
H        2.69052949       0.32694450       0.63024676
H        0.92759668       2.15950452      -0.03463083
H        2.52706033       1.46994044       1.88986232
H        0.91958508      -0.85803841       2.13809259
H        0.30578092       0.68649891       2.34970778
H        0.93534732      -1.24444149      -1.06608893
H       -0.90780423      -2.16176610       0.73757531
H       -0.41994946       1.64263608      -0.42794222
H       -2.03697706      -0.79002828      -2.22060574
H       -1.61531940       0.93495443      -2.26894734
H       -0.44449272      -0.22033559      -2.76112709
H       -2.06195941       0.69209941       0.59069986
19
Frame=16 idx=008070 GeodesicLength=2.190638479487944 rxn_smarts="[C:1]([C:2]([C@@:3]([O:4][H:14])([C@@:5]([C:6]([H:16])([H:17])[H:18])([O:7][H:19])[H:15])[H:13])([H:11])[H:12])([H:8])([H:9])[H:10]>>[C:1](=[C:2]([H:11])[H:12])([H:8])[H:10].[C:3](\[O:4][H:14])(=[C:5](/[C:6]([H:16])([H:17])[H:18])[O:7][H:19])[H:13].[H:9][H:15]"
C        1.95548822       0.92045156       1.14298917
C        0.86799752       0.14504108       1.64978954
C        0.27508557      -1.01947837      -0.26842335
O       -0.04448174      -2.29036317       0.17473150
C       -0.76156854      -0.09336843      -0.61734780
C       -1.26446300      -0.08133900      -2.02782158
O       -1.76560697      -0.21345003       0.35766999
H        2.67523301       0.23786498       0.67877591
H        0.98086326       2.20081674      -0.05355366
H        2.56698304       1.39168594       1.91538886
H        0.77105700      -0.80923902       2.14835456
H        0.30366822       0.77908081       2.34498685
H        0.95142744      -1.20704667      -1.10744566
H       -0.83681840      -2.18289521       0.71272333
H       -0.45825671       1.68253308      -0.44816244
H       -2.05552863      -0.81343178      -2.19364016
H       -1.65151681       0.91531461      -2.26249343
H       -0.48324971      -0.22890175      -2.77515108
H       -2.02631277       0.66672463       0.62862946
