14
Frame=0 idx=004422 GeodesicLength=0.0 rxn_smarts="[C:1]([C@@:2]1([O:3][H:10])[C:4]([H:11])([H:12])[C@:5]1([O:6][H:14])[H:13])([H:7])([H:8])[H:9]>>[C:1]([C:2][O:3][H:10])([H:7])([H:8])[H:9].[C:4](=[C:5]([O:6][H:14])[H:13])([H:11])[H:12]"
C       -1.19404523       0.38065301      -0.96818348
C        0.16873157       0.79273054      -0.48940504
O        0.15913732       1.92630526       0.19735611
C        0.15708971      -0.89395712       1.31852657
C        1.20761221      -0.67517999       0.49834695
O        1.49145148      -1.56656941      -0.49215534
H       -2.02605399       0.64475062      -0.29886812
H       -1.22917177      -0.68462979      -1.19001512
H       -1.34235030       0.91747157      -1.91151902
H       -0.73688146       2.20192703       0.45151854
H        0.04825845      -0.31555012       2.22462100
H       -0.57406901      -1.65677341       1.08855838
H        2.01019319      -0.00811674       0.79595784
H        1.86009777      -1.06306151      -1.22473929
14
Frame=1 idx=004422 GeodesicLength=0.07037017709597819 rxn_smarts="[C:1]([C@@:2]1([O:3][H:10])[C:4]([H:11])([H:12])[C@:5]1([O:6][H:14])[H:13])([H:7])([H:8])[H:9]>>[C:1]([C:2][O:3][H:10])([H:7])([H:8])[H:9].[C:4](=[C:5]([O:6][H:14])[H:13])([H:11])[H:12]"
C       -1.19948751       0.38879296      -0.98435749
C        0.15318599       0.78251648      -0.46552040
O        0.14478705       1.92326781       0.21132758
C        0.17226486      -0.90206951       1.33681936
C        1.21852847      -0.67987111       0.50692299
O        1.49043816      -1.56343690      -0.49434317
H       -2.05011705       0.68534483      -0.35355636
H       -1.25055194      -0.67950596      -1.18818261
H       -1.30331057       0.90681445      -1.94405802
H       -0.75196057       2.21822313       0.43893119
H        0.08801943      -0.34680716       2.25989136
H       -0.55104149      -1.67544704       1.11730620
H        2.02045277      -0.00901941       0.79793415
H        1.81879240      -1.04880257      -1.23911478
14
Frame=2 idx=004422 GeodesicLength=0.13953038885595548 rxn_smarts="[C:1]([C@@:2]1([O:3][H:10])[C:4]([H:11])([H:12])[C@:5]1([O:6][H:14])[H:13])([H:7])([H:8])[H:9]>>[C:1]([C:2][O:3][H:10])([H:7])([H:8])[H:9].[C:4](=[C:5]([O:6][H:14])[H:13])([H:11])[H:12]"
C       -1.20514330       0.39725007      -1.00060721
C        0.13568517       0.77181123      -0.44056748
O        0.12966533       1.92038861       0.22503347
C        0.18784658      -0.91102324       1.35549378
C        1.22895505      -0.68422334       0.51515635
O        1.48873633      -1.55938554      -0.49711043
H       -2.07214244       0.72791269      -0.41082305
H       -1.27410297      -0.67354294      -1.18558112
H       -1.26252872       0.89432692      -1.97520812
H       -0.76651508       2.23551446       0.42515971
H        0.12891307      -0.37991743       2.29466496
H       -0.52637380      -1.69580473       1.14663354
H        2.02984028      -0.00919229       0.79951579
H        1.77716451      -1.03411446      -1.25176018
14
Frame=3 idx=004422 GeodesicLength=0.20706679030697078 rxn_smarts="[C:1]([C@@:2]1([O:3][H:10])[C:4]([H:11])([H:12])[C@:5]1([O:6][H:14])[H:13])([H:7])([H:8])[H:9]>>[C:1]([C:2][O:3][H:10])([H:7])([H:8])[H:9].[C:4](=[C:5]([O:6][H:14])[H:13])([H:11])[H:12]"
C       -1.21081940       0.40596812      -1.01698942
C        0.11626609       0.76065211      -0.41468266
O        0.11392162       1.91775844       0.23820713
C        0.20375071      -0.92062607       1.37454517
C        1.23875326      -0.68816093       0.52300179
O        1.48617407      -1.55453337      -0.50033519
H       -2.09160154       0.77148327      -0.47022599
H       -1.29945398      -0.66658775      -1.18288116
H       -1.22038106       0.88034002      -2.00448443
H       -0.78035966       2.25315553       0.41086970
H        0.17043446      -0.41403199       2.32849122
H       -0.50010404      -1.71763958       1.17660622
H        2.03828828      -0.00862201       0.80060510
H        1.73513118      -1.01915581      -1.26272748
14
Frame=4 idx=004422 GeodesicLength=0.273094217515403 rxn_smarts="[C:1]([C@@:2]1([O:3][H:10])[C:4]([H:11])([H:12])[C@:5]1([O:6][H:14])[H:13])([H:7])([H:8])[H:9]>>[C:1]([C:2][O:3][H:10])([H:7])([H:8])[H:9].[C:4](=[C:5]([O:6][H:14])[H:13])([H:11])[H:12]"
C       -1.21659836       0.41487653      -1.03341335
C        0.09471382       0.74890412      -0.38785327
O        0.09781624       1.91546407       0.25028523
C        0.21983007      -0.93102143       1.39388812
C        1.24778294      -0.69159774       0.53052537
O        1.48280609      -1.54868653      -0.50395779
H       -2.10813967       0.81619229      -0.53153720
H       -1.32688292      -0.65857556      -1.18001934
H       -1.17713796       0.86455024      -2.03166241
H       -0.79313799       2.27124282       0.39591287
H        0.21255160      -0.44940773       2.36134530
H       -0.47213671      -1.74115817       1.20698491
H        2.04552949      -0.00717012       0.80145284
H        1.69300335      -1.00361277      -1.27195129
14
Frame=5 idx=004422 GeodesicLength=0.33747420854959953 rxn_smarts="[C:1]([C@@:2]1([O:3][H:10])[C:4]([H:11])([H:12])[C@:5]1([O:6][H:14])[H:13])([H:7])([H:8])[H:9]>>[C:1]([C:2][O:3][H:10])([H:7])([H:8])[H:9].[C:4](=[C:5]([O:6][H:14])[H:13])([H:11])[H:12]"
C       -1.22235622       0.42388549      -1.04983827
C        0.07098353       0.73656137      -0.36010714
O        0.08163187       1.91356874       0.26094579
C        0.23598403      -0.94215243       1.41349055
C        1.25590849      -0.69448689       0.53772295
O        1.47851255      -1.54186497      -0.50792349
H       -2.12142046       0.86130391      -0.59421572
H       -1.35611988      -0.64942592      -1.17752119
H       -1.13318099       0.84719241      -2.05635619
H       -0.80465169       2.28952978       0.38050935
H        0.25487683      -0.48551682       2.39297099
H       -0.44247638      -1.76627894       1.23772028
H        2.05146780      -0.00484569       0.80208811
H        1.65084051      -0.98747000      -1.27948601
14
Frame=6 idx=004422 GeodesicLength=0.40022010311746137 rxn_smarts="[C:1]([C@@:2]1([O:3][H:10])[C:4]([H:11])([H:12])[C@:5]1([O:6][H:14])[H:13])([H:7])([H:8])[H:9]>>[C:1]([C:2][O:3][H:10])([H:7])([H:8])[H:9].[C:4](=[C:5]([O:6][H:14])[H:13])([H:11])[H:12]"
C       -1.22805650       0.43288475      -1.06621042
C        0.04496515       0.72357525      -0.33146891
O        0.06574203       1.91209949       0.26970574
C        0.25206496      -0.95399580       1.43329769
C        1.26298921      -0.69676620       0.54462806
O        1.47323411      -1.53400950      -0.51218191
H       -2.13121346       0.90635332      -0.65770468
H       -1.38702080      -0.63912368      -1.17581184
H       -1.08891291       0.82837975      -2.07832242
H       -0.81462940       2.30784264       0.36483167
H        0.29717361      -0.52208532       2.42326511
H       -0.41114030      -1.79295379       1.26868846
H        2.05596188      -0.00161175       0.80263862
H        1.60884242      -0.97058915      -1.28535518
14
Frame=7 idx=004422 GeodesicLength=0.4611831052508028 rxn_smarts="[C:1]([C@@:2]1([O:3][H:10])[C:4]([H:11])([H:12])[C@:5]1([O:6][H:14])[H:13])([H:7])([H:8])[H:9]>>[C:1]([C:2][O:3][H:10])([H:7])([H:8])[H:9].[C:4](=[C:5]([O:6][H:14])[H:13])([H:11])[H:12]"
C       -1.23345761       0.44179356      -1.08243975
C        0.01658418       0.70996400      -0.30184576
O        0.05027301       1.91083265       0.27673665
C        0.26811063      -0.96647251       1.45330541
C        1.26888053      -0.69849370       0.55117149
O        1.46657190      -1.52521831      -0.51675341
H       -2.13743602       0.95043027      -0.72146322
H       -1.41896466      -0.62763745      -1.17558191
H       -1.04445951       0.80868646      -2.09716160
H       -0.82305370       2.32602323       0.34884581
H        0.33904047      -0.55819978       2.45193043
H       -0.37799340      -1.82101877       1.30001620
H        2.05899691       0.00231051       0.80290237
H        1.56690726      -0.95300017      -1.28966272
14
Frame=8 idx=004422 GeodesicLength=0.5206976579144738 rxn_smarts="[C:1]([C@@:2]1([O:3][H:10])[C:4]([H:11])([H:12])[C@:5]1([O:6][H:14])[H:13])([H:7])([H:8])[H:9]>>[C:1]([C:2][O:3][H:10])([H:7])([H:8])[H:9].[C:4](=[C:5]([O:6][H:14])[H:13])([H:11])[H:12]"
C       -1.23871009       0.45045556      -1.09836536
C       -0.01437508       0.69568109      -0.27126045
O        0.03582566       1.90979425       0.28117551
C        0.28386563      -0.97972556       1.47335093
C        1.27343610      -0.69949898       0.55745132
O        1.45872821      -1.51511436      -0.52164986
H       -2.13991717       0.99404784      -0.78532966
H       -1.45248790      -0.61504519      -1.17638954
H       -1.00016094       0.78729863      -2.11297537
H       -0.82942373       2.34401574       0.33272536
H        0.38039341      -0.59427884       2.47908307
H       -0.34298591      -1.85066487       1.33127774
H        2.06031082       0.00712982       0.80334768
H        1.52550098      -0.93409512      -1.29244139
14
Frame=9 idx=004422 GeodesicLength=0.5784622985111811 rxn_smarts="[C:1]([C@@:2]1([O:3][H:10])[C:4]([H:11])([H:12])[C@:5]1([O:6][H:14])[H:13])([H:7])([H:8])[H:9]>>[C:1]([C:2][O:3][H:10])([H:7])([H:8])[H:9].[C:4](=[C:5]([O:6][H:14])[H:13])([H:11])[H:12]"
C       -1.24348978       0.45881472      -1.11407441
C       -0.04752533       0.68094045      -0.24027116
O        0.02270715       1.90863397       0.28304705
C        0.29905060      -0.99320865       1.49327605
C        1.27649815      -0.69976779       0.56337802
O        1.44947047      -1.50403461      -0.52670985
H       -2.13866555       1.03600015      -0.84823425
H       -1.48662147      -0.60140238      -1.17935063
H       -0.95665440       0.76523652      -2.12571948
H       -0.83383685       2.36094917       0.31756806
H        0.42064233      -0.62897244       2.50442085
H       -0.30611303      -1.88143613       1.36270654
H        2.06000131       0.01261243       0.80381380
H        1.48453641      -0.91436540      -1.29385060
14
Frame=10 idx=004422 GeodesicLength=0.6346676421869735 rxn_smarts="[C:1]([C@@:2]1([O:3][H:10])[C:4]([H:11])([H:12])[C@:5]1([O:6][H:14])[H:13])([H:7])([H:8])[H:9]>>[C:1]([C:2][O:3][H:10])([H:7])([H:8])[H:9].[C:4](=[C:5]([O:6][H:14])[H:13])([H:11])[H:12]"
C       -1.24745573       0.46684321      -1.12974028
C       -0.08293132       0.66576318      -0.20888034
O        0.01023531       1.90646994       0.28392662
C        0.31383551      -1.00646544       1.51322211
C        1.27798437      -0.69945837       0.56877135
O        1.43797943      -1.49234317      -0.53203888
H       -2.13372664       1.07602443      -0.91046448
H       -1.52085746      -0.58670631      -1.18512645
H       -0.91337053       0.74301834      -2.13543669
H       -0.83691245       2.37659058       0.30343440
H        0.46048327      -0.66159807       2.52807823
H       -0.26743646      -1.91249468       1.39473549
H        2.05828889       0.01841577       0.80362408
H        1.44388382      -0.89405941      -1.29410516
14
Frame=11 idx=004422 GeodesicLength=0.6891453910402481 rxn_smarts="[C:1]([C@@:2]1([O:3][H:10])[C:4]([H:11])([H:12])[C@:5]1([O:6][H:14])[H:13])([H:7])([H:8])[H:9]>>[C:1]([C:2][O:3][H:10])([H:7])([H:8])[H:9].[C:4](=[C:5]([O:6][H:14])[H:13])([H:11])[H:12]"
C       -1.25037830       0.47459244      -1.14555461
C       -0.11979084       0.65035748      -0.17821713
O       -0.00163782       1.90273853       0.28416630
C        0.32793339      -1.01877498       1.53291056
C        1.27793756      -0.69857056       0.57350627
O        1.42436919      -1.48053317      -0.53739125
H       -2.12494990       1.11411518      -0.97145087
H       -1.55480343      -0.57092237      -1.19404896
H       -0.87093042       0.72088661      -2.14273611
H       -0.83925217       2.38953133       0.29241271
H        0.49952281      -0.69093577       2.54977265
H       -0.22720412      -1.94297545       1.42744154
H        2.05539678       0.02437895       0.80260791
H        1.40378727      -0.87388822      -1.29341900
14
Frame=12 idx=004422 GeodesicLength=0.7418215744647914 rxn_smarts="[C:1]([C@@:2]1([O:3][H:10])[C:4]([H:11])([H:12])[C@:5]1([O:6][H:14])[H:13])([H:7])([H:8])[H:9]>>[C:1]([C:2][O:3][H:10])([H:7])([H:8])[H:9].[C:4](=[C:5]([O:6][H:14])[H:13])([H:11])[H:12]"
C       -1.25186612       0.48228344      -1.16177170
C       -0.15717025       0.63488365      -0.14934469
O       -0.01361359       1.89685312       0.28539879
C        0.34123438      -1.02937612       1.55215384
C        1.27649080      -0.69740819       0.57729955
O        1.40842057      -1.46964832      -0.54260013
H       -2.11255368       1.14990803      -1.03064858
H       -1.58744208      -0.55397463      -1.20697430
H       -0.82938964       0.70006097      -2.14806257
H       -0.84201019       2.39882933       0.28610096
H        0.53713631      -0.71490972       2.56914471
H       -0.18512077      -1.97219173       1.46148232
H        2.05183092       0.02995295       0.80001403
H        1.36405335      -0.85526279      -1.29219220
14
Frame=13 idx=004422 GeodesicLength=0.792729893807184 rxn_smarts="[C:1]([C@@:2]1([O:3][H:10])[C:4]([H:11])([H:12])[C@:5]1([O:6][H:14])[H:13])([H:7])([H:8])[H:9]>>[C:1]([C:2][O:3][H:10])([H:7])([H:8])[H:9].[C:4](=[C:5]([O:6][H:14])[H:13])([H:11])[H:12]"
C       -1.25167909       0.49015542      -1.17885857
C       -0.19419445       0.61916500      -0.12333211
O       -0.02659165       1.88823322       0.28895647
C        0.35393108      -1.03746192       1.57100004
C        1.27405291      -0.69625290       0.58002639
O        1.39031099      -1.46076905      -0.54728790
H       -2.09671351       1.18357422      -1.08763422
H       -1.61810839      -0.53574043      -1.22473495
H       -0.78890008       0.68157573      -2.15227281
H       -0.84662943       2.40333303       0.28623659
H        0.57385091      -0.73260195       2.58632622
H       -0.14209542      -1.99842295       1.49707071
H        2.04812374       0.03489684       0.79515470
H        1.32464238      -0.83968426      -1.29065056
14
Frame=14 idx=004422 GeodesicLength=0.8421740795936842 rxn_smarts="[C:1]([C@@:2]1([O:3][H:10])[C:4]([H:11])([H:12])[C@:5]1([O:6][H:14])[H:13])([H:7])([H:8])[H:9]>>[C:1]([C:2][O:3][H:10])([H:7])([H:8])[H:9].[C:4](=[C:5]([O:6][H:14])[H:13])([H:11])[H:12]"
C       -1.24969609       0.49853193      -1.19703120
C       -0.23042715       0.60297024      -0.10063688
O       -0.04124521       1.87676734       0.29575040
C        0.36615194      -1.04279268       1.58950550
C        1.27085278      -0.69542174       0.58161786
O        1.37021949      -1.45475260      -0.55118996
H       -2.07792926       1.21531160      -1.14193458
H       -1.64607182      -0.51609894      -1.24800320
H       -0.74931824       0.66664100      -2.15585428
H       -0.85398250       2.40290231       0.29310356
H        0.60964499      -0.74332243       2.60139364
H       -0.09784711      -2.02131301       1.53472857
H        2.04453413       0.03894384       0.78755812
H        1.28511404      -0.82836687      -1.28900754
14
Frame=15 idx=004422 GeodesicLength=0.8905937375299887 rxn_smarts="[C:1]([C@@:2]1([O:3][H:10])[C:4]([H:11])([H:12])[C@:5]1([O:6][H:14])[H:13])([H:7])([H:8])[H:9]>>[C:1]([C:2][O:3][H:10])([H:7])([H:8])[H:9].[C:4](=[C:5]([O:6][H:14])[H:13])([H:11])[H:12]"
C       -1.24596061       0.50757952      -1.21628611
C       -0.26595891       0.58593710      -0.08113668
O       -0.05804986       1.86245133       0.30608952
C        0.37821534      -1.04548534       1.60780165
C        1.26710519      -0.69507223       0.58209055
O        1.34837925      -1.45188612      -0.55421644
H       -2.05632919       1.24590582      -1.19371079
H       -1.67140693      -0.49486544      -1.27662948
H       -0.71022264       0.65522263      -2.15904883
H       -0.86457934       2.39765231       0.30637654
H        0.64497856      -0.74744454       2.61459613
H       -0.05254658      -2.04048750       1.57441884
H        2.04108725       0.04214856       0.77701659
H        1.24528847      -0.82165612      -1.28736150
14
Frame=16 idx=004422 GeodesicLength=0.9385410923316716 rxn_smarts="[C:1]([C@@:2]1([O:3][H:10])[C:4]([H:11])([H:12])[C@:5]1([O:6][H:14])[H:13])([H:7])([H:8])[H:9]>>[C:1]([C:2][O:3][H:10])([H:7])([H:8])[H:9].[C:4](=[C:5]([O:6][H:14])[H:13])([H:11])[H:12]"
C       -1.24049571       0.51745682      -1.23649852
C       -0.30120162       0.56774943      -0.06440493
O       -0.07745051       1.84530623       0.32014634
C        0.39039584      -1.04582651       1.62595898
C        1.26283326      -0.69529424       0.58141016
O        1.32478236      -1.45220528      -0.55641876
H       -2.03158043       1.27641667      -1.24362904
H       -1.69451203      -0.47165676      -1.31011054
H       -0.67089356       0.64664381      -2.16176203
H       -0.87881423       2.38778004       0.32551330
H        0.68018846      -0.74536940       2.62603123
H       -0.00574589      -2.05608796       1.61622955
H        2.03759023       0.04460265       0.76333941
H        1.20490383      -0.81951553      -1.28580516
