16
Frame=0 idx=011128 GeodesicLength=0.0 rxn_smarts="[C:1]([C:2]1([C:6]#[N:7])[C:3]([H:11])([H:12])[C:4]([H:13])([H:14])[C:5]1([H:15])[H:16])([H:8])([H:9])[H:10]>>[C:1]([C:2](=[C:3]([H:11])[H:12])[C:5]([C:4]([C:6]#[N:7])([H:13])[H:14])([H:15])[H:16])([H:8])([H:9])[H:10]"
C        1.44940546       1.19612656       0.09056603
C        0.28805017       0.22284239       0.12965171
C       -0.37885085       0.07935283       1.44306957
C       -1.33468937      -1.09027391      -0.58247895
C       -0.77225245       0.28577314      -0.94855708
C        0.56837724      -1.31766289      -0.08346225
N        1.33567007      -2.19013354      -0.18573667
H        1.94881049       1.17092215      -0.87839671
H        2.18192958       0.96223175       0.86325385
H        1.07540751       2.21051442       0.25292825
H       -0.44680501       0.94632318       2.09681527
H       -0.54867957      -0.88288487       1.89315191
H       -1.27589510      -1.88609052      -1.31558223
H       -2.24447051      -1.13091393       0.00164684
H       -0.35620207       0.32364093      -1.95919060
H       -1.48980552       1.10023231      -0.81767894
16
Frame=1 idx=011128 GeodesicLength=0.09254175930501558 rxn_smarts="[C:1]([C:2]1([C:6]#[N:7])[C:3]([H:11])([H:12])[C:4]([H:13])([H:14])[C:5]1([H:15])[H:16])([H:8])([H:9])[H:10]>>[C:1]([C:2](=[C:3]([H:11])[H:12])[C:5]([C:4]([C:6]#[N:7])([H:13])[H:14])([H:15])[H:16])([H:8])([H:9])[H:10]"
C        1.44286437       1.21090383       0.09642771
C        0.29751322       0.22053668       0.13017666
C       -0.38549429       0.07320999       1.43154359
C       -1.33797216      -1.08427308      -0.56248355
C       -0.75790481       0.27685358      -0.95492955
C        0.58114886      -1.34133816      -0.09361157
N        1.34555992      -2.21516323      -0.19314313
H        1.92929734       1.22222723      -0.87940548
H        2.19200258       0.96544435       0.84950486
H        1.06031950       2.21582075       0.29302380
H       -0.45389282       0.93427049       2.09277886
H       -0.54191595      -0.88898857       1.88784015
H       -1.31352123      -1.88459510      -1.29319091
H       -2.25522084      -1.09599243       0.01195665
H       -0.33991428       0.28546551      -1.96520371
H       -1.46286942       1.10561815      -0.85128438
16
Frame=2 idx=011128 GeodesicLength=0.184934808792869 rxn_smarts="[C:1]([C:2]1([C:6]#[N:7])[C:3]([H:11])([H:12])[C:4]([H:13])([H:14])[C:5]1([H:15])[H:16])([H:8])([H:9])[H:10]>>[C:1]([C:2](=[C:3]([H:11])[H:12])[C:5]([C:4]([C:6]#[N:7])([H:13])[H:14])([H:15])[H:16])([H:8])([H:9])[H:10]"
C        1.43601946       1.22557558       0.10204430
C        0.30699024       0.21829224       0.13103566
C       -0.39172033       0.06726543       1.42032610
C       -1.34077409      -1.07801977      -0.54312327
C       -0.74354187       0.26783661      -0.96090382
C        0.59338366      -1.36566230      -0.10350864
N        1.35498593      -2.24084472      -0.19969759
H        1.90795895       1.27341225      -0.87981342
H        2.20224281       0.96942343       0.83423899
H        1.04558721       2.21995880       0.33275312
H       -0.46060119       0.92243465       2.08889766
H       -0.53579602      -0.89464548       1.88257982
H       -1.35032813      -1.88143668      -1.27136869
H       -2.26477416      -1.06116428       0.02113404
H       -0.32388542       0.24782268      -1.97009829
H       -1.43574705       1.10975156      -0.88449597
16
Frame=3 idx=011128 GeodesicLength=0.27719343298833304 rxn_smarts="[C:1]([C:2]1([C:6]#[N:7])[C:3]([H:11])([H:12])[C:4]([H:13])([H:14])[C:5]1([H:15])[H:16])([H:8])([H:9])[H:10]>>[C:1]([C:2](=[C:3]([H:11])[H:12])[C:5]([C:4]([C:6]#[N:7])([H:13])[H:14])([H:15])[H:16])([H:8])([H:9])[H:10]"
C        1.42887087       1.24016173       0.10743526
C        0.31648690       0.21611905       0.13222378
C       -0.39754679       0.06151128       1.40940928
C       -1.34313369      -1.07152931      -0.52438467
C       -0.72914144       0.25873038      -0.96649483
C        0.60507154      -1.39065852      -0.11316487
N        1.36396138      -2.26717279      -0.20543865
H        1.88480183       1.32443709      -0.87957055
H        2.21258753       0.97423300       0.81745965
H        1.03125913       2.22298861       0.37210870
H       -0.46695553       0.91079951       2.08517694
H       -0.53026370      -0.89991447       1.87736963
H       -1.38636551      -1.87665029      -1.25014961
H       -2.27314942      -1.02644406       0.02927402
H       -0.30806306       0.21070399      -1.97393199
H       -1.40842003       1.11268481      -0.91732209
16
Frame=4 idx=011128 GeodesicLength=0.369332782403512 rxn_smarts="[C:1]([C:2]1([C:6]#[N:7])[C:3]([H:11])([H:12])[C:4]([H:13])([H:14])[C:5]1([H:15])[H:16])([H:8])([H:9])[H:10]>>[C:1]([C:2](=[C:3]([H:11])[H:12])[C:5]([C:4]([C:6]#[N:7])([H:13])[H:14])([H:15])[H:16])([H:8])([H:9])[H:10]"
C        1.42141270       1.25468933       0.11261666
C        0.32600793       0.21403063       0.13373467
C       -0.40298922       0.05593993       1.39878372
C       -1.34508280      -1.06481411      -0.50625683
C       -0.71468233       0.24953953      -0.97171778
C        0.61620016      -1.41634955      -0.12259241
N        1.37250159      -2.29413580      -0.21040466
H        1.85982925       1.37526018      -0.87861683
H        2.22297325       0.97992730       0.79915851
H        1.01739447       2.22496118       0.41109300
H       -0.47298439       0.89934898       2.08161750
H       -0.52526565      -0.90484591       1.87220536
H       -1.42167856      -1.87026577      -1.22955275
H       -2.28036391      -0.99183902       0.03646166
H       -0.29240108       0.17409599      -1.97675735
H       -1.38087141       1.11445711      -0.94977246
16
Frame=5 idx=011128 GeodesicLength=0.4613642916059839 rxn_smarts="[C:1]([C:2]1([C:6]#[N:7])[C:3]([H:11])([H:12])[C:4]([H:13])([H:14])[C:5]1([H:15])[H:16])([H:8])([H:9])[H:10]>>[C:1]([C:2](=[C:3]([H:11])[H:12])[C:5]([C:4]([C:6]#[N:7])([H:13])[H:14])([H:15])[H:16])([H:8])([H:9])[H:10]"
C        1.41364508       1.26917218       0.11760265
C        0.33555853       0.21203744       0.13556196
C       -0.40806069       0.05054570       1.38843995
C       -1.34665078      -1.05788699      -0.48872560
C       -0.70014249       0.24026917      -0.97658923
C        0.62675936      -1.44275885      -0.13180463
N        1.38061988      -2.32172961      -0.21463585
H        1.83304566       1.42583714      -0.87688549
H        2.23332963       0.98656781       0.77932228
H        1.00403693       2.22592480       0.44970493
H       -0.47871024       0.88807099       2.07821875
H       -0.52075279      -0.90948299       1.86708287
H       -1.45630199      -1.86230316      -1.20959759
H       -2.28643823      -0.95734988       0.04277735
H       -0.27685554       0.13798450      -1.97861970
H       -1.35308232       1.11510173      -0.98185265
16
Frame=6 idx=011128 GeodesicLength=0.5533032835553917 rxn_smarts="[C:1]([C:2]1([C:6]#[N:7])[C:3]([H:11])([H:12])[C:4]([H:13])([H:14])[C:5]1([H:15])[H:16])([H:8])([H:9])[H:10]>>[C:1]([C:2](=[C:3]([H:11])[H:12])[C:5]([C:4]([C:6]#[N:7])([H:13])[H:14])([H:15])[H:16])([H:8])([H:9])[H:10]"
C        1.40556109       1.28363151       0.12240744
C        0.34514232       0.21015447       0.13770052
C       -0.41277450       0.04531968       1.37836891
C       -1.34786360      -1.05075837      -0.47177778
C       -0.68550320       0.23092038      -0.98112060
C        0.63672998      -1.46991302      -0.14081333
N        1.38832709      -2.34994358      -0.21816991
H        1.80444861       1.47611414      -0.87432629
H        2.24357464       0.99423392       0.75794665
H        0.99126561       2.22591871       0.48795038
H       -0.48415520       0.87694884       2.07498097
H       -0.51667625      -0.91386843       1.86199621
H       -1.49026286      -1.85277639      -1.19030037
H       -2.29139111      -0.92297447       0.04828936
H       -0.26138604       0.10234872      -1.97956250
H       -1.32503659       1.11464389      -1.01356965
16
Frame=7 idx=011128 GeodesicLength=0.6451589553627198 rxn_smarts="[C:1]([C:2]1([C:6]#[N:7])[C:3]([H:11])([H:12])[C:4]([H:13])([H:14])[C:5]1([H:15])[H:16])([H:8])([H:9])[H:10]>>[C:1]([C:2](=[C:3]([H:11])[H:12])[C:5]([C:4]([C:6]#[N:7])([H:13])[H:14])([H:15])[H:16])([H:8])([H:9])[H:10]"
C        1.39715672       1.29808199       0.12704372
C        0.35476202       0.20839619       0.14014428
C       -0.41714367       0.04025626       1.36856161
C       -1.34874449      -1.04343867      -0.45539877
C       -0.67074715       0.22149428      -0.98532530
C        0.64609203      -1.49783819      -0.14963204
N        1.39563293      -2.37877061      -0.22104281
H        1.77403134       1.52604339      -0.87086719
H        2.25362422       1.00299352       0.73501514
H        0.97915940       2.22497549       0.52582702
H       -0.48933690       0.86597428       2.07190278
H       -0.51299317      -0.91803478       1.85693877
H       -1.52357036      -1.84170027      -1.17167690
H       -2.29524447      -0.88871189       0.05306308
H       -0.24595710       0.06717197      -1.97962546
H       -1.29672136       1.11310704      -1.04492794
16
Frame=8 idx=011128 GeodesicLength=0.7369409984253605 rxn_smarts="[C:1]([C:2]1([C:6]#[N:7])[C:3]([H:11])([H:12])[C:4]([H:13])([H:14])[C:5]1([H:15])[H:16])([H:8])([H:9])[H:10]>>[C:1]([C:2](=[C:3]([H:11])[H:12])[C:5]([C:4]([C:6]#[N:7])([H:13])[H:14])([H:15])[H:16])([H:8])([H:9])[H:10]"
C        1.38842487       1.31254136       0.13152172
C        0.36442126       0.20677690       0.14288831
C       -0.42117627       0.03534623       1.35901102
C       -1.34931310      -1.03593258      -0.43957341
C       -0.65585271       0.21198545      -0.98921553
C        0.65481326      -1.52656518      -0.15827802
N        1.40253830      -2.40820441      -0.22329232
H        1.74178003       1.57558100      -0.86644398
H        2.26339441       1.01292870       0.71050908
H        0.96779699       2.22312374       0.56334926
H       -0.49427440       0.85513451       2.06898003
H       -0.50966113      -0.92201347       1.85190325
H       -1.55623054      -1.82908004      -1.15373311
H       -2.29801449      -0.85454749       0.05715429
H       -0.23053042       0.03242233      -1.97884056
H       -1.26811606       1.11050294      -1.07594004
16
Frame=9 idx=011128 GeodesicLength=0.8286608086822789 rxn_smarts="[C:1]([C:2]1([C:6]#[N:7])[C:3]([H:11])([H:12])[C:4]([H:13])([H:14])[C:5]1([H:15])[H:16])([H:8])([H:9])[H:10]>>[C:1]([C:2](=[C:3]([H:11])[H:12])[C:5]([C:4]([C:6]#[N:7])([H:13])[H:14])([H:15])[H:16])([H:8])([H:9])[H:10]"
C        1.37939212       1.32702835       0.13586587
C        0.37411770       0.20534511       0.14591828
C       -0.42486210       0.03058331       1.34969784
C       -1.34958394      -1.02825640      -0.42428662
C       -0.64081221       0.20241889      -0.99281339
C        0.66286654      -1.55611899      -0.16677904
N        1.40903314      -2.43820635      -0.22499356
H        1.70783616       1.62460722      -0.86101040
H        2.27267844       1.02406269       0.68453540
H        0.95718233       2.22043010       0.60038927
H       -0.49898091       0.84441232       2.06620800
H       -0.50660712      -0.92583535       1.84686022
H       -1.58822542      -1.81501477      -1.13644811
H       -2.29974235      -0.82050007       0.06066263
H       -0.21508017      -0.00188007      -1.97725627
H       -1.23921221       1.10692401      -1.10655013
16
Frame=10 idx=011128 GeodesicLength=0.9203258593500049 rxn_smarts="[C:1]([C:2]1([C:6]#[N:7])[C:3]([H:11])([H:12])[C:4]([H:13])([H:14])[C:5]1([H:15])[H:16])([H:8])([H:9])[H:10]>>[C:1]([C:2](=[C:3]([H:11])[H:12])[C:5]([C:4]([C:6]#[N:7])([H:13])[H:14])([H:15])[H:16])([H:8])([H:9])[H:10]"
C        1.37001890       1.34155677       0.14007354
C        0.38386470       0.20408120       0.14924076
C       -0.42822566       0.02596367       1.34062245
C       -1.34957453      -1.02039998      -0.40952634
C       -0.62558570       0.19276230      -0.99612204
C        0.67022161      -1.58653687      -0.17513284
N        1.41512965      -2.46880970      -0.22613061
H        1.67201987       1.67317560      -0.85449297
H        2.28148239       1.03649242       0.65693366
H        0.94746151       2.21688606       0.63711473
H       -0.50345882       0.83380488       2.06359158
H       -0.50382999      -0.92952236       1.84182397
H       -1.61956844      -1.79942871      -1.11984197
H       -2.30042358      -0.78651282       0.06357539
H       -0.19956049      -0.03582047      -1.97488657
H       -1.20997142       1.10230802      -1.13684275
16
Frame=11 idx=011128 GeodesicLength=1.0119451432260718 rxn_smarts="[C:1]([C:2]1([C:6]#[N:7])[C:3]([H:11])([H:12])[C:4]([H:13])([H:14])[C:5]1([H:15])[H:16])([H:8])([H:9])[H:10]>>[C:1]([C:2](=[C:3]([H:11])[H:12])[C:5]([C:4]([C:6]#[N:7])([H:13])[H:14])([H:15])[H:16])([H:8])([H:9])[H:10]"
C        1.36029183       1.35614692       0.14415535
C        0.39366844       0.20300447       0.15285084
C       -0.43126679       0.02148537       1.33177598
C       -1.34929551      -1.01236264      -0.39528012
C       -0.61015067       0.18301903      -0.99914908
C        0.67685398      -1.61784896      -0.18335078
N        1.42083228      -2.50000539      -0.22674436
H        1.63435523       1.72121280      -0.84684969
H        2.28969218       1.05025492       0.62770727
H        0.93866276       2.21254000       0.67351596
H       -0.50771341       0.82329916       2.06112790
H       -0.50129326      -0.93309785       1.83678096
H       -1.65025263      -1.78233768      -1.10390781
H       -2.30007408      -0.75256412       0.06593446
H       -0.18393858      -0.06941834      -1.97175663
H       -1.18037177       1.09667232      -1.16681026
16
Frame=12 idx=011128 GeodesicLength=1.103530712881756 rxn_smarts="[C:1]([C:2]1([C:6]#[N:7])[C:3]([H:11])([H:12])[C:4]([H:13])([H:14])[C:5]1([H:15])[H:16])([H:8])([H:9])[H:10]>>[C:1]([C:2](=[C:3]([H:11])[H:12])[C:5]([C:4]([C:6]#[N:7])([H:13])[H:14])([H:15])[H:16])([H:8])([H:9])[H:10]"
C        1.35020143       1.37081297       0.14812709
C        0.40353969       0.20212745       0.15674965
C       -0.43398738       0.01714243       1.32315193
C       -1.34875620      -1.00413518      -0.38153855
C       -0.59447280       0.17318047      -1.00190111
C        0.68272277      -1.65009698      -0.19143875
N        1.42613047      -2.53179906      -0.22685455
H        1.59479111       1.76870620      -0.83802524
H        2.29719481       1.06539590       0.59679893
H        0.93084299       2.20741625       0.70961217
H       -0.51174026       0.81288180       2.05882253
H       -0.49897088      -0.93658516       1.83172177
H       -1.68025741      -1.76374273      -1.08863958
H       -2.29870055      -0.71861352       0.06776053
H       -0.16816662      -0.10271449      -1.96788132
H       -1.15037116       1.09002365      -1.19646550
16
Frame=13 idx=011128 GeodesicLength=1.195085482333356 rxn_smarts="[C:1]([C:2]1([C:6]#[N:7])[C:3]([H:11])([H:12])[C:4]([H:13])([H:14])[C:5]1([H:15])[H:16])([H:8])([H:9])[H:10]>>[C:1]([C:2](=[C:3]([H:11])[H:12])[C:5]([C:4]([C:6]#[N:7])([H:13])[H:14])([H:15])[H:16])([H:8])([H:9])[H:10]"
C        1.33973421       1.38557343       0.15200323
C        0.41348903       0.20146555       0.16093659
C       -0.43638721       0.01293144       1.31474303
C       -1.34796239      -0.99571297      -0.36828981
C       -0.57852322       0.16324324      -1.00438467
C        0.68778661      -1.68331876      -0.19940832
N        1.43101473      -2.56419011      -0.22649314
H        1.55331276       1.81559572      -0.82795500
H        2.30385975       1.08197396       0.56418391
H        0.92406125       2.20154158       0.74539188
H       -0.51553773       0.80254380       2.05667557
H       -0.49683175      -0.94000273       1.82663502
H       -1.70955389      -1.74364764      -1.07403473
H       -2.29631403      -0.68463344       0.06908175
H       -0.15220809      -0.13573761      -1.96327445
H       -1.11994002       1.08237453      -1.22581085
16
Frame=14 idx=011128 GeodesicLength=1.286619622322416 rxn_smarts="[C:1]([C:2]1([C:6]#[N:7])[C:3]([H:11])([H:12])[C:4]([H:13])([H:14])[C:5]1([H:15])[H:16])([H:8])([H:9])[H:10]>>[C:1]([C:2](=[C:3]([H:11])[H:12])[C:5]([C:4]([C:6]#[N:7])([H:13])[H:14])([H:15])[H:16])([H:8])([H:9])[H:10]"
C        1.32886617       1.40045280       0.15578452
C        0.42353161       0.20103184       0.16540862
C       -0.43845841       0.00884795       1.30654070
C       -1.34691900      -0.98708399      -0.35552320
C       -0.56226476       0.15319128      -1.00660746
C        0.69198808      -1.71756327      -0.20727084
N        1.43546310      -2.59718654      -0.22568562
H        1.50986133       1.86185288      -0.81655538
H        2.30954383       1.10006136       0.52982893
H        0.91840025       2.19492466       0.78086521
H       -0.51909774       0.79227729       2.05468360
H       -0.49484371      -0.94336650       1.82150834
H       -1.73811319      -1.72204834      -1.06008437
H       -2.29290799      -0.65057740       0.06991230
H       -0.13602546      -0.16853498      -1.95794703
H       -1.08902412       1.07372097      -1.25485833
16
Frame=15 idx=011128 GeodesicLength=1.3781352306503303 rxn_smarts="[C:1]([C:2]1([C:6]#[N:7])[C:3]([H:11])([H:12])[C:4]([H:13])([H:14])[C:5]1([H:15])[H:16])([H:8])([H:9])[H:10]>>[C:1]([C:2](=[C:3]([H:11])[H:12])[C:5]([C:4]([C:6]#[N:7])([H:13])[H:14])([H:15])[H:16])([H:8])([H:9])[H:10]"
C        1.31757732       1.41546984       0.15947953
C        0.43368345       0.20083950       0.17016456
C       -0.44019244       0.00488873       1.29853806
C       -1.34562863      -0.97823649      -0.34322673
C       -0.54566172       0.14301568      -1.00857449
C        0.69526749      -1.75287849      -0.21503914
N        1.43944806      -2.63079490      -0.22446533
H        1.46439762       1.90741546      -0.80374661
H        2.31407744       1.11974904       0.49372056
H        0.91394759       2.18758039       0.81601150
H       -0.52240977       0.78207552       2.05284228
H       -0.49297432      -0.94669112       1.81632915
H       -1.76589389      -1.69894714      -1.04678879
H       -2.28848088      -0.61640859       0.07027017
H       -0.11958491      -0.20114482      -1.95190469
H       -1.05757242       1.06406740      -1.28361003
16
Frame=16 idx=011128 GeodesicLength=1.4696458510930415 rxn_smarts="[C:1]([C:2]1([C:6]#[N:7])[C:3]([H:11])([H:12])[C:4]([H:13])([H:14])[C:5]1([H:15])[H:16])([H:8])([H:9])[H:10]>>[C:1]([C:2](=[C:3]([H:11])[H:12])[C:5]([C:4]([C:6]#[N:7])([H:13])[H:14])([H:15])[H:16])([H:8])([H:9])[H:10]"
C        1.30584460       1.43064472       0.16309247
C        0.44396858       0.20089803       0.17520601
C       -0.44157834       0.00105324       1.29072580
C       -1.34409154      -0.96915017      -0.33139194
C       -0.52866706       0.13270125      -1.01029636
C        0.69755138      -1.78932475      -0.22271662
N        1.44292734      -2.66503583      -0.22284753
H        1.41680736       1.95225766      -0.78939240
H        2.31728608       1.14114664       0.45577041
H        0.91082843       2.17949571       0.85084224
H       -0.52546081       0.77193503       2.05114788
H       -0.49119997      -0.94998707       1.81108711
H       -1.79284991      -1.67434138      -1.03414686
H       -2.28302511      -0.58207508       0.07015897
H       -0.10283427      -0.23362194      -1.94515217
H       -1.02550675       1.05340395      -1.31208700
