19
Frame=0 idx=011012 GeodesicLength=0.0 rxn_smarts="[C:1]([C@@:2]1([H:11])[C:3]([H:12])([H:13])[O:4][C@:5]([C:6]([H:15])([H:16])[H:17])([H:14])[C:7]1([H:18])[H:19])([H:8])([H:9])[H:10]>>[C:1]([C@@:2]1([H:11])[C@:3]([O:4][C:5]([C:6]([H:15])([H:16])[H:17])([H:13])[H:14])([H:12])[C:7]1([H:18])[H:19])([H:8])([H:9])[H:10]"
C       -2.32160739       0.57899024      -0.04310735
C       -1.22659623      -0.26529528       0.58768462
C       -0.38457554      -0.96491258      -0.50364928
O        0.83688823      -1.41669976      -0.04267760
C        1.43663307      -0.14105401       0.03725098
C        2.39106635       0.09454639      -1.12086144
C       -0.33575295       0.42927995       1.49204519
H       -2.87144754       0.01784298      -0.80180470
H       -1.88319526       1.45367313      -0.52884803
H       -3.03328713       0.92635796       0.70807896
H       -1.65211028      -1.13102656       1.12169497
H       -0.89672369      -1.72084111      -1.11069597
H        0.38359680       0.33557768      -0.53114114
H        1.96641890       0.01363436       0.97554088
H        3.25972713      -0.56093371      -1.02335988
H        2.73818991       1.12918443      -1.11041772
H        1.89869244      -0.10171715      -2.07451822
H       -0.52483897       1.46705874       1.74643969
H        0.21892208      -0.14366569       2.22234598
19
Frame=1 idx=011012 GeodesicLength=0.10898747758579118 rxn_smarts="[C:1]([C@@:2]1([H:11])[C:3]([H:12])([H:13])[O:4][C@:5]([C:6]([H:15])([H:16])[H:17])([H:14])[C:7]1([H:18])[H:19])([H:8])([H:9])[H:10]>>[C:1]([C@@:2]1([H:11])[C@:3]([O:4][C:5]([C:6]([H:15])([H:16])[H:17])([H:13])[H:14])([H:12])[C:7]1([H:18])[H:19])([H:8])([H:9])[H:10]"
C       -2.33805484       0.57721966      -0.03914452
C       -1.24805879      -0.27114395       0.59221813
C       -0.39656239      -0.96711088      -0.48599510
O        0.84337279      -1.41009404      -0.07256892
C        1.43994513      -0.13542920       0.03018600
C        2.40999964       0.10947545      -1.11313316
C       -0.32346286       0.41679054       1.47061640
H       -2.90112688       0.01242935      -0.78538980
H       -1.89584873       1.44058165      -0.54122334
H       -3.03851848       0.94173170       0.71445150
H       -1.67421919      -1.12857863       1.13712916
H       -0.90872588      -1.74684689      -1.06365182
H        0.37453284       0.34196658      -0.56003044
H        1.97641364      -0.01658319       0.97156914
H        3.26513995      -0.56509660      -1.02802319
H        2.77785120       1.13628188      -1.07365671
H        1.92246652      -0.05323344      -2.07552615
H       -0.48848492       1.46588203       1.69483843
H        0.20334126      -0.14824201       2.22733441
19
Frame=2 idx=011012 GeodesicLength=0.21779300710690785 rxn_smarts="[C:1]([C@@:2]1([H:11])[C:3]([H:12])([H:13])[O:4][C@:5]([C:6]([H:15])([H:16])[H:17])([H:14])[C:7]1([H:18])[H:19])([H:8])([H:9])[H:10]>>[C:1]([C@@:2]1([H:11])[C@:3]([O:4][C:5]([C:6]([H:15])([H:16])[H:17])([H:13])[H:14])([H:12])[C:7]1([H:18])[H:19])([H:8])([H:9])[H:10]"
C       -2.35419474       0.57541703      -0.03514889
C       -1.26912738      -0.27661446       0.59728669
C       -0.40830373      -0.96944501      -0.46778589
O        0.84893020      -1.40330198      -0.10426650
C        1.44347423      -0.13062821       0.02283970
C        2.42899205       0.12443691      -1.10512181
C       -0.31135204       0.40423187       1.44893101
H       -2.93049146       0.00698532      -0.76849060
H       -1.90847301       1.42699973      -0.55380207
H       -3.04332189       0.95726848       0.72031254
H       -1.69596814      -1.12528626       1.15347193
H       -0.91974941      -1.77218203      -1.01545933
H        0.36530296       0.34742743      -0.58984420
H        1.98585690      -0.04847914       0.96651708
H        3.27027254      -0.56884735      -1.03403797
H        2.81721594       1.14218927      -1.03528804
H        1.94699476      -0.00314116      -2.07556476
H       -0.45407879       1.46282548       1.64341154
H        0.18802101      -0.14985592       2.23203958
19
Frame=3 idx=011012 GeodesicLength=0.3264048045493515 rxn_smarts="[C:1]([C@@:2]1([H:11])[C:3]([H:12])([H:13])[O:4][C@:5]([C:6]([H:15])([H:16])[H:17])([H:14])[C:7]1([H:18])[H:19])([H:8])([H:9])[H:10]>>[C:1]([C@@:2]1([H:11])[C@:3]([O:4][C:5]([C:6]([H:15])([H:16])[H:17])([H:13])[H:14])([H:12])[C:7]1([H:18])[H:19])([H:8])([H:9])[H:10]"
C       -2.37002504       0.57352370      -0.03111830
C       -1.28972151      -0.28169418       0.60285054
C       -0.41974052      -0.97184906      -0.44913372
O        0.85340533      -1.39622813      -0.13795772
C        1.44719651      -0.12670942       0.01522302
C        2.44801130       0.13941846      -1.09675475
C       -0.29942539       0.39162796       1.42701268
H       -2.95952503       0.00143618      -0.75108150
H       -1.92113411       1.41287208      -0.56658600
H       -3.04769152       0.97287660       0.72566931
H       -1.71721478      -1.12114436       1.17067936
H       -0.92968103      -1.79692898      -0.96604160
H        0.35588068       0.35203649      -0.62053720
H        1.99463666      -0.08225312       0.96033494
H        3.27503042      -0.57220895      -1.04149650
H        2.85632644       1.14673077      -0.99513199
H        1.97222349       0.04875448      -2.07442926
H       -0.42154889       1.45814252       1.59205526
H        0.17299699      -0.14840303       2.23644344
19
Frame=4 idx=011012 GeodesicLength=0.4347966423697344 rxn_smarts="[C:1]([C@@:2]1([H:11])[C:3]([H:12])([H:13])[O:4][C@:5]([C:6]([H:15])([H:16])[H:17])([H:14])[C:7]1([H:18])[H:19])([H:8])([H:9])[H:10]>>[C:1]([C@@:2]1([H:11])[C@:3]([O:4][C:5]([C:6]([H:15])([H:16])[H:17])([H:13])[H:14])([H:12])[C:7]1([H:18])[H:19])([H:8])([H:9])[H:10]"
C       -2.38555691       0.57147807      -0.02704800
C       -1.30975618      -0.28637379       0.60885788
C       -0.43080896      -0.97424154      -0.43017593
O        0.85664197      -1.38872937      -0.17379545
C        1.45107921      -0.12371577       0.00735537
C        2.46702317       0.15437115      -1.08795116
C       -0.28768758       0.37902122       1.40488847
H       -2.98820332      -0.00430273      -0.73313054
H       -1.93391893       1.39815418      -0.57955782
H       -3.05164627       0.98844414       0.73053436
H       -1.73780194      -1.11616062       1.18868975
H       -0.93833394      -1.82114626      -0.91531622
H        0.34624119       0.35592148      -0.65205116
H        2.00260323      -0.11807973       0.95293716
H        3.27927275      -0.57520240      -1.05053286
H        2.89523730       1.14960386      -0.95304521
H        1.99813186       0.10265629      -2.07182634
H       -0.39084064       1.45205894       1.54066726
H        0.15832401      -0.14375712       2.24050044
19
Frame=5 idx=011012 GeodesicLength=0.5430198713679931 rxn_smarts="[C:1]([C@@:2]1([H:11])[C:3]([H:12])([H:13])[O:4][C@:5]([C:6]([H:15])([H:16])[H:17])([H:14])[C:7]1([H:18])[H:19])([H:8])([H:9])[H:10]>>[C:1]([C@@:2]1([H:11])[C@:3]([O:4][C:5]([C:6]([H:15])([H:16])[H:17])([H:13])[H:14])([H:12])[C:7]1([H:18])[H:19])([H:8])([H:9])[H:10]"
C       -2.40085084       0.56913905      -0.02289791
C       -1.32915760      -0.29063610       0.61524461
C       -0.44149178      -0.97655344      -0.41105257
O        0.85856208      -1.38065898      -0.21174800
C        1.45512022      -0.12173624      -0.00073106
C        2.48607024       0.16918720      -1.07860229
C       -0.27615151       0.36652445       1.38256524
H       -3.01659608      -0.01041004      -0.71452387
H       -1.94701385       1.38267687      -0.59272405
H       -3.05522182       1.00379509       0.73497193
H       -1.75752866      -1.11031362       1.20746513
H       -0.94579896      -1.84454202      -0.86348551
H        0.33632914       0.35921509      -0.68434077
H        2.00985586      -0.15601294       0.94430971
H        3.28295806      -0.57787937      -1.06130287
H        2.93412019       1.15045256      -0.90892349
H        2.02470205       0.15873356      -2.06733871
H       -0.36192198       1.44477912       1.48908828
H        0.14401525      -0.13576025       2.24402621
19
Frame=6 idx=011012 GeodesicLength=0.6510020821775161 rxn_smarts="[C:1]([C@@:2]1([H:11])[C:3]([H:12])([H:13])[O:4][C@:5]([C:6]([H:15])([H:16])[H:17])([H:14])[C:7]1([H:18])[H:19])([H:8])([H:9])[H:10]>>[C:1]([C@@:2]1([H:11])[C@:3]([O:4][C:5]([C:6]([H:15])([H:16])[H:17])([H:13])[H:14])([H:12])[C:7]1([H:18])[H:19])([H:8])([H:9])[H:10]"
C       -2.41590671       0.56648561      -0.01867471
C       -1.34782980      -0.29448635       0.62194153
C       -0.45167367      -0.97862640      -0.39195589
O        0.85894209      -1.37175501      -0.25193992
C        1.45927330      -0.12073278      -0.00901909
C        2.50506617       0.18378427      -1.06866527
C       -0.26482609       0.35416885       1.36010455
H       -3.04461479      -0.01691581      -0.69530800
H       -1.96048538       1.36651272      -0.60599321
H       -3.05847326       1.01879809       0.73898575
H       -1.77624606      -1.10367570       1.22686094
H       -0.95152057      -1.86735904      -0.81029809
H        0.32613402       0.36221824      -0.71729748
H        2.01610017      -0.19621405       0.93427845
H        3.28583560      -0.58026648      -1.07393634
H        2.97298955       1.14883801      -0.86272138
H        2.05188417       0.21704682      -2.06066024
H       -0.33475831       1.43648505       1.43728459
H        0.13010960      -0.12430604       2.24701383
19
Frame=7 idx=011012 GeodesicLength=0.7587527711094619 rxn_smarts="[C:1]([C@@:2]1([H:11])[C:3]([H:12])([H:13])[O:4][C@:5]([C:6]([H:15])([H:16])[H:17])([H:14])[C:7]1([H:18])[H:19])([H:8])([H:9])[H:10]>>[C:1]([C@@:2]1([H:11])[C@:3]([O:4][C:5]([C:6]([H:15])([H:16])[H:17])([H:13])[H:14])([H:12])[C:7]1([H:18])[H:19])([H:8])([H:9])[H:10]"
C       -2.43076169       0.56343805      -0.01434684
C       -1.36569498      -0.29793061       0.62886108
C       -0.46128067      -0.98030030      -0.37310200
O        0.85761519      -1.36175474      -0.29432478
C        1.46352058      -0.12068887      -0.01747862
C        2.52399183       0.19800879      -1.05808242
C       -0.25374130       0.34202457       1.33754950
H       -3.07224506      -0.02390384      -0.67547213
H       -1.97447962       1.34966350      -0.61926974
H       -3.06146411       1.03325493       0.74264838
H       -1.79377434      -1.09631889       1.24673779
H       -0.95510510      -1.88952560      -0.75575158
H        0.31562001       0.36527077      -0.75082436
H        2.02123654      -0.23871351       0.92273150
H        3.28776375      -0.58243817      -1.08850841
H        3.01192016       1.14435865      -0.81449398
H        2.07963317       0.27749724      -2.05143573
H       -0.30933930       1.42732051       1.38521379
H        0.11658494      -0.10926248       2.24934855
19
Frame=8 idx=011012 GeodesicLength=0.8662340598410296 rxn_smarts="[C:1]([C@@:2]1([H:11])[C:3]([H:12])([H:13])[O:4][C@:5]([C:6]([H:15])([H:16])[H:17])([H:14])[C:7]1([H:18])[H:19])([H:8])([H:9])[H:10]>>[C:1]([C@@:2]1([H:11])[C@:3]([O:4][C:5]([C:6]([H:15])([H:16])[H:17])([H:13])[H:14])([H:12])[C:7]1([H:18])[H:19])([H:8])([H:9])[H:10]"
C       -2.44547415       0.55992441      -0.00987856
C       -1.38268168      -0.30100058       0.63591046
C       -0.47022835      -0.98140316      -0.35472584
O        0.85446465      -1.35034372      -0.33874926
C        1.46783428      -0.12154900      -0.02606129
C        2.54281400       0.21166115      -1.04680703
C       -0.24291741       0.33017882       1.31495261
H       -3.09946554      -0.03146059      -0.65501506
H       -1.98914387       1.33217020      -0.63242747
H       -3.06433454       1.04697294       0.74603409
H       -1.80995292      -1.08836813       1.26692119
H       -0.95605008      -1.91094960      -0.69987112
H        0.30478214       0.36877599      -0.78479893
H        2.02511017      -0.28340724       0.90954257
H        3.28852431      -0.58440061      -1.10513096
H        3.05097625       1.13639433      -0.76439929
H        2.10796630       0.33991998      -2.03923090
H       -0.28568770       1.41743527       1.33286232
H        0.10346415      -0.09055047       2.25087248
19
Frame=9 idx=011012 GeodesicLength=0.9735294907439079 rxn_smarts="[C:1]([C@@:2]1([H:11])[C:3]([H:12])([H:13])[O:4][C@:5]([C:6]([H:15])([H:16])[H:17])([H:14])[C:7]1([H:18])[H:19])([H:8])([H:9])[H:10]>>[C:1]([C@@:2]1([H:11])[C@:3]([O:4][C:5]([C:6]([H:15])([H:16])[H:17])([H:13])[H:14])([H:12])[C:7]1([H:18])[H:19])([H:8])([H:9])[H:10]"
C       -2.46010935       0.55581024      -0.00522457
C       -1.39878112      -0.30369761       0.64302182
C       -0.47854013      -0.98183192      -0.33696397
O        0.84951277      -1.33733442      -0.38474479
C        1.47225105      -0.12331551      -0.03468603
C        2.56159674       0.22450116      -1.03481767
C       -0.23242564       0.31873823       1.29236671
H       -3.12632960      -0.03971685      -0.63387884
H       -2.00464479       1.31388835      -0.64541457
H       -3.06712134       1.05972207       0.74923945
H       -1.82466382      -1.07983702       1.28731587
H       -0.95434038      -1.93103040      -0.64310841
H        0.29353965       0.37300959      -0.81910325
H        2.02801279      -0.33005454       0.89472625
H        3.28824116      -0.58619712      -1.12383901
H        3.09025722       1.12468537      -0.71281684
H        2.13679838       0.40399047      -2.02362836
H       -0.26385990       1.40689917       1.28019804
H        0.09060630      -0.06822924       2.25135815
19
Frame=10 idx=011012 GeodesicLength=1.0805504368125232 rxn_smarts="[C:1]([C@@:2]1([H:11])[C:3]([H:12])([H:13])[O:4][C@:5]([C:6]([H:15])([H:16])[H:17])([H:14])[C:7]1([H:18])[H:19])([H:8])([H:9])[H:10]>>[C:1]([C@@:2]1([H:11])[C@:3]([O:4][C:5]([C:6]([H:15])([H:16])[H:17])([H:13])[H:14])([H:12])[C:7]1([H:18])[H:19])([H:8])([H:9])[H:10]"
C       -2.47475244       0.55108295      -0.00033291
C       -1.41393323      -0.30610044       0.65006615
C       -0.48610203      -0.98129423      -0.32016785
O        0.84263000      -1.32229385      -0.43210863
C        1.47670581      -0.12578689      -0.04331097
C        2.58026187       0.23627957      -1.02212739
C       -0.22228892       0.30778367       1.26986105
H       -3.15276604      -0.04870920      -0.61213289
H       -2.02113632       1.29506327      -0.65797187
H       -3.07006289       1.07128344       0.75239850
H       -1.83776066      -1.07102756       1.30761955
H       -0.94888510      -1.94993958      -0.58530257
H        0.28194738       0.37859951      -0.85359894
H        2.02947688      -0.37848051       0.87807867
H        3.28648872      -0.58783768      -1.14467310
H        3.12977427       1.10836210      -0.66002823
H        2.16628651       0.46929274      -2.00428208
H       -0.24390234       1.39588836       1.22731321
H        0.07801853      -0.04216566       2.25070030
19
Frame=11 idx=011012 GeodesicLength=1.1873706454667476 rxn_smarts="[C:1]([C@@:2]1([H:11])[C:3]([H:12])([H:13])[O:4][C@:5]([C:6]([H:15])([H:16])[H:17])([H:14])[C:7]1([H:18])[H:19])([H:8])([H:9])[H:10]>>[C:1]([C@@:2]1([H:11])[C@:3]([O:4][C:5]([C:6]([H:15])([H:16])[H:17])([H:13])[H:14])([H:12])[C:7]1([H:18])[H:19])([H:8])([H:9])[H:10]"
C       -2.48949703       0.54567831       0.00486793
C       -1.42814135      -0.30827323       0.65695870
C       -0.49293013      -0.97961383      -0.30457463
O        0.83383647      -1.30495284      -0.48036287
C        1.48119194      -0.12886337      -0.05186617
C        2.59884614       0.24676968      -1.00875841
C       -0.21257413       0.29739849       1.24749212
H       -3.17881055      -0.05849543      -0.58976812
H       -2.03877861       1.27575874      -0.66993493
H       -3.07329994       1.08145240       0.75567489
H       -1.84916104      -1.06213800       1.32763770
H       -0.93909984      -1.96729299      -0.52669832
H        0.26997476       0.38597368      -0.88818255
H        2.02946971      -0.42841694       0.85953255
H        3.28320339      -0.58932421      -1.16754084
H        3.16954839       1.08704083      -0.60650414
H        2.19653494       0.53519080      -1.98091907
H       -0.22586691       1.38448847       1.17425718
H        0.06555378      -0.01238057       2.24868898
19
Frame=12 idx=011012 GeodesicLength=1.294012433925002 rxn_smarts="[C:1]([C@@:2]1([H:11])[C:3]([H:12])([H:13])[O:4][C@:5]([C:6]([H:15])([H:16])[H:17])([H:14])[C:7]1([H:18])[H:19])([H:8])([H:9])[H:10]>>[C:1]([C@@:2]1([H:11])[C@:3]([O:4][C:5]([C:6]([H:15])([H:16])[H:17])([H:13])[H:14])([H:12])[C:7]1([H:18])[H:19])([H:8])([H:9])[H:10]"
C       -2.50442027       0.53954841       0.01044740
C       -1.44143657      -0.31030891       0.66362380
C       -0.49901633      -0.97665032      -0.29036778
O        0.82326855      -1.28508743      -0.52897077
C        1.48570094      -0.13237794      -0.06024821
C        2.61733872       0.25570444      -0.99475362
C       -0.20332290       0.28766348       1.22532809
H       -3.20447930      -0.06911829      -0.56680453
H       -2.05767482       1.25609061      -0.68112420
H       -3.07701414       1.09006245       0.75921859
H       -1.85883599      -1.05341837       1.34717745
H       -0.92452041      -1.98275496      -0.46769383
H        0.25765858       0.39552456      -0.92275592
H        2.02796103      -0.47938869       0.83911292
H        3.27831599      -0.59055180      -1.19229436
H        3.20946560       1.06025357      -0.55284505
H        2.22769111       0.60095949      -1.95330848
H       -0.20980053       1.37280190       1.12113890
H        0.05312076       0.02104779       2.24511958
19
Frame=13 idx=011012 GeodesicLength=1.4005594864815445 rxn_smarts="[C:1]([C@@:2]1([H:11])[C:3]([H:12])([H:13])[O:4][C@:5]([C:6]([H:15])([H:16])[H:17])([H:14])[C:7]1([H:18])[H:19])([H:8])([H:9])[H:10]>>[C:1]([C@@:2]1([H:11])[C@:3]([O:4][C:5]([C:6]([H:15])([H:16])[H:17])([H:13])[H:14])([H:12])[C:7]1([H:18])[H:19])([H:8])([H:9])[H:10]"
C       -2.51952686       0.53259070       0.01642273
C       -1.45386026      -0.31225888       0.67006707
C       -0.50444535      -0.97242923      -0.27749323
O        0.81118848      -1.26274308      -0.57721447
C        1.49029113      -0.13628596      -0.06830036
C        2.63576888       0.26291107      -0.98018376
C       -0.19459524       0.27868352       1.20343104
H       -3.22977468      -0.08069889      -0.54320422
H       -2.07781558       1.23588061      -0.69155497
H       -3.08120084       1.09703307       0.76305983
H       -1.86680097      -1.04491827       1.36621772
H       -0.90541486      -1.99563294      -0.40901249
H        0.24496596       0.40728592      -0.95723007
H        2.02526177      -0.53092155       0.81699666
H        3.27189780      -0.59134992      -1.21901557
H        3.24955771       1.02784087      -0.49962995
H        2.25973860       0.66619284      -1.92112780
H       -0.19573068       1.36087259       1.06795529
H        0.04049500       0.05794754       2.23981655
19
Frame=14 idx=011012 GeodesicLength=1.5070920780764459 rxn_smarts="[C:1]([C@@:2]1([H:11])[C:3]([H:12])([H:13])[O:4][C@:5]([C:6]([H:15])([H:16])[H:17])([H:14])[C:7]1([H:18])[H:19])([H:8])([H:9])[H:10]>>[C:1]([C@@:2]1([H:11])[C@:3]([O:4][C:5]([C:6]([H:15])([H:16])[H:17])([H:13])[H:14])([H:12])[C:7]1([H:18])[H:19])([H:8])([H:9])[H:10]"
C       -2.53496120       0.52483226       0.02290900
C       -1.46546756      -0.31425046       0.67622601
C       -0.50921840      -0.96675773      -0.26619344
O        0.79769755      -1.23770828      -0.62474525
C        1.49491919      -0.14037606      -0.07596556
C        2.65416707       0.26819168      -0.96508212
C       -0.18641498       0.27054384       1.18183222
H       -3.25478579      -0.09320446      -0.51897430
H       -2.09935501       1.21542004      -0.70096694
H       -3.08611797       1.10222967       0.76744799
H       -1.87305489      -1.03701962       1.38454278
H       -0.88095642      -2.00591667      -0.35086552
H        0.23197503       0.42166946      -0.99161616
H        2.02107839      -0.58272180       0.79316035
H        3.26391942      -0.59169335      -1.24724251
H        3.28967380       0.98955411      -0.44734636
H        2.29294926       0.72998711      -1.88449237
H       -0.18366226       1.34884878       1.01480278
H        0.02761477       0.09837148       2.23256939
19
Frame=15 idx=011012 GeodesicLength=1.6136466146865143 rxn_smarts="[C:1]([C@@:2]1([H:11])[C:3]([H:12])([H:13])[O:4][C@:5]([C:6]([H:15])([H:16])[H:17])([H:14])[C:7]1([H:18])[H:19])([H:8])([H:9])[H:10]>>[C:1]([C@@:2]1([H:11])[C@:3]([O:4][C:5]([C:6]([H:15])([H:16])[H:17])([H:13])[H:14])([H:12])[C:7]1([H:18])[H:19])([H:8])([H:9])[H:10]"
C       -2.55071808       0.51629841       0.03002034
C       -1.47631388      -0.31638288       0.68213019
C       -0.51337370      -0.95962289      -0.25644550
O        0.78304912      -1.21005876      -0.67100405
C        1.49961214      -0.14448811      -0.08311938
C        2.67257125       0.27145942      -0.94952200
C       -0.17882293       0.26324919       1.16062753
H       -3.27951927      -0.10653971      -0.49408225
H       -2.12222756       1.19480226      -0.70919386
H       -3.09177932       1.10562054       0.77259185
H       -1.87766348      -1.02995386       1.40206773
H       -0.85151229      -2.01308498      -0.29428860
H        0.21866757       0.43872709      -1.02591647
H        2.01561213      -0.63427363       0.76783831
H        3.25489604      -0.59148140      -1.27603776
H        3.32935747       0.94617937      -0.39680149
H        2.32737482       0.79090357      -1.84393535
H       -0.17354874       1.33672261       0.96186786
H        0.01433870       0.14192377       2.22320292
19
Frame=16 idx=011012 GeodesicLength=1.7203522428528482 rxn_smarts="[C:1]([C@@:2]1([H:11])[C:3]([H:12])([H:13])[O:4][C@:5]([C:6]([H:15])([H:16])[H:17])([H:14])[C:7]1([H:18])[H:19])([H:8])([H:9])[H:10]>>[C:1]([C@@:2]1([H:11])[C@:3]([O:4][C:5]([C:6]([H:15])([H:16])[H:17])([H:13])[H:14])([H:12])[C:7]1([H:18])[H:19])([H:8])([H:9])[H:10]"
C       -2.56682643       0.50695946       0.03780897
C       -1.48646681      -0.31873875       0.68782891
C       -0.51698095      -0.95110076      -0.24812994
O        0.76759751      -1.17987873      -0.71550339
C        1.50439556      -0.14856135      -0.08964015
C        2.69101922       0.27266972      -0.93355148
C       -0.17180812       0.25692055       1.13984257
H       -3.30401680      -0.12076559      -0.46845775
H       -2.14640294       1.17398099      -0.71621562
H       -3.09824336       1.10723531       0.77856291
H       -1.88069741      -1.02385051       1.41882809
H       -0.81739492      -2.01686293      -0.23990400
H        0.20506796       0.45833187      -1.06017783
H        2.00889985      -0.68521742       0.74117037
H        3.24492051      -0.59051439      -1.30524243
H        3.36848228       0.89773664      -0.34837086
H        2.36322100       0.84855347      -1.79947616
H       -0.16532666       1.32458524       0.90911573
H        0.00056050       0.18851718       2.21151207
