19
Frame=0 idx=010399 GeodesicLength=0.0 rxn_smarts="[C:1]([C:2]1([H:11])[C:3]([H:12])([H:13])[C:4]2([C:5]([H:14])([H:15])[C:6]2([H:16])[H:17])[C:7]1([H:18])[H:19])([H:8])([H:9])[H:10]>>[C:1]([C+:2]([C:7]([C:4](=[C:3]([H:12])[H:13])[C:6]([C-:5]([H:14])[H:15])([H:16])[H:17])([H:18])[H:19])[H:11])([H:8])([H:9])[H:10]"
C       -2.72516821       0.44044413      -0.07032446
C       -1.76411201      -0.47127923       0.59327633
C        0.26201770      -0.49443945      -1.30920307
C        0.53773912      -0.19849960      -0.04178612
C        2.88802571       0.28551343      -0.55734593
C        2.00584818       0.00632665       0.52434945
C       -0.50979851      -0.01889780       1.10179200
H       -3.67659449      -0.04956191      -0.27638163
H       -2.33820993       0.82087219      -1.02869557
H       -2.91735035       1.32932824       0.54162015
H       -1.97307356      -1.53452759       0.60799518
H       -0.74878463      -0.66020795      -1.65330071
H        1.06453868      -0.58315803      -2.02985286
H        2.98039700       1.28958894      -0.94951938
H        3.38979977      -0.50826073      -1.09458136
H        1.90345341       0.82503430       1.24678328
H        2.23173699      -0.91297481       1.07403582
H       -0.49308512       1.04053956       1.38012034
H       -0.11737979      -0.60584041       1.94101852
19
Frame=1 idx=010399 GeodesicLength=0.10051695827533517 rxn_smarts="[C:1]([C:2]1([H:11])[C:3]([H:12])([H:13])[C:4]2([C:5]([H:14])([H:15])[C:6]2([H:16])[H:17])[C:7]1([H:18])[H:19])([H:8])([H:9])[H:10]>>[C:1]([C+:2]([C:7]([C:4](=[C:3]([H:12])[H:13])[C:6]([C-:5]([H:14])[H:15])([H:16])[H:17])([H:18])[H:19])[H:11])([H:8])([H:9])[H:10]"
C       -2.72627300       0.42892325      -0.07346013
C       -1.74119309      -0.47581674       0.56426751
C        0.24133058      -0.46063766      -1.30136102
C        0.55661609      -0.18906018      -0.03395515
C        2.87942395       0.23272299      -0.56685255
C        2.01388081       0.01895328       0.54334013
C       -0.50058836      -0.00887684       1.10017953
H       -3.65132045      -0.08769404      -0.33021860
H       -2.33408677       0.87792971      -0.99875858
H       -2.97438181       1.27142166       0.58244065
H       -1.94607058      -1.53957772       0.59548991
H       -0.74903090      -0.71830435      -1.64724957
H        1.00526653      -0.43929864      -2.06780533
H        3.02379715       1.22663499      -0.96894758
H        3.36248589      -0.59078106      -1.07553078
H        1.92473347       0.87102290       1.22689816
H        2.23665022      -0.87892067       1.12786247
H       -0.49877965       1.05164874       1.37417906
H       -0.12246009      -0.59028963       1.94948187
19
Frame=2 idx=010399 GeodesicLength=0.20114205763547463 rxn_smarts="[C:1]([C:2]1([H:11])[C:3]([H:12])([H:13])[C:4]2([C:5]([H:14])([H:15])[C:6]2([H:16])[H:17])[C:7]1([H:18])[H:19])([H:8])([H:9])[H:10]>>[C:1]([C+:2]([C:7]([C:4](=[C:3]([H:12])[H:13])[C:6]([C-:5]([H:14])[H:15])([H:16])[H:17])([H:18])[H:19])[H:11])([H:8])([H:9])[H:10]"
C       -2.72623473       0.41634694      -0.07710801
C       -1.71775119      -0.48064492       0.53510946
C        0.22172347      -0.42333695      -1.29289560
C        0.57539167      -0.18047131      -0.02541521
C        2.86814490       0.17713723      -0.57596733
C        2.02219523       0.03474922       0.56132101
C       -0.49148047      -0.00038149       1.09926820
H       -3.62252071      -0.12226480      -0.38667929
H       -2.33188244       0.93345888      -0.96443853
H       -3.02898078       1.20666988       0.61956498
H       -1.91802842      -1.54493627       0.58005081
H       -0.74013711      -0.76675277      -1.64406676
H        0.94171392      -0.29353632      -2.09089299
H        3.06426857       1.15573463      -0.99340937
H        3.32631677      -0.67725313      -1.05579283
H        1.94628170       0.92034197       1.20138225
H        2.24297935      -0.83819152       1.18250435
H       -0.50456753       1.06072159       1.37006613
H       -0.12743222      -0.57739085       1.95739872
19
Frame=3 idx=010399 GeodesicLength=0.30227681498434894 rxn_smarts="[C:1]([C:2]1([H:11])[C:3]([H:12])([H:13])[C:4]2([C:5]([H:14])([H:15])[C:6]2([H:16])[H:17])[C:7]1([H:18])[H:19])([H:8])([H:9])[H:10]>>[C:1]([C+:2]([C:7]([C:4](=[C:3]([H:12])[H:13])[C:6]([C-:5]([H:14])[H:15])([H:16])[H:17])([H:18])[H:19])[H:11])([H:8])([H:9])[H:10]"
C       -2.72510230       0.40387268      -0.08056189
C       -1.69412066      -0.48557785       0.50555682
C        0.20287989      -0.38365574      -1.28389329
C        0.59369585      -0.17244123      -0.01674325
C        2.85365618       0.12051424      -0.58446969
C        2.03046957       0.05436725       0.57741002
C       -0.48249445       0.00568051       1.09895807
H       -3.59069214      -0.15102319      -0.44500790
H       -2.33157333       0.98852958      -0.92450598
H       -3.08038701       1.13614911       0.65374113
H       -1.88971310      -1.55047438       0.56041295
H       -0.72407118      -0.80397779      -1.64486551
H        0.87761558      -0.15587086      -2.09943796
H        3.09860609       1.07838152      -1.02366641
H        3.28517971      -0.76473580      -1.03182540
H        1.96743495       0.97277975       1.16962476
H        2.25091958      -0.78995071       1.23641876
H       -0.51025561       1.06654636       1.36895354
H       -0.13204764      -0.56911344       1.96390124
19
Frame=4 idx=010399 GeodesicLength=0.4041404676107587 rxn_smarts="[C:1]([C:2]1([H:11])[C:3]([H:12])([H:13])[C:4]2([C:5]([H:14])([H:15])[C:6]2([H:16])[H:17])[C:7]1([H:18])[H:19])([H:8])([H:9])[H:10]>>[C:1]([C+:2]([C:7]([C:4](=[C:3]([H:12])[H:13])[C:6]([C-:5]([H:14])[H:15])([H:16])[H:17])([H:18])[H:19])[H:11])([H:8])([H:9])[H:10]"
C       -2.72298978       0.39192385      -0.08364077
C       -1.67062057      -0.49041968       0.47589561
C        0.18465104      -0.34376156      -1.27424962
C        0.61130917      -0.16493989      -0.00830583
C        2.83613454       0.06351192      -0.59176853
C        2.03858126       0.07763370       0.59104756
C       -0.47357922       0.00909332       1.09917611
H       -3.55680181      -0.17291518      -0.50371934
H       -2.33312816       1.04200888      -0.87927023
H       -3.12774241       1.06148161       0.68415149
H       -1.86177055      -1.55605753       0.53708629
H       -0.70288012      -0.83121348      -1.64953915
H        0.81453147      -0.02643468      -2.09629220
H        3.12616944       0.99557762      -1.05833652
H        3.24137984      -0.85168616      -1.00180099
H        1.98795489       1.02747215       1.13130778
H        2.26041225      -0.73429137       1.28855285
H       -0.51558223       1.06891987       1.37089444
H       -0.13602906      -0.56590338       1.96881104
19
Frame=5 idx=010399 GeodesicLength=0.5066657331111313 rxn_smarts="[C:1]([C:2]1([H:11])[C:3]([H:12])([H:13])[C:4]2([C:5]([H:14])([H:15])[C:6]2([H:16])[H:17])[C:7]1([H:18])[H:19])([H:8])([H:9])[H:10]>>[C:1]([C+:2]([C:7]([C:4](=[C:3]([H:12])[H:13])[C:6]([C-:5]([H:14])[H:15])([H:16])[H:17])([H:18])[H:19])[H:11])([H:8])([H:9])[H:10]"
C       -2.72004021       0.38091807      -0.08595262
C       -1.64728550      -0.49464480       0.44642907
C        0.16690760      -0.30407981      -1.26424948
C        0.62802898      -0.15708043      -0.00059894
C        2.81573099       0.00713712      -0.59730599
C        2.04625328       0.10398762       0.60180524
C       -0.46465279       0.01027702       1.09977937
H       -3.52060873      -0.18745964      -0.56284430
H       -2.33652486       1.09402962      -0.82803261
H       -3.17162752       0.98304190       0.71100541
H       -1.83411740      -1.56114908       0.51047346
H       -0.67840623      -0.84912169      -1.65753205
H        0.75446374       0.09043141      -2.08452702
H        3.14580413       0.90878200      -1.09600605
H        3.19704432      -0.93606947      -0.96458552
H        2.00777031       1.08271177       1.08731923
H        2.27085437      -0.67247931       1.33708068
H       -0.52055090       1.06816906       1.37591442
H       -0.13904355      -0.56740137       1.97182772
19
Frame=6 idx=010399 GeodesicLength=0.6097201099824918 rxn_smarts="[C:1]([C:2]1([H:11])[C:3]([H:12])([H:13])[C:4]2([C:5]([H:14])([H:15])[C:6]2([H:16])[H:17])[C:7]1([H:18])[H:19])([H:8])([H:9])[H:10]>>[C:1]([C+:2]([C:7]([C:4](=[C:3]([H:12])[H:13])[C:6]([C-:5]([H:14])[H:15])([H:16])[H:17])([H:18])[H:19])[H:11])([H:8])([H:9])[H:10]"
C       -2.71648133       0.37096234      -0.08749159
C       -1.62438111      -0.49820601       0.41729622
C        0.14943589      -0.26552182      -1.25408546
C        0.64381857      -0.14896431       0.00618871
C        2.79310185      -0.04829672      -0.60048243
C        2.05354601       0.13294570       0.60954953
C       -0.45564194       0.00926057       1.10061359
H       -3.48336342      -0.19431208      -0.62082675
H       -2.34172505       1.14341192      -0.77152571
H       -3.21159570       0.90213107       0.73366389
H       -1.80720480      -1.56574269       0.48115930
H       -0.65215049      -0.85908792      -1.66845659
H        0.69796483       0.19586690      -2.06688601
H        3.15777316       0.81892713      -1.13500100
H        3.15367888      -1.01681390      -0.91974709
H        2.02697077       1.13766184       1.03787481
H        2.28203303      -0.60519215       1.38157372
H       -0.52488971       1.06442449       1.38360755
H       -0.14088944      -0.57345437       1.97297532
19
Frame=7 idx=010399 GeodesicLength=0.7133001829614196 rxn_smarts="[C:1]([C:2]1([H:11])[C:3]([H:12])([H:13])[C:4]2([C:5]([H:14])([H:15])[C:6]2([H:16])[H:17])[C:7]1([H:18])[H:19])([H:8])([H:9])[H:10]>>[C:1]([C+:2]([C:7]([C:4](=[C:3]([H:12])[H:13])[C:6]([C-:5]([H:14])[H:15])([H:16])[H:17])([H:18])[H:19])[H:11])([H:8])([H:9])[H:10]"
C       -2.71238900       0.36199199      -0.08826949
C       -1.60189808      -0.50089153       0.38875436
C        0.13221785      -0.22846543      -1.24390081
C        0.65866098      -0.14027435       0.01196527
C        2.76859880      -0.10248812      -0.60094598
C        2.06042974       0.16378692       0.61426234
C       -0.44647420       0.00654383       1.10158050
H       -3.44510102      -0.19372125      -0.67742960
H       -2.34856856       1.18957665      -0.70996835
H       -3.24799843       0.81918445       0.75172944
H       -1.78092645      -1.56958213       0.44992417
H       -0.62501039      -0.86252328      -1.68153621
H        0.64510831       0.29062888      -2.04552419
H        3.16241768       0.72682851      -1.17374906
H        3.11159320      -1.09302971      -0.86784575
H        2.04578444       1.19110832       0.98384065
H        2.29350437      -0.53375547       1.42128618
H       -0.52855253       1.05824914       1.39346721
H       -0.14139670      -0.58316742       1.97235933
19
Frame=8 idx=010399 GeodesicLength=0.8173573071729959 rxn_smarts="[C:1]([C:2]1([H:11])[C:3]([H:12])([H:13])[C:4]2([C:5]([H:14])([H:15])[C:6]2([H:16])[H:17])[C:7]1([H:18])[H:19])([H:8])([H:9])[H:10]>>[C:1]([C+:2]([C:7]([C:4](=[C:3]([H:12])[H:13])[C:6]([C-:5]([H:14])[H:15])([H:16])[H:17])([H:18])[H:19])[H:11])([H:8])([H:9])[H:10]"
C       -2.70785482       0.35389856      -0.08842635
C       -1.57988425      -0.50264524       0.36097348
C        0.11529213      -0.19331697      -1.23381834
C        0.67261399      -0.13103090       0.01677370
C        2.74265468      -0.15518425      -0.59847857
C        2.06700958       0.19583221       0.61606422
C       -0.43710444       0.00248721       1.10260657
H       -3.40620357      -0.18606247      -0.73208066
H       -2.35689834       1.23176126      -0.64408505
H       -3.28094571       0.73492752       0.76468851
H       -1.75532300      -1.57257110       0.41747816
H       -0.59761337      -0.86071446      -1.69618131
H        0.59541335       0.37626660      -2.02181872
H        3.16041357       0.63326517      -1.21090711
H        3.07081640      -1.16405584      -0.80983991
H        2.06449869       1.24214523       0.92599278
H        2.30507482      -0.45937460       1.45592812
H       -0.53144836       1.05011772       1.40491596
H       -0.14051134      -0.59574566       1.97021453
19
Frame=9 idx=010399 GeodesicLength=0.9219665637160347 rxn_smarts="[C:1]([C:2]1([H:11])[C:3]([H:12])([H:13])[C:4]2([C:5]([H:14])([H:15])[C:6]2([H:16])[H:17])[C:7]1([H:18])[H:19])([H:8])([H:9])[H:10]>>[C:1]([C+:2]([C:7]([C:4](=[C:3]([H:12])[H:13])[C:6]([C-:5]([H:14])[H:15])([H:16])[H:17])([H:18])[H:19])[H:11])([H:8])([H:9])[H:10]"
C       -2.70281582       0.34658126      -0.08812884
C       -1.55826108      -0.50332780       0.33419023
C        0.09871031      -0.16042635      -1.22381634
C        0.68572682      -0.12108716       0.02072869
C        2.71540840      -0.20582161      -0.59316284
C        2.07329099       0.22821260       0.61522488
C       -0.42750207      -0.00234559       1.10362980
H       -3.36642159      -0.17175562      -0.78466623
H       -2.36651704       1.26939989      -0.57455760
H       -3.31055927       0.65006501       0.77201840
H       -1.73025316      -1.57449071       0.38466433
H       -0.57021397      -0.85521437      -1.71149139
H        0.54837222       0.45338779      -1.99684566
H        3.15194962       0.53951790      -1.24529285
H        3.03108104      -1.22899352      -0.74741601
H        2.08342049       1.28963553       0.86580955
H        2.31645335      -0.38394805       1.48501206
H       -0.53358921       1.04070789       1.41733074
H       -0.13828003      -0.61009710       1.96676907
19
Frame=10 idx=010399 GeodesicLength=1.027005213484285 rxn_smarts="[C:1]([C:2]1([H:11])[C:3]([H:12])([H:13])[C:4]2([C:5]([H:14])([H:15])[C:6]2([H:16])[H:17])[C:7]1([H:18])[H:19])([H:8])([H:9])[H:10]>>[C:1]([C+:2]([C:7]([C:4](=[C:3]([H:12])[H:13])[C:6]([C-:5]([H:14])[H:15])([H:16])[H:17])([H:18])[H:19])[H:11])([H:8])([H:9])[H:10]"
C       -2.69743519       0.33986271      -0.08749644
C       -1.53711419      -0.50309660       0.30841207
C        0.08252137      -0.12984182      -1.21404873
C        0.69811050      -0.11070745       0.02392423
C        2.68736693      -0.25443249      -0.58497216
C        2.07945901       0.26058596       0.61193827
C       -0.41766527      -0.00781322       1.10458880
H       -3.32637247      -0.15139846      -0.83450548
H       -2.37735080       1.30197691      -0.50217806
H       -3.33699190       0.56518212       0.77354169
H       -1.70579678      -1.57549279       0.35181417
H       -0.54323819      -0.84648731      -1.72739883
H        0.50325886       0.52378466      -1.97101603
H        3.13823793       0.44584415      -1.27627497
H        2.99227525      -1.28798562      -0.68136293
H        2.10276877       1.33344178       0.80351564
H        2.32767032      -0.30797221       1.50896522
H       -0.53491483       1.03028376       1.43025753
H       -0.13478933      -0.62573409       1.96229602
19
Frame=11 idx=010399 GeodesicLength=1.1325118573001693 rxn_smarts="[C:1]([C:2]1([H:11])[C:3]([H:12])([H:13])[C:4]2([C:5]([H:14])([H:15])[C:6]2([H:16])[H:17])[C:7]1([H:18])[H:19])([H:8])([H:9])[H:10]>>[C:1]([C+:2]([C:7]([C:4](=[C:3]([H:12])[H:13])[C:6]([C-:5]([H:14])[H:15])([H:16])[H:17])([H:18])[H:19])[H:11])([H:8])([H:9])[H:10]"
C       -2.69174069       0.33359349      -0.08660008
C       -1.51640676      -0.50201522       0.28369665
C        0.06674103      -0.10150488      -1.20455489
C        0.70983384      -0.09992637       0.02644529
C        2.65872436      -0.30088819      -0.57406081
C        2.08555971       0.29257254       0.60640858
C       -0.40758982      -0.01365082       1.10543384
H       -3.28602744      -0.12544162      -0.88142864
H       -2.38932448       1.32921839      -0.42738330
H       -3.36044511       0.48064836       0.76912652
H       -1.68184421      -1.57560915       0.31927955
H       -0.51685662      -0.83517065      -1.74358713
H        0.45955157       0.58832734      -1.94468456
H        3.11996130       0.35268810      -1.30335963
H        2.95411632      -1.34104686      -0.61264769
H        2.12270569       1.37328544       0.73966607
H        2.33863522      -0.23220946       1.52794675
H       -0.53546070       1.01919783       1.44332987
H       -0.13013321      -0.64206829       1.95697362
19
Frame=12 idx=010399 GeodesicLength=1.2384589293982822 rxn_smarts="[C:1]([C:2]1([H:11])[C:3]([H:12])([H:13])[C:4]2([C:5]([H:14])([H:15])[C:6]2([H:16])[H:17])[C:7]1([H:18])[H:19])([H:8])([H:9])[H:10]>>[C:1]([C+:2]([C:7]([C:4](=[C:3]([H:12])[H:13])[C:6]([C-:5]([H:14])[H:15])([H:16])[H:17])([H:18])[H:19])[H:11])([H:8])([H:9])[H:10]"
C       -2.68580673       0.32761880      -0.08550314
C       -1.49612644      -0.50017763       0.26005528
C        0.05137867      -0.07527478      -1.19537775
C        0.72097613      -0.08882447       0.02836288
C        2.62969036      -0.34513504      -0.56061227
C        2.09167135       0.32387633       0.59883093
C       -0.39728142      -0.01964577       1.10611737
H       -3.24553334      -0.09440963      -0.92512650
H       -2.40244411       1.35085959      -0.35068809
H       -3.38108005       0.39685265       0.75872566
H       -1.65831127      -1.57492023       0.28730858
H       -0.49123316      -0.82163950      -1.75990441
H        0.41677248       0.64788728      -1.91801511
H        3.09791118       0.26037416      -1.32619944
H        2.91638616      -1.38836702      -0.54207004
H        2.14338822       1.40901627       0.67465690
H        2.34933954      -0.15722576       1.54223301
H       -0.53526196       1.00775529       1.45622159
H       -0.12443560      -0.65862055       1.95098456
19
Frame=13 idx=010399 GeodesicLength=1.3448494321939395 rxn_smarts="[C:1]([C:2]1([H:11])[C:3]([H:12])([H:13])[C:4]2([C:5]([H:14])([H:15])[C:6]2([H:16])[H:17])[C:7]1([H:18])[H:19])([H:8])([H:9])[H:10]>>[C:1]([C+:2]([C:7]([C:4](=[C:3]([H:12])[H:13])[C:6]([C-:5]([H:14])[H:15])([H:16])[H:17])([H:18])[H:19])[H:11])([H:8])([H:9])[H:10]"
C       -2.67971246       0.32174779      -0.08426158
C       -1.47623736      -0.49766006       0.23750775
C        0.03642161      -0.05093889      -1.18652712
C        0.73161180      -0.07739461       0.02975069
C        2.60037092      -0.38711256      -0.54489402
C        2.09787179       0.35420422       0.58943169
C       -0.38675120      -0.02552604       1.10661540
H       -3.20490754      -0.05879417      -0.96543037
H       -2.41682534       1.36666315      -0.27258829
H       -3.39901629       0.31411277       0.74236697
H       -1.63505915      -1.57349884       0.25614305
H       -0.46643901      -0.80624214      -1.77616963
H        0.37456558       0.70308126      -1.89115400
H        3.07270600       0.16927143      -1.34458847
H        2.87881472      -1.43017598      -0.47045607
H        2.16499907       1.44047391       0.60899768
H        2.35981246      -0.08366728       1.55208831
H       -0.53438762       0.99632598       1.46863756
H       -0.11783795      -0.67486993       1.94453045
19
Frame=14 idx=010399 GeodesicLength=1.451623696844582 rxn_smarts="[C:1]([C:2]1([H:11])[C:3]([H:12])([H:13])[C:4]2([C:5]([H:14])([H:15])[C:6]2([H:16])[H:17])[C:7]1([H:18])[H:19])([H:8])([H:9])[H:10]>>[C:1]([C+:2]([C:7]([C:4](=[C:3]([H:12])[H:13])[C:6]([C-:5]([H:14])[H:15])([H:16])[H:17])([H:18])[H:19])[H:11])([H:8])([H:9])[H:10]"
C       -2.67351190       0.31590450      -0.08289279
C       -1.45675645      -0.49459666       0.21598154
C        0.02185592      -0.02832802      -1.17804501
C        0.74179866      -0.06579986       0.03062944
C        2.57093955      -0.42688233      -0.52706351
C        2.10419881       0.38348995       0.57830768
C       -0.37601467      -0.03127629       1.10688481
H       -3.16440684      -0.01896495      -1.00198247
H       -2.43238564       1.37649431      -0.19345426
H       -3.41434062       0.23278758       0.72015394
H       -1.61208879      -1.57147257       0.22579294
H       -0.44263058      -0.78904092      -1.79243260
H        0.33260177       0.75457284      -1.86405368
H        3.04506785       0.07944351      -1.35844500
H        2.84135570      -1.46682200      -0.39805791
H        2.18753884       1.46775717       0.54267598
H        2.37009761      -0.01153930       1.55786377
H       -0.53286340       0.98498036       1.48044258
H       -0.11045582      -0.69070731       1.93769456
19
Frame=15 idx=010399 GeodesicLength=1.5587891619624772 rxn_smarts="[C:1]([C:2]1([H:11])[C:3]([H:12])([H:13])[C:4]2([C:5]([H:14])([H:15])[C:6]2([H:16])[H:17])[C:7]1([H:18])[H:19])([H:8])([H:9])[H:10]>>[C:1]([C+:2]([C:7]([C:4](=[C:3]([H:12])[H:13])[C:6]([C-:5]([H:14])[H:15])([H:16])[H:17])([H:18])[H:19])[H:11])([H:8])([H:9])[H:10]"
C       -2.66724612       0.30997719      -0.08140659
C       -1.43766572      -0.49108467       0.19543872
C        0.00765367      -0.00723013      -1.16993533
C        0.75158751      -0.05411259       0.03102441
C        2.54146550      -0.46449721      -0.50731959
C        2.11067736       0.41164024       0.56555843
C       -0.36508491      -0.03679954       1.10690505
H       -3.12406559       0.02478767      -1.03459218
H       -2.44914219       1.38021116      -0.11352894
H       -3.42715643       0.15311844       0.69215321
H       -1.58932781      -1.56893302       0.19630555
H       -0.41990490      -0.77012031      -1.80867692
H        0.29066628       0.80281092      -1.83668851
H        3.01552380      -0.00902344      -1.36775355
H        2.80390078      -1.49860378      -0.32516976
H        2.21102397       1.49087666       0.47578792
H        2.38023311       0.05904142       1.55981535
H       -0.53074025       0.97387173       1.49150561
H       -0.10239807      -0.70593074       1.93057711
19
Frame=16 idx=010399 GeodesicLength=1.6663577105725442 rxn_smarts="[C:1]([C:2]1([H:11])[C:3]([H:12])([H:13])[C:4]2([C:5]([H:14])([H:15])[C:6]2([H:16])[H:17])[C:7]1([H:18])[H:19])([H:8])([H:9])[H:10]>>[C:1]([C+:2]([C:7]([C:4](=[C:3]([H:12])[H:13])[C:6]([C-:5]([H:14])[H:15])([H:16])[H:17])([H:18])[H:19])[H:11])([H:8])([H:9])[H:10]"
C       -2.66095119       0.30385818      -0.07981385
C       -1.41894011      -0.48721111       0.17582094
C       -0.00620772       0.01258413      -1.16219812
C        0.76102535      -0.04239931       0.03095096
C        2.51199565      -0.50003353      -0.48584199
C        2.11733166       0.43857620       0.55126381
C       -0.35397678      -0.04200106       1.10665511
H       -3.08399296       0.07211446      -1.06299388
H       -2.46710568       1.37764320      -0.03308713
H       -3.43751772       0.07535759       0.65844559
H       -1.56669070      -1.56596585       0.16768382
H       -0.39834704      -0.74946592      -1.82493172
H        0.24860714       0.84821897      -1.80897195
H        2.98456458      -0.09609343      -1.37252287
H        2.76630963      -1.52582277      -0.25200407
H        2.23547678       1.50982560       0.40839518
H        2.39026073       0.12802315       1.55817366
H       -0.52807009       0.96315177       1.50170783
H       -0.09377152      -0.72036029       1.92326866
