14
Frame=0 idx=005509 GeodesicLength=0.0 rxn_smarts="[C:1]([C:2]1([O:3][H:10])[C:4]([H:11])([H:12])[O:5][C:6]1([H:13])[H:14])([H:7])([H:8])[H:9]>>[C:1]([C:6]([O:5][C:4]([C:2][O:3][H:10])([H:11])[H:12])([H:13])[H:14])([H:7])([H:8])[H:9]"
C        1.36146810       0.56559786      -0.05771032
C        0.36041682      -0.92405911      -0.00920352
O        0.42975569      -1.42997843       1.23413259
C       -1.04305920      -0.91219072      -0.55266447
O       -1.14499243       0.35270910      -1.16651768
C       -0.49260800       1.06946884      -0.21648487
H        1.66878160       0.77391211      -1.07905488
H        2.17134975       0.00119715       0.41093277
H        1.37901159       1.50388886       0.54056222
H       -0.43727809      -1.42255395       1.67729464
H       -1.80857066      -0.98552359       0.26489486
H       -1.23512275      -1.70917890      -1.27247903
H       -0.94300812       1.04312827       0.78622686
H       -0.26614430       2.07358257      -0.55992914
14
Frame=1 idx=005509 GeodesicLength=0.051952733650916766 rxn_smarts="[C:1]([C:2]1([O:3][H:10])[C:4]([H:11])([H:12])[O:5][C:6]1([H:13])[H:14])([H:7])([H:8])[H:9]>>[C:1]([C:6]([O:5][C:4]([C:2][O:3][H:10])([H:11])[H:12])([H:13])[H:14])([H:7])([H:8])[H:9]"
C        1.36652505       0.57286899      -0.06513842
C        0.35334247      -0.92117799       0.00987422
O        0.41721938      -1.43412875       1.25027311
C       -1.04172231      -0.91461924      -0.55386390
O       -1.14312636       0.35274918      -1.16227430
C       -0.48980427       1.06965563      -0.20722687
H        1.66365407       0.77417117      -1.09113917
H        2.17756325       0.00101414       0.39209268
H        1.40585731       1.51001756       0.53174703
H       -0.45360589      -1.43562422       1.68561539
H       -1.81647901      -0.99621549       0.25257104
H       -1.21368580      -1.70952699      -1.28131490
H       -0.95076635       1.05436573       0.79077737
H       -0.27497154       2.07645028      -0.55199327
14
Frame=2 idx=005509 GeodesicLength=0.10386713608851836 rxn_smarts="[C:1]([C:2]1([O:3][H:10])[C:4]([H:11])([H:12])[O:5][C:6]1([H:13])[H:14])([H:7])([H:8])[H:9]>>[C:1]([C:6]([O:5][C:4]([C:2][O:3][H:10])([H:11])[H:12])([H:13])[H:14])([H:7])([H:8])[H:9]"
C        1.37146818       0.58021012      -0.07271998
C        0.34611299      -0.91792738       0.02944881
O        0.40430809      -1.43850434       1.26661340
C       -1.04005081      -0.91700161      -0.55497805
O       -1.14129002       0.35285578      -1.15777912
C       -0.48704304       1.07000842      -0.19773784
H        1.65820936       0.77449960      -1.10326493
H        2.18338943       0.00059670       0.37278780
H        1.43306969       1.51591449       0.52240225
H       -0.47025603      -1.44911533       1.69387375
H       -1.82410385      -1.00711436       0.23991107
H       -1.19136474      -1.70958978      -1.28979759
H       -0.95870754       1.06590362       0.79525198
H       -0.28374171       2.07926407      -0.54401155
14
Frame=3 idx=005509 GeodesicLength=0.15579276626708252 rxn_smarts="[C:1]([C:2]1([O:3][H:10])[C:4]([H:11])([H:12])[O:5][C:6]1([H:13])[H:14])([H:7])([H:8])[H:9]>>[C:1]([C:6]([O:5][C:4]([C:2][O:3][H:10])([H:11])[H:12])([H:13])[H:14])([H:7])([H:8])[H:9]"
C        1.37628786       0.58762678      -0.08045560
C        0.33870863      -0.91428744       0.04955644
O        0.39100284      -1.44312093       1.28316541
C       -1.03802606      -0.91933587      -0.55599651
O       -1.13949244       0.35303507      -1.15302236
C       -0.48432547       1.07055069      -0.18801147
H        1.65242936       0.77489921      -1.11543646
H        2.18879334      -0.00007154       0.35299969
H        1.46067024       1.52157381       0.51249091
H       -0.48724872      -1.46308769       1.70205499
H       -1.83142324      -1.01824284       0.22690001
H       -1.16810561      -1.70935672      -1.29789910
H       -0.96682397       1.07776769       0.79965406
H       -0.29244676       2.08204978      -0.53600002
14
Frame=4 idx=005509 GeodesicLength=0.20769398936584832 rxn_smarts="[C:1]([C:2]1([O:3][H:10])[C:4]([H:11])([H:12])[O:5][C:6]1([H:13])[H:14])([H:7])([H:8])[H:9]>>[C:1]([C:6]([O:5][C:4]([C:2][O:3][H:10])([H:11])[H:12])([H:13])[H:14])([H:7])([H:8])[H:9]"
C        1.38096471       0.59512104      -0.08832311
C        0.33111617      -0.91024762       0.07018068
O        0.37732445      -1.44806021       1.29984974
C       -1.03564058      -0.92161329      -0.55689771
O       -1.13773474       0.35327714      -1.14800984
C       -0.48165510       1.07129533      -0.17807588
H        1.64632186       0.77539504      -1.12761204
H        2.19371458      -0.00099668       0.33276962
H        1.48861938       1.52695018       0.50204211
H       -0.50451893      -1.47751431       1.71013535
H       -1.83839294      -1.02957585       0.21356214
H       -1.14393767      -1.70881285      -1.30554995
H       -0.97510326       1.08997276       0.80394435
H       -0.30107793       2.08480930      -0.52801545
14
Frame=5 idx=005509 GeodesicLength=0.25958103266729704 rxn_smarts="[C:1]([C:2]1([O:3][H:10])[C:4]([H:11])([H:12])[O:5][C:6]1([H:13])[H:14])([H:7])([H:8])[H:9]>>[C:1]([C:6]([O:5][C:4]([C:2][O:3][H:10])([H:11])[H:12])([H:13])[H:14])([H:7])([H:8])[H:9]"
C        1.38548828       0.60269674      -0.09630940
C        0.32332077      -0.90579065       0.09133097
O        0.36328510      -1.45337230       1.31663003
C       -1.03288534      -0.92382780      -0.55766734
O       -1.13602585       0.35357663      -1.14274491
C       -0.47903736       1.07225885      -0.16794505
H        1.63988762       0.77600268      -1.13977262
H        2.19810973      -0.00218964       0.31210979
H        1.51691127       1.53201167       0.49106069
H       -0.52204087      -1.49240274       1.71810350
H       -1.84498642      -1.04111256       0.19990397
H       -1.11885664      -1.70794180      -1.31270791
H       -0.98353932       1.10253794       0.80810542
H       -0.30963094       2.08755299      -0.52009712
14
Frame=6 idx=005509 GeodesicLength=0.3114530348232922 rxn_smarts="[C:1]([C:2]1([O:3][H:10])[C:4]([H:11])([H:12])[O:5][C:6]1([H:13])[H:14])([H:7])([H:8])[H:9]>>[C:1]([C:6]([O:5][C:4]([C:2][O:3][H:10])([H:11])[H:12])([H:13])[H:14])([H:7])([H:8])[H:9]"
C        1.38984405       0.61035666      -0.10440018
C        0.31530291      -0.90090068       0.11301632
O        0.34889674      -1.45911072       1.33345906
C       -1.02974834      -0.92597251      -0.55828730
O       -1.13437004       0.35392864      -1.13722708
C       -0.47647607       1.07345831      -0.15763406
H        1.63312371       0.77673695      -1.15189544
H        2.20192583      -0.00366306       0.29103621
H        1.54553491       1.53672192       0.47955004
H       -0.53978366      -1.50775402       1.72594186
H       -1.85116962      -1.05284926       0.18593272
H       -1.09285606      -1.70672655      -1.31932242
H       -0.99212146       1.11548221       0.81211468
H       -0.31810290       2.09029212      -0.51228443
14
Frame=7 idx=005509 GeodesicLength=0.3633135945229293 rxn_smarts="[C:1]([C:2]1([O:3][H:10])[C:4]([H:11])([H:12])[O:5][C:6]1([H:13])[H:14])([H:7])([H:8])[H:9]>>[C:1]([C:6]([O:5][C:4]([C:2][O:3][H:10])([H:11])[H:12])([H:13])[H:14])([H:7])([H:8])[H:9]"
C        1.39401891       0.61810340      -0.11258036
C        0.30704072      -0.89556176       0.13524638
O        0.33417442      -1.46532787       1.35028713
C       -1.02621848      -0.92804053      -0.55873965
O       -1.13277278       0.35432813      -1.13145714
C       -0.47397600       1.07491129      -0.14715848
H        1.62602904       0.77761285      -1.16395864
H        2.20510922      -0.00543042       0.26956606
H        1.57448146       1.54104163       0.46751414
H       -0.55771531      -1.52356692       1.73363491
H       -1.85690923      -1.06478367       0.17165548
H       -1.06592932      -1.70514937      -1.32534345
H       -1.00083938       1.12882454       0.81595033
H       -0.32649327       2.09303871      -0.50461672
14
Frame=8 idx=005509 GeodesicLength=0.41516756633542246 rxn_smarts="[C:1]([C:2]1([O:3][H:10])[C:4]([H:11])([H:12])[O:5][C:6]1([H:13])[H:14])([H:7])([H:8])[H:9]>>[C:1]([C:6]([O:5][C:4]([C:2][O:3][H:10])([H:11])[H:12])([H:13])[H:14])([H:7])([H:8])[H:9]"
C        1.39800019       0.62593972      -0.12083369
C        0.29851048      -0.88976041       0.15802984
O        0.31913929      -1.47207770       1.36705933
C       -1.02228625      -0.93002473      -0.55900596
O       -1.13123927       0.35476783      -1.12543679
C       -0.47154188       1.07663349      -0.13653595
H        1.61860377       0.77864808      -1.17593992
H        2.20760358      -0.00750382       0.24771878
H        1.60374142       1.54492621       0.45496283
H       -0.57579935      -1.53983168       1.74116961
H       -1.86217186      -1.07691262       0.15708046
H       -1.03807473      -1.70318884      -1.33072152
H       -1.00968300       1.14258265       0.81958770
H       -0.33480239       2.09580182      -0.49713474
14
Frame=9 idx=005509 GeodesicLength=0.4670190799052413 rxn_smarts="[C:1]([C:2]1([O:3][H:10])[C:4]([H:11])([H:12])[O:5][C:6]1([H:13])[H:14])([H:7])([H:8])[H:9]>>[C:1]([C:6]([O:5][C:4]([C:2][O:3][H:10])([H:11])[H:12])([H:13])[H:14])([H:7])([H:8])[H:9]"
C        1.40177591       0.63386829      -0.12914030
C        0.28968527      -0.88348023       0.18137423
O        0.30381833      -1.47941011       1.38371331
C       -1.01794367      -0.93191714      -0.55906684
O       -1.12977372       0.35524261      -1.11917092
C       -0.46917927       1.07864452      -0.12578544
H        1.61085181       0.77985570      -1.18781336
H        2.20934960      -0.00989513       0.22552466
H        1.63330647       1.54833381       0.44189792
H       -0.59399591      -1.55655422       1.74852792
H       -1.86692441      -1.08923040       0.14221877
H       -1.00929650      -1.70083066      -1.33540138
H       -1.01864132       1.15677775       0.82300290
H       -0.34303259       2.09859521      -0.48988145
14
Frame=10 idx=005509 GeodesicLength=0.5188740699741301 rxn_smarts="[C:1]([C:2]1([O:3][H:10])[C:4]([H:11])([H:12])[O:5][C:6]1([H:13])[H:14])([H:7])([H:8])[H:9]>>[C:1]([C:6]([O:5][C:4]([C:2][O:3][H:10])([H:11])[H:12])([H:13])[H:14])([H:7])([H:8])[H:9]"
C        1.40533504       0.64189136      -0.13747984
C        0.28053544      -0.87670779       0.20528628
O        0.28824401      -1.48736960       1.40018405
C       -1.01318413      -0.93370941      -0.55890281
O       -1.12838008       0.35574581      -1.11266443
C       -0.46689370       1.08096152      -0.11492649
H        1.60277768       0.78125042      -1.19955377
H        2.21028608      -0.01261547       0.20301553
H        1.66316865       1.55121619       0.42832528
H       -0.61226140      -1.57373377       1.75569314
H       -1.87113389      -1.10173122       0.12708125
H       -0.97960181      -1.69805623      -1.33932925
H       -1.02770464       1.17142908       0.82616976
H       -0.35118725       2.10142911      -0.48289869
14
Frame=11 idx=005509 GeodesicLength=0.5707396076242438 rxn_smarts="[C:1]([C:2]1([O:3][H:10])[C:4]([H:11])([H:12])[O:5][C:6]1([H:13])[H:14])([H:7])([H:8])[H:9]>>[C:1]([C:6]([O:5][C:4]([C:2][O:3][H:10])([H:11])[H:12])([H:13])[H:14])([H:7])([H:8])[H:9]"
C        1.40866773       0.65001038      -0.14583034
C        0.27102839      -0.86943201       0.22977031
O        0.27245452      -1.49599158       1.41640310
C       -1.00800283      -0.93539339      -0.55849498
O       -1.12706170       0.35627073      -1.10592359
C       -0.46469096       1.08360073      -0.10397875
H        1.59438778       0.78284708      -1.21113520
H        2.21035007      -0.01567617       0.18022620
H        1.69332002       1.55352032       0.41425233
H       -0.63054801      -1.59136748       1.76264933
H       -1.87476770      -1.11440947       0.11167911
H       -0.94900202      -1.69484706      -1.34245230
H       -1.03686434       1.18655501       0.82906159
H       -0.35927096       2.10431291      -0.47622681
14
Frame=12 idx=005509 GeodesicLength=0.6226263570057912 rxn_smarts="[C:1]([C:2]1([O:3][H:10])[C:4]([H:11])([H:12])[O:5][C:6]1([H:13])[H:14])([H:7])([H:8])[H:9]>>[C:1]([C:6]([O:5][C:4]([C:2][O:3][H:10])([H:11])[H:12])([H:13])[H:14])([H:7])([H:8])[H:9]"
C        1.41176686       0.65822609      -0.15416863
C        0.26112857      -0.86164535       0.25482664
O        0.25649314      -1.50529824       1.43229969
C       -1.00239731      -0.93696170      -0.55782606
O       -1.12582207       0.35681024      -1.09895606
C       -0.46257748       1.08657614      -0.09296057
H        1.58569115       0.78466145      -1.22253243
H        2.20947927      -0.01908861       0.15719418
H        1.72375435       1.55518761       0.39968883
H       -0.64880415      -1.60944699       1.76938168
H       -1.87779462      -1.12726036       0.09602289
H       -0.91751328      -1.69118529      -1.34472023
H       -1.04611434       1.20217108       0.83165244
H       -0.36729009       2.10725391      -0.46990236
14
Frame=13 idx=005509 GeodesicLength=0.6745805982101388 rxn_smarts="[C:1]([C:2]1([O:3][H:10])[C:4]([H:11])([H:12])[O:5][C:6]1([H:13])[H:14])([H:7])([H:8])[H:9]>>[C:1]([C:6]([O:5][C:4]([C:2][O:3][H:10])([H:11])[H:12])([H:13])[H:14])([H:7])([H:8])[H:9]"
C        1.41463834       0.66654429      -0.16247259
C        0.25079993      -0.85334686       0.28045511
O        0.24040846      -1.51529805       1.44781966
C       -0.99637554      -0.93840953      -0.55688434
O       -1.12467349       0.35735944      -1.09177839
C       -0.46056097       1.08989907      -0.08189072
H        1.57670657       0.78672144      -1.23373072
H        2.20762633      -0.02285841       0.13396218
H        1.75448191       1.55615917       0.38464744
H       -0.66698213      -1.62797568       1.77588904
H       -1.88019883      -1.14028785       0.08012226
H       -0.88516408      -1.68705100      -1.34609515
H       -1.05545347       1.21828407       0.83392181
H       -0.37525303       2.11025991      -0.46396560
14
Frame=14 idx=005509 GeodesicLength=0.7265125297939389 rxn_smarts="[C:1]([C:2]1([O:3][H:10])[C:4]([H:11])([H:12])[O:5][C:6]1([H:13])[H:14])([H:7])([H:8])[H:9]>>[C:1]([C:6]([O:5][C:4]([C:2][O:3][H:10])([H:11])[H:12])([H:13])[H:14])([H:7])([H:8])[H:9]"
C        1.41724349       0.67494620      -0.17070453
C        0.24000158      -0.84452303       0.30664920
O        0.22425842      -1.52595145       1.46287734
C       -0.98991441      -0.93971696      -0.55564403
O       -1.12359318       0.35791662      -1.08437471
C       -0.45864193       1.09358523      -0.07078193
H        1.56741287       0.78899859      -1.24466479
H        2.20467735      -0.02701229       0.11056839
H        1.78545780       1.55636122       0.36910355
H       -0.68500938      -1.64697721       1.78210570
H       -1.88191262      -1.15346954       0.06398448
H       -0.85195619      -1.68242063      -1.34650806
H       -1.06486348       1.23493332       0.83582672
H       -0.38316032       2.11332993      -0.45843734
14
Frame=15 idx=005509 GeodesicLength=0.7784849162251354 rxn_smarts="[C:1]([C:2]1([O:3][H:10])[C:4]([H:11])([H:12])[O:5][C:6]1([H:13])[H:14])([H:7])([H:8])[H:9]>>[C:1]([C:6]([O:5][C:4]([C:2][O:3][H:10])([H:11])[H:12])([H:13])[H:14])([H:7])([H:8])[H:9]"
C        1.41959562       0.68343352      -0.17886037
C        0.22868644      -0.83519790       0.33338375
O        0.20807073      -1.53719349       1.47742637
C       -0.98301962      -0.94089278      -0.55410038
O       -1.12259161       0.35846774      -1.07675198
C       -0.45682426       1.09762712      -0.05963290
H        1.55782362       0.79154118      -1.25534445
H        2.20058588      -0.03155868       0.08703418
H        1.81669523       1.55569975       0.35309452
H       -0.70284825      -1.66638137       1.78802627
H       -1.88290818      -1.16682147       0.04760379
H       -0.81789938      -1.67727826      -1.34592860
H       -1.07434275       1.25209646       0.83736217
H       -0.39102347       2.11645819      -0.45331237
14
Frame=16 idx=005509 GeodesicLength=0.8305527627300772 rxn_smarts="[C:1]([C:2]1([O:3][H:10])[C:4]([H:11])([H:12])[O:5][C:6]1([H:13])[H:14])([H:7])([H:8])[H:9]>>[C:1]([C:6]([O:5][C:4]([C:2][O:3][H:10])([H:11])[H:12])([H:13])[H:14])([H:7])([H:8])[H:9]"
C        1.42171122       0.69200956      -0.18690442
C        0.21682122      -0.82538411       0.36064391
O        0.19191470      -1.54896130       1.49145099
C       -0.97571255      -0.94192735      -0.55225164
O       -1.12168033       0.35901576      -1.06893672
C       -0.45511875       1.10202863      -0.04845957
H        1.54797242       0.79437248      -1.26574340
H        2.19531535      -0.03649424       0.06341280
H        1.84821253       1.55411160       0.33660687
H       -0.72044125      -1.68624382       1.79364528
H       -1.88318540      -1.18035007       0.03098982
H       -0.78305487      -1.67159792      -1.34433816
H       -1.08390508       1.26977388       0.83850621
H       -0.39884921       2.11964690      -0.44862196
