15
Frame=0 idx=009214 GeodesicLength=0.0 rxn_smarts="[C:1]([C:2]#[C:3][C:4]([C@@:5]1([H:13])[C:6]([H:14])([H:15])[O:7]1)([H:11])[H:12])([H:8])([H:9])[H:10]>>[C:1](=[C:2]=[C:3]([C:4]([C@@:5]1([H:13])[C:6]([H:14])([H:15])[O:7]1)([H:11])[H:12])[H:9])([H:8])[H:10]"
C        2.98898545      -0.57297988      -1.30781251
C        1.72336474      -0.53660756      -0.75652247
C        0.48431698      -0.21872307      -0.62039108
C       -0.22193786       0.71766990       0.27170534
C       -1.72115736       0.55812156       0.26285330
C       -2.42163054      -0.13797749       1.33379790
O       -2.43213760       1.28018712       1.25279694
H        3.69845866      -1.33040039      -1.00415194
H        1.85591773      -1.65088791      -1.09892922
H        3.27145309       0.09327889      -2.11661951
H        0.02736947       1.72638810      -0.09085016
H        0.15010864       0.67308399       1.30045051
H       -2.17809901       0.57021628      -0.72469043
H       -3.37394803      -0.62104515       1.13613999
H       -1.85106430      -0.55032435       2.16222339
15
Frame=1 idx=009214 GeodesicLength=0.09416386998456899 rxn_smarts="[C:1]([C:2]#[C:3][C:4]([C@@:5]1([H:13])[C:6]([H:14])([H:15])[O:7]1)([H:11])[H:12])([H:8])([H:9])[H:10]>>[C:1](=[C:2]=[C:3]([C:4]([C@@:5]1([H:13])[C:6]([H:14])([H:15])[O:7]1)([H:11])[H:12])[H:9])([H:8])[H:10]"
C        2.97651581      -0.58930280      -1.35674786
C        1.76246784      -0.50018460      -0.70443310
C        0.51772860      -0.21519894      -0.56257988
C       -0.21207480       0.72704312       0.30450029
C       -1.70968722       0.55691043       0.25973051
C       -2.43144483      -0.14400125       1.31354953
O       -2.44889713       1.27410732       1.23258685
H        3.71321751      -1.31797328      -1.04628020
H        1.84324114      -1.65100880      -1.03961237
H        3.21430997       0.05393577      -2.19808356
H        0.03921846       1.73566008      -0.05565058
H        0.13336049       0.68753808       1.34267325
H       -2.14396510       0.56839651      -0.73809148
H       -3.37602823      -0.63254860       1.09339941
H       -1.87796250      -0.55337306       2.15503919
15
Frame=2 idx=009214 GeodesicLength=0.18811524240384042 rxn_smarts="[C:1]([C:2]#[C:3][C:4]([C@@:5]1([H:13])[C:6]([H:14])([H:15])[O:7]1)([H:11])[H:12])([H:8])([H:9])[H:10]>>[C:1](=[C:2]=[C:3]([C:4]([C@@:5]1([H:13])[C:6]([H:14])([H:15])[O:7]1)([H:11])[H:12])[H:9])([H:8])[H:10]"
C        2.95869349      -0.60813387      -1.39821159
C        1.79715081      -0.45911654      -0.66615991
C        0.54867251      -0.20677380      -0.51207545
C       -0.20251771       0.73831580       0.33360008
C       -1.69749786       0.55622573       0.25676549
C       -2.43633976      -0.15245967       1.29347217
O       -2.46232462       1.26558946       1.21541056
H        3.72101489      -1.30525841      -1.07683841
H        1.82755499      -1.64820446      -0.98265018
H        3.15942807       0.00861244      -2.26843648
H        0.04891377       1.74778499      -0.02248317
H        0.11918207       0.70174879       1.37939847
H       -2.11174404       0.56870713      -0.74957008
H       -3.37273388      -0.64698707       1.05257175
H       -1.89745272      -0.56005051       2.14520676
15
Frame=3 idx=009214 GeodesicLength=0.28221333941023136 rxn_smarts="[C:1]([C:2]#[C:3][C:4]([C@@:5]1([H:13])[C:6]([H:14])([H:15])[O:7]1)([H:11])[H:12])([H:8])([H:9])[H:10]>>[C:1](=[C:2]=[C:3]([C:4]([C@@:5]1([H:13])[C:6]([H:14])([H:15])[O:7]1)([H:11])[H:12])[H:9])([H:8])[H:10]"
C        2.93660988      -0.62879639      -1.43616814
C        1.82972141      -0.41311647      -0.63845699
C        0.57898200      -0.19518575      -0.46455084
C       -0.19271948       0.75037824       0.36231515
C       -1.68438369       0.55669296       0.25407819
C       -2.43914014      -0.16256957       1.27198090
O       -2.47393290       1.25557561       1.20036059
H        3.72747772      -1.28737988      -1.10155145
H        1.81403790      -1.64316724      -0.91950533
H        3.09954110      -0.04748687      -2.33829775
H        0.05842011       1.76173023       0.01295566
H        0.10594098       0.71341441       1.41481522
H       -2.07909545       0.57296426      -0.76005277
H       -3.36697840      -0.66232096       1.00980806
H       -1.91448104      -0.57073259       2.13226950
15
Frame=4 idx=009214 GeodesicLength=0.3762647924119097 rxn_smarts="[C:1]([C:2]#[C:3][C:4]([C@@:5]1([H:13])[C:6]([H:14])([H:15])[O:7]1)([H:11])[H:12])([H:8])([H:9])[H:10]>>[C:1](=[C:2]=[C:3]([C:4]([C@@:5]1([H:13])[C:6]([H:14])([H:15])[O:7]1)([H:11])[H:12])[H:9])([H:8])[H:10]"
C        2.91142818      -0.65007421      -1.46808674
C        1.85926079      -0.36703002      -0.61827925
C        0.60841504      -0.18354052      -0.41895349
C       -0.18289040       0.76228192       0.38931315
C       -1.67053842       0.55685717       0.25116594
C       -2.43963780      -0.17274100       1.25085515
O       -2.48369691       1.24535430       1.18505200
H        3.73077099      -1.26912123      -1.12549455
H        1.80002537      -1.63713795      -0.86055841
H        3.03940024      -0.10270168      -2.39685162
H        0.06734447       1.77550870       0.04645123
H        0.09378332       0.72475429       1.44768066
H       -2.04653274       0.57654509      -0.77000947
H       -3.35861689      -0.67780903       0.96861935
H       -1.92851524      -0.58114583       2.11909606
15
Frame=5 idx=009214 GeodesicLength=0.4709434287694492 rxn_smarts="[C:1]([C:2]#[C:3][C:4]([C@@:5]1([H:13])[C:6]([H:14])([H:15])[O:7]1)([H:11])[H:12])([H:8])([H:9])[H:10]>>[C:1](=[C:2]=[C:3]([C:4]([C@@:5]1([H:13])[C:6]([H:14])([H:15])[O:7]1)([H:11])[H:12])[H:9])([H:8])[H:10]"
C        2.88325065      -0.67182582      -1.49579890
C        1.88632128      -0.31881905      -0.60558851
C        0.63785826      -0.17097846      -0.37401862
C       -0.17258807       0.77415034       0.41626962
C       -1.65565166       0.55744074       0.24817455
C       -2.43870455      -0.18346436       1.22869414
O       -2.49189972       1.23459303       1.16989325
H        3.73287058      -1.24693953      -1.14881327
H        1.78811692      -1.62972688      -0.79929386
H        2.97414281      -0.16377885      -2.45125960
H        0.07671220       1.78968960       0.08112003
H        0.08229967       0.73438522       1.47993080
H       -2.01291620       0.58172994      -0.77965547
H       -3.34856697      -0.69327847       0.92611001
H       -1.94124519      -0.59317747       2.10423581
15
Frame=6 idx=009214 GeodesicLength=0.565203120495749 rxn_smarts="[C:1]([C:2]#[C:3][C:4]([C@@:5]1([H:13])[C:6]([H:14])([H:15])[O:7]1)([H:11])[H:12])([H:8])([H:9])[H:10]>>[C:1](=[C:2]=[C:3]([C:4]([C@@:5]1([H:13])[C:6]([H:14])([H:15])[O:7]1)([H:11])[H:12])[H:9])([H:8])[H:10]"
C        2.85263004      -0.69381066      -1.51906429
C        1.91029423      -0.26945716      -0.59975944
C        0.66747509      -0.15768166      -0.32934456
C       -0.16200186       0.78601232       0.44317754
C       -1.63971773       0.55823502       0.24507811
C       -2.43615152      -0.19451824       1.20563806
O       -2.49879440       1.22339004       1.15447916
H        3.73304771      -1.22199991      -1.17310447
H        1.77797875      -1.62079927      -0.73745449
H        2.90496668      -0.22928830      -2.49936156
H        0.08605795       1.80409681       0.11660770
H        0.07117745       0.74294661       1.51155844
H       -1.97809297       0.58771891      -0.78899627
H       -3.33636903      -0.70878429       0.88256209
H       -1.95250040      -0.60606023       2.08798398
15
Frame=7 idx=009214 GeodesicLength=0.6594982984014442 rxn_smarts="[C:1]([C:2]#[C:3][C:4]([C@@:5]1([H:13])[C:6]([H:14])([H:15])[O:7]1)([H:11])[H:12])([H:8])([H:9])[H:10]>>[C:1](=[C:2]=[C:3]([C:4]([C@@:5]1([H:13])[C:6]([H:14])([H:15])[O:7]1)([H:11])[H:12])[H:9])([H:8])[H:10]"
C        2.82067517      -0.71594313      -1.53745217
C        1.93041010      -0.21939451      -0.60125926
C        0.69691941      -0.14309032      -0.28615925
C       -0.15133346       0.79811503       0.46941437
C       -1.62315209       0.55931255       0.24199887
C       -2.43180186      -0.20609649       1.18222593
O       -2.50442003       1.21155806       1.13947527
H        3.73101191      -1.19551051      -1.19697971
H        1.76764241      -1.61050385      -0.67714215
H        2.83499618      -0.29819372      -2.54001427
H        0.09493004       1.81904604       0.15216473
H        0.06078244       0.75067688       1.54190172
H       -1.94309845       0.59466579      -0.79777872
H       -3.32205609      -0.72459445       0.83897022
H       -1.96150569      -0.62004737       2.07063443
15
Frame=8 idx=009214 GeodesicLength=0.7542973351673394 rxn_smarts="[C:1]([C:2]#[C:3][C:4]([C@@:5]1([H:13])[C:6]([H:14])([H:15])[O:7]1)([H:11])[H:12])([H:8])([H:9])[H:10]>>[C:1](=[C:2]=[C:3]([C:4]([C@@:5]1([H:13])[C:6]([H:14])([H:15])[O:7]1)([H:11])[H:12])[H:9])([H:8])[H:10]"
C        2.78691923      -0.73779990      -1.55178970
C        1.94673591      -0.16871112      -0.60879998
C        0.72721844      -0.12736852      -0.24224812
C       -0.14025427       0.81043285       0.49609807
C       -1.60535406       0.56059234       0.23873628
C       -2.42586564      -0.21808185       1.15764014
O       -2.50897499       1.19919582       1.12369849
H        3.72709997      -1.16659119      -1.22300173
H        1.75851270      -1.59918850      -0.61631253
H        2.76068210      -0.37142415      -2.57438939
H        0.10390534       1.83443696       0.18894002
H        0.05049680       0.75774404       1.57224160
H       -1.90633413       0.60225028      -0.80647918
H       -3.30546878      -0.74067591       0.79377947
H       -1.96931861      -0.63481115       2.05188659
15
Frame=9 idx=009214 GeodesicLength=0.8493592685085808 rxn_smarts="[C:1]([C:2]#[C:3][C:4]([C@@:5]1([H:13])[C:6]([H:14])([H:15])[O:7]1)([H:11])[H:12])([H:8])([H:9])[H:10]>>[C:1](=[C:2]=[C:3]([C:4]([C@@:5]1([H:13])[C:6]([H:14])([H:15])[O:7]1)([H:11])[H:12])[H:9])([H:8])[H:10]"
C        2.75277739      -0.75932303      -1.56095196
C        1.95777677      -0.11808942      -0.62385849
C        0.75738208      -0.10964814      -0.20089410
C       -0.12920116       0.82324483       0.52158463
C       -1.58711213       0.56215838       0.23558458
C       -2.41768609      -0.23076858       1.13314452
O       -2.51220352       1.18595606       1.10884098
H        3.71974731      -1.13774877      -1.24710558
H        1.74653043      -1.58699730      -0.55974460
H        2.68916628      -0.44633142      -2.59976818
H        0.11193717       1.85062547       0.22514754
H        0.04127444       0.76431643       1.60072680
H       -1.87006518       0.61073953      -0.81440502
H       -3.28639181      -0.75736926       0.74940064
H       -1.97393198      -0.65076477       2.03229825
15
Frame=10 idx=009214 GeodesicLength=0.9447289412384041 rxn_smarts="[C:1]([C:2]#[C:3][C:4]([C@@:5]1([H:13])[C:6]([H:14])([H:15])[O:7]1)([H:11])[H:12])([H:8])([H:9])[H:10]>>[C:1](=[C:2]=[C:3]([C:4]([C@@:5]1([H:13])[C:6]([H:14])([H:15])[O:7]1)([H:11])[H:12])[H:9])([H:8])[H:10]"
C        2.71770690      -0.77988008      -1.56596476
C        1.96391596      -0.06808217      -0.64417070
C        0.78866322      -0.09019917      -0.15920205
C       -0.11785067       0.83658446       0.54709444
C       -1.56770693       0.56377205       0.23225633
C       -2.40739982      -0.24396832       1.10792006
O       -2.51441345       1.17197078       1.09321078
H        3.70951328      -1.10838444      -1.27239280
H        1.73238197      -1.57466629      -0.50568248
H        2.61658312      -0.52293648      -2.61742810
H        0.11955051       1.86745784       0.26169746
H        0.03229160       0.77104724       1.62877322
H       -1.83235943       0.61924252      -0.82217337
H       -3.26442155      -0.77480745       0.70428150
H       -1.97645471      -0.66715050       2.01178046
15
Frame=11 idx=009214 GeodesicLength=1.040542449838094 rxn_smarts="[C:1]([C:2]#[C:3][C:4]([C@@:5]1([H:13])[C:6]([H:14])([H:15])[O:7]1)([H:11])[H:12])([H:8])([H:9])[H:10]>>[C:1](=[C:2]=[C:3]([C:4]([C@@:5]1([H:13])[C:6]([H:14])([H:15])[O:7]1)([H:11])[H:12])[H:9])([H:8])[H:10]"
C        2.68257553      -0.79968580      -1.56648308
C        1.96369474      -0.01861253      -0.67154056
C        0.82041227      -0.06817869      -0.11960774
C       -0.10639858       0.85058223       0.57182331
C       -1.54767323       0.56583162       0.22907340
C       -2.39469851      -0.25795143       1.08249306
O       -2.51535436       1.15693957       1.07848889
H        3.69622791      -1.07871894      -1.29554009
H        1.71373510      -1.56228259      -0.45560449
H        2.54700480      -0.60160137      -2.62714379
H        0.12628263       1.88524052       0.29826897
H        0.02431928       0.77733094       1.65544773
H       -1.79475065       0.62895088      -0.82921596
H       -3.23966939      -0.79291914       0.65936420
H       -1.97570755      -0.68492527       1.99017616
15
Frame=12 idx=009214 GeodesicLength=1.1370415409677341 rxn_smarts="[C:1]([C:2]#[C:3][C:4]([C@@:5]1([H:13])[C:6]([H:14])([H:15])[O:7]1)([H:11])[H:12])([H:8])([H:9])[H:10]>>[C:1](=[C:2]=[C:3]([C:4]([C@@:5]1([H:13])[C:6]([H:14])([H:15])[O:7]1)([H:11])[H:12])[H:9])([H:8])[H:10]"
C        2.64791980      -0.81844998      -1.56249759
C        1.95635825       0.03003477      -0.70584839
C        0.85270687      -0.04317776      -0.08256014
C       -0.09483264       0.86536563       0.59563705
C       -1.52710629       0.56845426       0.22612785
C       -2.37937805      -0.27279363       1.05700581
O       -2.51498779       1.14075992       1.06502694
H        3.68044614      -1.04884981      -1.31540938
H        1.68840798      -1.55045641      -0.41070616
H        2.48163328      -0.68224479      -2.62911580
H        0.13200267       1.90413263       0.33475909
H        0.01763140       0.78319255       1.68060119
H       -1.75758102       0.64007687      -0.83539998
H       -3.21200084      -0.81178978       0.61486519
H       -1.97121978      -0.70425446       1.96751433
15
Frame=13 idx=009214 GeodesicLength=1.2339465229522382 rxn_smarts="[C:1]([C:2]#[C:3][C:4]([C@@:5]1([H:13])[C:6]([H:14])([H:15])[O:7]1)([H:11])[H:12])([H:8])([H:9])[H:10]>>[C:1](=[C:2]=[C:3]([C:4]([C@@:5]1([H:13])[C:6]([H:14])([H:15])[O:7]1)([H:11])[H:12])[H:9])([H:8])[H:10]"
C        2.61351793      -0.83544554      -1.55373696
C        1.94177695       0.07722107      -0.74615808
C        0.88622753      -0.01493932      -0.04791407
C       -0.08281937       0.88095670       0.61837018
C       -1.50563469       0.57144436       0.22327353
C       -2.36098488      -0.28860101       1.03146606
O       -2.51310095       1.12312494       1.05246664
H        3.66155278      -1.01911562      -1.33163159
H        1.65318362      -1.53934698      -0.37215097
H        2.42058226      -0.76366784      -2.62261117
H        0.13696471       1.92399149       0.37065566
H        0.01245976       0.78896054       1.70408683
H       -1.72035664       0.65208356      -0.84090725
H       -3.18080251      -0.83174422       0.57085146
H       -1.96256650      -0.72492213       1.94393974
15
Frame=14 idx=009214 GeodesicLength=1.3314308913723998 rxn_smarts="[C:1]([C:2]#[C:3][C:4]([C@@:5]1([H:13])[C:6]([H:14])([H:15])[O:7]1)([H:11])[H:12])([H:8])([H:9])[H:10]>>[C:1](=[C:2]=[C:3]([C:4]([C@@:5]1([H:13])[C:6]([H:14])([H:15])[O:7]1)([H:11])[H:12])[H:9])([H:8])[H:10]"
C        2.58218070      -0.85063516      -1.53923740
C        1.91722766       0.12251676      -0.79627427
C        0.91839039       0.01609722      -0.02147178
C       -0.07074689       0.89657185       0.63812098
C       -1.48491919       0.57574507       0.22137756
C       -2.33984608      -0.30504217       1.00737974
O       -2.50901635       1.10441674       1.04491241
H        3.64199314      -0.98697805      -1.33748165
H        1.60406817      -1.52943040      -0.34337188
H        2.37216186      -0.84795607      -2.60770842
H        0.14091665       1.94423745       0.40512132
H        0.01092753       0.79220318       1.72372529
H       -1.68727978       0.66771920      -0.84430351
H       -3.14791086      -0.85116275       0.52981609
H       -1.94814694      -0.74830286       1.91939553
15
Frame=15 idx=009214 GeodesicLength=1.4289716346127377 rxn_smarts="[C:1]([C:2]#[C:3][C:4]([C@@:5]1([H:13])[C:6]([H:14])([H:15])[O:7]1)([H:11])[H:12])([H:8])([H:9])[H:10]>>[C:1](=[C:2]=[C:3]([C:4]([C@@:5]1([H:13])[C:6]([H:14])([H:15])[O:7]1)([H:11])[H:12])[H:9])([H:8])[H:10]"
C        2.55814442      -0.86321186      -1.51774909
C        1.87921574       0.16406384      -0.86112782
C        0.94538605       0.04724608      -0.01027771
C       -0.05896167       0.91026423       0.65229831
C       -1.46733430       0.58214169       0.22164987
C       -2.31751879      -0.32078616       0.98740965
O       -2.50188174       1.08601616       1.04732532
H        3.62548383      -0.94726425      -1.32471813
H        1.53708185      -1.52205207      -0.33067288
H        2.34870128      -0.93657171      -2.58428723
H        0.14449126       1.96277588       0.43627351
H        0.01583832       0.78957628       1.73659383
H       -1.66391531       0.68933511      -0.84368038
H       -3.11732091      -0.86687880       0.49611061
H       -1.92741004      -0.77465443       1.89485212
15
Frame=16 idx=009214 GeodesicLength=1.5266496275767263 rxn_smarts="[C:1]([C:2]#[C:3][C:4]([C@@:5]1([H:13])[C:6]([H:14])([H:15])[O:7]1)([H:11])[H:12])([H:8])([H:9])[H:10]>>[C:1](=[C:2]=[C:3]([C:4]([C@@:5]1([H:13])[C:6]([H:14])([H:15])[O:7]1)([H:11])[H:12])[H:9])([H:8])[H:10]"
C        2.54083880      -0.87182174      -1.48892274
C        1.82873378       0.19879933      -0.93861790
C        0.96619527       0.07493200      -0.01529490
C       -0.04691637       0.92025809       0.66001287
C       -1.45313906       0.59018628       0.22383650
C       -2.29543433      -0.33456216       0.97203150
O       -2.49112801       1.06926419       1.05945166
H        3.61164390      -0.89606146      -1.29545136
H        1.45551173      -1.51873817      -0.33289743
H        2.35048376      -1.02612116      -2.55098606
H        0.14965159       1.97729443       0.46252187
H        0.02800541       0.77996758       1.74182278
H       -1.65083247       0.71594462      -0.83924763
H       -3.09151721      -0.87697883       0.47079922
H       -1.90209677      -0.80236300       1.87094164
