16
Frame=0 idx=010637 GeodesicLength=0.0 rxn_smarts="[C:1]([C@@:2]1([H:11])[N:3]([H:12])[C:4](=[O:5])[C@:6]1([C:7]([H:14])([H:15])[H:16])[H:13])([H:8])([H:9])[H:10]>>[C:1](=[C:2]([N:3]([C+:4]([O-:5])[C:6](=[C:7]([H:14])[H:15])[H:13])[H:12])[H:11])([H:9])[H:10].[H:8][H:16]"
C        1.43376791      -1.10706915       0.09684416
C        0.60282288      -0.50738099       1.00391911
N        0.63677131       0.90063012       1.24189407
C       -0.45582263       1.49678812       0.70672168
O       -0.76226921       2.66181397       0.74556910
C       -1.21474998       0.36690813       0.04659029
C       -1.23700791       0.18174304      -1.30929644
H        0.64590567      -1.12669991      -1.22380905
H        1.57825345      -2.18017563       0.14063951
H        2.23034431      -0.53318724      -0.36379314
H        0.06637305      -1.11316392       1.72687580
H        1.30935387       1.37385929       1.82268769
H       -1.95379348      -0.12725625       0.66822638
H       -0.79408982       0.92742600      -1.96089586
H       -2.01243968      -0.42825511      -1.75892958
H       -0.07341974      -0.78598041      -1.58324370
16
Frame=1 idx=010637 GeodesicLength=0.0750633909624543 rxn_smarts="[C:1]([C@@:2]1([H:11])[N:3]([H:12])[C:4](=[O:5])[C@:6]1([C:7]([H:14])([H:15])[H:16])[H:13])([H:8])([H:9])[H:10]>>[C:1](=[C:2]([N:3]([C+:4]([O-:5])[C:6](=[C:7]([H:14])[H:15])[H:13])[H:12])[H:11])([H:9])[H:10].[H:8][H:16]"
C        1.44045334      -1.11466129       0.10546855
C        0.59909497      -0.50840615       1.00307722
N        0.63397324       0.89929164       1.23822268
C       -0.46600978       1.49123673       0.71150060
O       -0.76441868       2.65865002       0.73219563
C       -1.21586464       0.35662182       0.04988125
C       -1.24825873       0.18760412      -1.31104759
H        0.66616300      -1.11880761      -1.23383032
H        1.57882460      -2.18840943       0.15886840
H        2.26282294      -0.55165917      -0.32253350
H        0.05856327      -1.11389579       1.72318507
H        1.32672380       1.38396966       1.78453028
H       -1.94678147      -0.15101128       0.67006856
H       -0.81866120       0.94874104      -1.95401442
H       -2.03847736      -0.40463519      -1.75868934
H       -0.06814729      -0.77462912      -1.59688307
16
Frame=2 idx=010637 GeodesicLength=0.149930984373281 rxn_smarts="[C:1]([C@@:2]1([H:11])[N:3]([H:12])[C:4](=[O:5])[C@:6]1([C:7]([H:14])([H:15])[H:16])[H:13])([H:8])([H:9])[H:10]>>[C:1](=[C:2]([N:3]([C+:4]([O-:5])[C:6](=[C:7]([H:14])[H:15])[H:13])[H:12])[H:11])([H:9])[H:10].[H:8][H:16]"
C        1.44749781      -1.12210768       0.11401791
C        0.59565426      -0.50938463       1.00196689
N        0.63139741       0.89802366       1.23436384
C       -0.47586336       1.48572466       0.71595071
O       -0.76682631       2.65507367       0.71919031
C       -1.21661663       0.34641792       0.05279694
C       -1.25962960       0.19338244      -1.31289956
H        0.68705382      -1.11068248      -1.24375238
H        1.57956487      -2.19641219       0.17715176
H        2.29463085      -0.57062724      -0.27982061
H        0.05115517      -1.11463696       1.71923306
H        1.34297683       1.39348055       1.74540115
H       -1.93935419      -0.17448200       0.67137506
H       -0.84336782       0.96963430      -1.94690996
H       -2.06532269      -0.38007566      -1.75746873
H       -0.06295042      -0.76332836      -1.61059638
16
Frame=3 idx=010637 GeodesicLength=0.22454976701961069 rxn_smarts="[C:1]([C@@:2]1([H:11])[N:3]([H:12])[C:4](=[O:5])[C@:6]1([C:7]([H:14])([H:15])[H:16])[H:13])([H:8])([H:9])[H:10]>>[C:1](=[C:2]([N:3]([C+:4]([O-:5])[C:6](=[C:7]([H:14])[H:15])[H:13])[H:12])[H:11])([H:9])[H:10].[H:8][H:16]"
C        1.45495012      -1.12935253       0.12245674
C        0.59251315      -0.51031452       1.00054597
N        0.62907132       0.89681432       1.23031067
C       -0.48531380       1.48026205       0.72000749
O       -0.76942305       2.65113946       0.70652487
C       -1.21698399       0.33632635       0.05531810
C       -1.27112474       0.19907456      -1.31486937
H        0.70847787      -1.10251318      -1.25353933
H        1.58061525      -2.20409331       0.19548733
H        2.32556140      -0.58992756      -0.23582594
H        0.04415625      -1.11540623       1.71495587
H        1.35795311       1.40230194       1.70565840
H       -1.93150814      -0.19758180       0.67215736
H       -0.86808355       0.99002395      -1.93962128
H       -2.09294828      -0.35454917      -1.75518353
H       -0.05791293      -0.75220433      -1.62438334
16
Frame=4 idx=010637 GeodesicLength=0.2991990435131682 rxn_smarts="[C:1]([C@@:2]1([H:11])[N:3]([H:12])[C:4](=[O:5])[C@:6]1([C:7]([H:14])([H:15])[H:16])[H:13])([H:8])([H:9])[H:10]>>[C:1](=[C:2]([N:3]([C+:4]([O-:5])[C:6](=[C:7]([H:14])[H:15])[H:13])[H:12])[H:11])([H:9])[H:10].[H:8][H:16]"
C        1.46292961      -1.13643769       0.13079377
C        0.58971424      -0.51124151       0.99879635
N        0.62704935       0.89567767       1.22607269
C       -0.49435622       1.47490108       0.72364570
O       -0.77220684       2.64701507       0.69417264
C       -1.21701213       0.32636610       0.05740920
C       -1.28282183       0.20474053      -1.31700769
H        0.73036481      -1.09458427      -1.26315142
H        1.58216417      -2.21149820       0.21392119
H        2.35555255      -0.60940233      -0.19064489
H        0.03759308      -1.11631530       1.71031788
H        1.37164049       1.41047712       1.66558771
H       -1.92332025      -0.22031126       0.67238574
H       -0.89275078       1.00995367      -1.93220240
H       -2.12141932      -0.32800752      -1.75182458
H       -0.05312093      -0.74133318      -1.63827189
16
Frame=5 idx=010637 GeodesicLength=0.37305165042646293 rxn_smarts="[C:1]([C@@:2]1([H:11])[N:3]([H:12])[C:4](=[O:5])[C@:6]1([C:7]([H:14])([H:15])[H:16])[H:13])([H:8])([H:9])[H:10]>>[C:1](=[C:2]([N:3]([C+:4]([O-:5])[C:6](=[C:7]([H:14])[H:15])[H:13])[H:12])[H:11])([H:9])[H:10].[H:8][H:16]"
C        1.47128805      -1.14308111       0.13894517
C        0.58713887      -0.51201204       0.99662508
N        0.62519534       0.89462089       1.22153294
C       -0.50297120       1.46957236       0.72681617
O       -0.77508675       2.64243722       0.68220156
C       -1.21663990       0.31656628       0.05912527
C       -1.29460555       0.21021091      -1.31918429
H        0.75270505      -1.08653136      -1.27268564
H        1.58400831      -2.21835930       0.23229603
H        2.38436154      -0.62907257      -0.14455511
H        0.03139623      -1.11705701       1.70525954
H        1.38394649       1.41767046       1.62543463
H       -1.91471243      -0.24249903       0.67217131
H       -0.91705809       1.02908258      -1.92456894
H       -2.15022538      -0.30050524      -1.74723001
H       -0.04874057      -0.73104305      -1.65218369
16
Frame=6 idx=010637 GeodesicLength=0.4469937174846299 rxn_smarts="[C:1]([C@@:2]1([H:11])[N:3]([H:12])[C:4](=[O:5])[C@:6]1([C:7]([H:14])([H:15])[H:16])[H:13])([H:8])([H:9])[H:10]>>[C:1](=[C:2]([N:3]([C+:4]([O-:5])[C:6](=[C:7]([H:14])[H:15])[H:13])[H:12])[H:11])([H:9])[H:10].[H:8][H:16]"
C        1.48031429      -1.14951304       0.14699001
C        0.58489970      -0.51279865       0.99404955
N        0.62365517       0.89367121       1.21677463
C       -0.51117341       1.46444290       0.72950279
O       -0.77807768       2.63787080       0.67048850
C       -1.21601906       0.30696332       0.06038803
C       -1.30671418       0.21566082      -1.32153310
H        0.77541270      -1.07895096      -1.28204127
H        1.58659803      -2.22496822       0.25077301
H        2.41213978      -0.64871939      -0.09761948
H        0.02559253      -1.11799264       1.69974459
H        1.39498170       1.42415202       1.58565097
H       -1.90592715      -0.26422020       0.67142432
H       -0.94117612       1.04771738      -1.91687460
H       -2.17971615      -0.27205216      -1.74148786
H       -0.04479015      -0.72126320      -1.66623008
16
Frame=7 idx=010637 GeodesicLength=0.5206895487947453 rxn_smarts="[C:1]([C@@:2]1([H:11])[N:3]([H:12])[C:4](=[O:5])[C@:6]1([C:7]([H:14])([H:15])[H:16])[H:13])([H:8])([H:9])[H:10]>>[C:1](=[C:2]([N:3]([C+:4]([O-:5])[C:6](=[C:7]([H:14])[H:15])[H:13])[H:12])[H:11])([H:9])[H:10].[H:8][H:16]"
C        1.48979455      -1.15556807       0.15490905
C        0.58287405      -0.51357063       0.99102403
N        0.62232252       0.89258362       1.21181465
C       -0.51883649       1.45924026       0.73171063
O       -0.78090693       2.63297051       0.65899222
C       -1.21494562       0.29751977       0.06122010
C       -1.31893382       0.22117369      -1.32401433
H        0.79817196      -1.07238886      -1.29115030
H        1.59002026      -2.23076662       0.26951394
H        2.43826581      -0.66768907      -0.05034564
H        0.02016114      -1.11901050       1.69370035
H        1.40452061       1.42978577       1.54651987
H       -1.89665764      -0.28536221       0.67018946
H       -0.96474164       1.06564352      -1.90912484
H       -2.20960371      -0.24245343      -1.73456848
H       -0.04150504      -0.71210777      -1.68039069
16
Frame=8 idx=010637 GeodesicLength=0.5941631806070853 rxn_smarts="[C:1]([C@@:2]1([H:11])[N:3]([H:12])[C:4](=[O:5])[C@:6]1([C:7]([H:14])([H:15])[H:16])[H:13])([H:8])([H:9])[H:10]>>[C:1](=[C:2]([N:3]([C+:4]([O-:5])[C:6](=[C:7]([H:14])[H:15])[H:13])[H:12])[H:11])([H:9])[H:10].[H:8][H:16]"
C        1.49988226      -1.16139668       0.16277358
C        0.58113146      -0.51431955       0.98755179
N        0.62127454       0.89160758       1.20651892
C       -0.52612414       1.45419814       0.73344257
O       -0.78383069       2.62802563       0.64771981
C       -1.21363253       0.28826712       0.06162361
C       -1.33152831       0.22661478      -1.32662155
H        0.82141251      -1.06603914      -1.30014778
H        1.59383404      -2.23633939       0.28822289
H        2.46326801      -0.68678172      -0.00214675
H        0.01508633      -1.12009038       1.68721770
H        1.41297322       1.43468569       1.50777840
H       -1.88720736      -0.30602835       0.66848019
H       -0.98825805       1.08309782      -1.90131426
H       -2.23976898      -0.21227686      -1.72629865
H       -0.03851231      -0.70322471      -1.69480047
16
Frame=9 idx=010637 GeodesicLength=0.6675859283412895 rxn_smarts="[C:1]([C@@:2]1([H:11])[N:3]([H:12])[C:4](=[O:5])[C@:6]1([C:7]([H:14])([H:15])[H:16])[H:13])([H:8])([H:9])[H:10]>>[C:1](=[C:2]([N:3]([C+:4]([O-:5])[C:6](=[C:7]([H:14])[H:15])[H:13])[H:12])[H:11])([H:9])[H:10].[H:8][H:16]"
C        1.51056469      -1.16707454       0.17065312
C        0.57966289      -0.51507124       0.98366139
N        0.62050630       0.89069076       1.20082955
C       -0.53311863       1.44918694       0.73477874
O       -0.78694962       2.62296814       0.63674248
C       -1.21206912       0.27910836       0.06159496
C       -1.34448639       0.23204055      -1.32935315
H        0.84524176      -1.05993438      -1.30907028
H        1.59783468      -2.24170517       0.30691779
H        2.48710396      -0.70595258       0.04720902
H        0.01040326      -1.12121751       1.68037607
H        1.42051412       1.43905030       1.46896104
H       -1.87750956      -0.32638791       0.66625863
H       -1.01169753       1.10012541      -1.89340425
H       -2.27020931      -0.18135012      -1.71667431
H       -0.03579149      -0.69447702      -1.70948081
16
Frame=10 idx=010637 GeodesicLength=0.7405004012213129 rxn_smarts="[C:1]([C@@:2]1([H:11])[N:3]([H:12])[C:4](=[O:5])[C@:6]1([C:7]([H:14])([H:15])[H:16])[H:13])([H:8])([H:9])[H:10]>>[C:1](=[C:2]([N:3]([C+:4]([O-:5])[C:6](=[C:7]([H:14])[H:15])[H:13])[H:12])[H:11])([H:9])[H:10].[H:8][H:16]"
C        1.52169380      -1.17241354       0.17854846
C        0.57840930      -0.51574183       0.97932910
N        0.61995623       0.88980966       1.19475182
C       -0.53978401       1.44416003       0.73573196
O       -0.79016841       2.61765492       0.62607555
C       -1.21021034       0.27006468       0.06118742
C       -1.35775807       0.23738477      -1.33211572
H        0.86970011      -1.05371766      -1.31796556
H        1.60180844      -2.24663767       0.32544067
H        2.50945667      -0.72526872       0.09754651
H        0.00610591      -1.12224378       1.67316198
H        1.42714098       1.44270047       1.43014040
H       -1.86748803      -0.34634652       0.66360898
H       -1.03494401       1.11657017      -1.88536218
H       -2.30042321      -0.14990292      -1.70568761
H       -0.03349536      -0.68607205      -1.72439178
16
Frame=11 idx=010637 GeodesicLength=0.8135156668427479 rxn_smarts="[C:1]([C@@:2]1([H:11])[N:3]([H:12])[C:4](=[O:5])[C@:6]1([C:7]([H:14])([H:15])[H:16])[H:13])([H:8])([H:9])[H:10]>>[C:1](=[C:2]([N:3]([C+:4]([O-:5])[C:6](=[C:7]([H:14])[H:15])[H:13])[H:12])[H:11])([H:9])[H:10].[H:8][H:16]"
C        1.53352917      -1.17756076       0.18653280
C        0.57740639      -0.51648132       0.97454492
N        0.61965874       0.88895907       1.18839333
C       -0.54614089       1.43926071       0.73626919
O       -0.79341076       2.61243409       0.61557410
C       -1.20820277       0.26119743       0.06034265
C       -1.37152837       0.24280294      -1.33497725
H        0.89472977      -1.04790474      -1.32674384
H        1.60626576      -2.25137944       0.34397187
H        2.53055015      -0.74437373       0.14863545
H        0.00211747      -1.12347611       1.66548353
H        1.43295559       1.44577548       1.39179457
H       -1.85739996      -0.36590450       0.66046670
H       -1.05802197       1.13264465      -1.87730573
H       -2.33074759      -0.11789927      -1.69341059
H       -0.03176072      -0.67809451      -1.73957172
16
Frame=12 idx=010637 GeodesicLength=0.8862233188170037 rxn_smarts="[C:1]([C@@:2]1([H:11])[N:3]([H:12])[C:4](=[O:5])[C@:6]1([C:7]([H:14])([H:15])[H:16])[H:13])([H:8])([H:9])[H:10]>>[C:1](=[C:2]([N:3]([C+:4]([O-:5])[C:6](=[C:7]([H:14])[H:15])[H:13])[H:12])[H:11])([H:9])[H:10].[H:8][H:16]"
C        1.54581245      -1.18238307       0.19456149
C        0.57650300      -0.51722419       0.96923301
N        0.61948344       0.88795671       1.18180865
C       -0.55204389       1.43430008       0.73642658
O       -0.79637183       2.60697367       0.60524510
C       -1.20584334       0.25253471       0.05910918
C       -1.38556597       0.24832286      -1.33785586
H        0.92011195      -1.04292640      -1.33536124
H        1.61118912      -2.25545542       0.36255965
H        2.54981628      -0.76274573       0.19997776
H       -0.00165848      -1.12474056       1.65722225
H        1.43770446       1.44806295       1.35418193
H       -1.84698092      -0.38483845       0.65690522
H       -1.08071594       1.14815320      -1.86919882
H       -2.36078085      -0.08549922      -1.67974423
H       -0.03065948      -0.67049115      -1.75507064
16
Frame=13 idx=010637 GeodesicLength=0.9588181266010911 rxn_smarts="[C:1]([C@@:2]1([H:11])[N:3]([H:12])[C:4](=[O:5])[C@:6]1([C:7]([H:14])([H:15])[H:16])[H:13])([H:8])([H:9])[H:10]>>[C:1](=[C:2]([N:3]([C+:4]([O-:5])[C:6](=[C:7]([H:14])[H:15])[H:13])[H:12])[H:11])([H:9])[H:10].[H:8][H:16]"
C        1.55874003      -1.18698302       0.20276478
C        0.57580705      -0.51803237       0.96344892
N        0.61952943       0.88695187       1.17494116
C       -0.55763787       1.42944880       0.73618262
O       -0.79925741       2.60159402       0.59502479
C       -1.20334810       0.24405669       0.05746210
C       -1.40014662       0.25391071      -1.34076166
H        0.94620162      -1.03813018      -1.34388231
H        1.61641353      -2.25932689       0.38107148
H        2.56763669      -0.78089069       0.25197733
H       -0.00516380      -1.12617000       1.64848221
H        1.44180829       1.44975776       1.31710720
H       -1.83650865      -0.40334883       0.65289718
H       -1.10332208       1.16330963      -1.86108217
H       -2.39058935      -0.05285263      -1.66475043
H       -0.03016278      -0.66329486      -1.77088320
16
Frame=14 idx=010637 GeodesicLength=1.03131083172772 rxn_smarts="[C:1]([C@@:2]1([H:11])[N:3]([H:12])[C:4](=[O:5])[C@:6]1([C:7]([H:14])([H:15])[H:16])[H:13])([H:8])([H:9])[H:10]>>[C:1](=[C:2]([N:3]([C+:4]([O-:5])[C:6](=[C:7]([H:14])[H:15])[H:13])[H:12])[H:11])([H:9])[H:10].[H:8][H:16]"
C        1.57222765      -1.19138535       0.21120051
C        0.57529465      -0.51887483       0.95719503
N        0.61979243       0.88592090       1.16772132
C       -0.56294072       1.42460521       0.73559849
O       -0.80211406       2.59614960       0.58499326
C       -1.20066403       0.23571533       0.05542347
C       -1.41522821       0.25956949      -1.34364911
H        0.97317934      -1.03335581      -1.35231987
H        1.62166877      -2.26295919       0.39943720
H        2.58390905      -0.79889883       0.30481994
H       -0.00838983      -1.12764891       1.63932171
H        1.44531791       1.45089871       1.28015596
H       -1.82587305      -0.42148792       0.64845765
H       -1.12587886       1.17809943      -1.85290062
H       -2.42007555      -0.02000741      -1.64840011
H       -0.03022548      -0.65634038      -1.78705480
16
Frame=15 idx=010637 GeodesicLength=1.1037464806461788 rxn_smarts="[C:1]([C@@:2]1([H:11])[N:3]([H:12])[C:4](=[O:5])[C@:6]1([C:7]([H:14])([H:15])[H:16])[H:13])([H:8])([H:9])[H:10]>>[C:1](=[C:2]([N:3]([C+:4]([O-:5])[C:6](=[C:7]([H:14])[H:15])[H:13])[H:12])[H:11])([H:9])[H:10].[H:8][H:16]"
C        1.58626393      -1.19562924       0.21993526
C        0.57496103      -0.51976445       0.95045957
N        0.62028527       0.88485934       1.16010473
C       -0.56794560       1.41976940       0.73466346
O       -0.80491731       2.59065833       0.57511641
C       -1.19778864       0.22750906       0.05298540
C       -1.43084800       0.26530593      -1.34648976
H        1.00121028      -1.02848248      -1.36063119
H        1.62687926      -2.26640576       0.41761123
H        2.59857142      -0.81685047       0.35857471
H       -0.01135195      -1.12916455       1.62974213
H        1.44828687       1.45149824       1.24325004
H       -1.81506535      -0.43926409       0.64358753
H       -1.14852916       1.19257875      -1.84464289
H       -2.44920043       0.01288720      -1.63063965
H       -0.03081163      -0.64950521      -1.80362698
16
Frame=16 idx=010637 GeodesicLength=1.176105880543506 rxn_smarts="[C:1]([C@@:2]1([H:11])[N:3]([H:12])[C:4](=[O:5])[C@:6]1([C:7]([H:14])([H:15])[H:16])[H:13])([H:8])([H:9])[H:10]>>[C:1](=[C:2]([N:3]([C+:4]([O-:5])[C:6](=[C:7]([H:14])[H:15])[H:13])[H:12])[H:11])([H:9])[H:10].[H:8][H:16]"
C        1.60085881      -1.19966836       0.22899545
C        0.57478543      -0.52072198       0.94321438
N        0.62097153       0.88372450       1.15217601
C       -0.57265049       1.41494005       0.73340783
O       -0.80760275       2.58513866       0.56540944
C       -1.19474310       0.21946978       0.05015040
C       -1.44700404       0.27119452      -1.34925603
H        1.03025764      -1.02367252      -1.36880283
H        1.63222329      -2.26960139       0.43568397
H        2.61153374      -0.83447523       0.41293173
H       -0.01407742      -1.13077139       1.61968107
H        1.45072350       1.45153376       1.20660532
H       -1.80413360      -0.45663653       0.63827971
H       -1.17108598       1.20675627      -1.83632677
H       -2.47788609       0.04587689      -1.61156512
H       -0.03217048      -0.64308704      -1.82058454
