19
Frame=0 idx=006736 GeodesicLength=0.0 rxn_smarts="[C:1]([C@@:2]1([H:11])[C:3]([H:12])([H:13])[C:4]([H:14])([H:15])[O:5][C@:6]1([C:7]([H:17])([H:18])[H:19])[H:16])([H:8])([H:9])[H:10]>>[C:1]([C:2]([C:3]([C:4]([O+:5]=[C-:6][C:7]([H:17])([H:18])[H:19])([H:14])[H:15])([H:12])[H:13])([H:11])[H:16])([H:8])([H:9])[H:10]"
C       -0.96709248      -1.67616860      -0.81457456
C       -0.77743672      -0.17930388      -0.74530415
C       -1.00802446       0.44330857       0.61902570
C       -0.15203918       1.70859115       0.82275211
O        0.74900175       1.81593300      -0.28244299
C        1.25461653       0.65515240      -0.74722896
C        1.88578695      -0.25374880       0.27437583
H       -1.99751847      -1.95131294      -0.57176071
H       -0.74818924      -2.06226372      -1.81122225
H       -0.31690369      -2.18549520      -0.09931296
H       -1.35394339       0.34570201      -1.51331154
H       -0.78252490      -0.29594784       1.39028400
H       -2.06458919       0.69765614       0.73196128
H        0.38554025       1.67368175       1.77440269
H       -0.74546124       2.62202610       0.80249183
H        0.33160764       0.08080346      -1.38107007
H        1.40084685      -0.34290765       1.25407616
H        2.02005521      -1.24954324      -0.14799149
H        2.88626780       0.15383725       0.44484999
19
Frame=1 idx=006736 GeodesicLength=0.07321428599085233 rxn_smarts="[C:1]([C@@:2]1([H:11])[C:3]([H:12])([H:13])[C:4]([H:14])([H:15])[O:5][C@:6]1([C:7]([H:17])([H:18])[H:19])[H:16])([H:8])([H:9])[H:10]>>[C:1]([C:2]([C:3]([C:4]([O+:5]=[C-:6][C:7]([H:17])([H:18])[H:19])([H:14])[H:15])([H:12])[H:13])([H:11])[H:16])([H:8])([H:9])[H:10]"
C       -0.97974814      -1.67397233      -0.82004436
C       -0.77632906      -0.17808940      -0.74648064
C       -1.00645843       0.43808228       0.62154850
C       -0.15984113       1.70851304       0.81897006
O        0.75733857       1.81174694      -0.27375901
C        1.26083801       0.64923199      -0.73681260
C        1.90351059      -0.25219239       0.28342831
H       -2.01169858      -1.94159516      -0.57555656
H       -0.76788061      -2.05934572      -1.81853016
H       -0.33201427      -2.19199654      -0.10882193
H       -1.36080369       0.35157027      -1.50545579
H       -0.76803616      -0.29959634       1.39060261
H       -2.06443541       0.68159260       0.74465817
H        0.36945354       1.68818753       1.77548618
H       -0.76095319       2.61653615       0.77719574
H        0.33220046       0.08193865      -1.40108726
H        1.42460550      -0.33615660       1.26628437
H        2.03485091      -1.25001115      -0.13564506
H        2.90540108       0.15555620       0.44401942
19
Frame=2 idx=006736 GeodesicLength=0.14635817379345123 rxn_smarts="[C:1]([C@@:2]1([H:11])[C:3]([H:12])([H:13])[C:4]([H:14])([H:15])[O:5][C@:6]1([C:7]([H:17])([H:18])[H:19])[H:16])([H:8])([H:9])[H:10]>>[C:1]([C:2]([C:3]([C:4]([O+:5]=[C-:6][C:7]([H:17])([H:18])[H:19])([H:14])[H:15])([H:12])[H:13])([H:11])[H:16])([H:8])([H:9])[H:10]"
C       -0.99252708      -1.67168408      -0.82553532
C       -0.77533717      -0.17691407      -0.74769087
C       -1.00493812       0.43276306       0.62407850
C       -0.16763261       1.70823716       0.81512853
O        0.76562359       1.80732742      -0.26483095
C        1.26687792       0.64302297      -0.72624597
C        1.92146639      -0.25050588       0.29261753
H       -2.02598305      -1.93174357      -0.57948791
H       -0.78753398      -2.05624398      -1.82580949
H       -0.34752751      -2.19845300      -0.11827245
H       -1.36769140       0.35735542      -1.49752571
H       -0.75356279      -0.30325318       1.39077373
H       -2.06409451       0.66553667       0.75732983
H        0.35305726       1.70254308       1.77636484
H       -0.77600051       2.61052024       0.75164405
H        0.33247162       0.08347726      -1.42120797
H        1.44875454      -0.32911067       1.27864999
H        2.04991118      -1.25042292      -0.12292528
H        2.92466622       0.15754810       0.44294495
19
Frame=3 idx=006736 GeodesicLength=0.21943245962421687 rxn_smarts="[C:1]([C@@:2]1([H:11])[C:3]([H:12])([H:13])[C:4]([H:14])([H:15])[O:5][C@:6]1([C:7]([H:17])([H:18])[H:19])[H:16])([H:8])([H:9])[H:10]>>[C:1]([C:2]([C:3]([C:4]([O+:5]=[C-:6][C:7]([H:17])([H:18])[H:19])([H:14])[H:15])([H:12])[H:13])([H:11])[H:16])([H:8])([H:9])[H:10]"
C       -1.00543345      -1.66930700      -0.83104290
C       -0.77446410      -0.17578162      -0.74893748
C       -1.00346829       0.42735257       0.62660870
C       -0.17540794       1.70775773       0.81123165
O        0.77384243       1.80266882      -0.25566314
C        1.27274295       0.63652302      -0.71551969
C        1.93965726      -0.24868073       0.30193905
H       -2.04037498      -1.92175589      -0.58354701
H       -0.80715760      -2.05296984      -1.83305650
H       -0.36344901      -2.20486251      -0.12765967
H       -1.37460391       0.36305038      -1.48953022
H       -0.73912375      -0.30691599       1.39079307
H       -2.06357468       0.64950343       0.76995832
H        0.33636597       1.71672796       1.77702989
H       -0.79057874       2.60397647       0.72586585
H        0.33241740       0.08542391      -1.44143437
H        1.47329369      -0.32177198       1.29115886
H        2.06526746      -1.25076547      -0.10983133
H        2.94404931       0.15982674       0.44163692
19
Frame=4 idx=006736 GeodesicLength=0.29243708585511885 rxn_smarts="[C:1]([C@@:2]1([H:11])[C:3]([H:12])([H:13])[C:4]([H:14])([H:15])[O:5][C@:6]1([C:7]([H:17])([H:18])[H:19])[H:16])([H:8])([H:9])[H:10]>>[C:1]([C:2]([C:3]([C:4]([O+:5]=[C-:6][C:7]([H:17])([H:18])[H:19])([H:14])[H:15])([H:12])[H:13])([H:11])[H:16])([H:8])([H:9])[H:10]"
C       -1.01847090      -1.66684457      -0.83656299
C       -0.77371235      -0.17469591      -0.75022355
C       -1.00205421       0.42185284       0.62913137
C       -0.18316158       1.70706972       0.80728283
O        0.78198098       1.79776545      -0.24626138
C        1.27843972       0.62972899      -0.70462419
C        1.95808594      -0.24670866       0.31138788
H       -2.05487769      -1.91163015      -0.58772745
H       -0.82675694      -2.04953473      -1.84026640
H       -0.37978507      -2.21122324      -0.13697713
H       -1.38153867       0.36864790      -1.48147875
H       -0.72473972      -0.31058235       1.39065636
H       -2.06288554       0.63350807       0.78252461
H        0.31939550       1.73072221       1.77747185
H       -0.80466259       2.59690358       0.69989603
H        0.33203331       0.08778350      -1.46176916
H        1.49822265      -0.31414174       1.30379898
H        2.08095066      -1.25102698      -0.09636235
H        2.96353651       0.16240608       0.44010346
19
Frame=5 idx=006736 GeodesicLength=0.36537197999971277 rxn_smarts="[C:1]([C@@:2]1([H:11])[C:3]([H:12])([H:13])[C:4]([H:14])([H:15])[O:5][C@:6]1([C:7]([H:17])([H:18])[H:19])[H:16])([H:8])([H:9])[H:10]>>[C:1]([C:2]([C:3]([C:4]([O+:5]=[C-:6][C:7]([H:17])([H:18])[H:19])([H:14])[H:15])([H:12])[H:13])([H:11])[H:16])([H:8])([H:9])[H:10]"
C       -1.03164184      -1.66430046      -0.84209094
C       -0.77308345      -0.17366163      -0.75155156
C       -1.00070149       0.41626588       0.63163920
C       -0.19088823       1.70616860       0.80328432
O        0.79002508       1.79261149      -0.23663272
C        1.28397506       0.62263740      -0.69354930
C        1.97675368      -0.24458250       0.32095907
H       -2.06949368      -1.90136458      -0.59202306
H       -0.84633658      -2.04595062      -1.84743452
H       -0.39654199      -2.21753413      -0.14621653
H       -1.38849149       0.37414032      -1.47338165
H       -0.71043110      -0.31424967       1.39036063
H       -2.06203744       0.61756470       0.79501023
H        0.30216183       1.74450836       1.77768093
H       -0.81822824       2.58930736       0.67377400
H        0.33131692       0.09055939      -1.48221666
H        1.52354034      -0.30622443       1.31655387
H        2.09699064      -1.25119370      -0.08252137
H        2.98311198       0.16529824       0.43835607
19
Frame=6 idx=006736 GeodesicLength=0.4382386681764838 rxn_smarts="[C:1]([C@@:2]1([H:11])[C:3]([H:12])([H:13])[C:4]([H:14])([H:15])[O:5][C@:6]1([C:7]([H:17])([H:18])[H:19])[H:16])([H:8])([H:9])[H:10]>>[C:1]([C:2]([C:3]([C:4]([O+:5]=[C-:6][C:7]([H:17])([H:18])[H:19])([H:14])[H:15])([H:12])[H:13])([H:11])[H:16])([H:8])([H:9])[H:10]"
C       -1.04495014      -1.66167923      -0.84762209
C       -0.77257784      -0.17268321      -0.75292497
C       -0.99941572       0.41059374       0.63412378
C       -0.19858178       1.70504981       0.79923929
O        0.79796371       1.78720153      -0.22678488
C        1.28935602       0.61524439      -0.68228445
C        1.99566270      -0.24229433       0.33064798
H       -2.08422702      -1.89095686      -0.59642951
H       -0.86590078      -2.04223133      -1.85455607
H       -0.41372781      -2.22379333      -0.15537033
H       -1.39545835       0.37952036      -1.46524870
H       -0.69622086      -0.31791657       1.38990283
H       -2.06104286       0.60168724       0.80739516
H        0.28468328       1.75806688       1.77764849
H       -0.83125415       2.58119426       0.64754097
H        0.33026446       0.09375331      -1.50278142
H        1.54924574      -0.29802073       1.32941356
H        2.11341916      -1.25125264      -0.06831051
H        3.00276224       0.16851672       0.43640086
19
Frame=7 idx=006736 GeodesicLength=0.5110389963679858 rxn_smarts="[C:1]([C@@:2]1([H:11])[C:3]([H:12])([H:13])[C:4]([H:14])([H:15])[O:5][C@:6]1([C:7]([H:17])([H:18])[H:19])[H:16])([H:8])([H:9])[H:10]>>[C:1]([C:2]([C:3]([C:4]([O+:5]=[C-:6][C:7]([H:17])([H:18])[H:19])([H:14])[H:15])([H:12])[H:13])([H:11])[H:16])([H:8])([H:9])[H:10]"
C       -1.05839764      -1.65898482      -0.85315224
C       -0.77219529      -0.17176515      -0.75434636
C       -0.99820293       0.40483856       0.63657763
C       -0.20623720       1.70370970       0.79515082
O        0.80578595       1.78153046      -0.21672624
C        1.29458995       0.60754589      -0.67081831
C        2.01481312      -0.23983756       0.34044963
H       -2.09907959      -1.88040522      -0.60094223
H       -0.88545213      -2.03838902      -1.86162567
H       -0.43134912      -2.22999937      -0.16442875
H       -1.40243438       0.38478114      -1.45708999
H       -0.68213165      -0.32158165       1.38928130
H       -2.05991464       0.58588806       0.81966079
H        0.26697768       1.77138070       1.77736558
H       -0.84371965       2.57257364       0.62123770
H        0.32887191       0.09736750      -1.52346988
H        1.57533710      -0.28953346       1.34236370
H        2.13026548      -1.25119070      -0.05373467
H        3.02247304       0.17207127       0.43424719
19
Frame=8 idx=006736 GeodesicLength=0.5837747504093663 rxn_smarts="[C:1]([C@@:2]1([H:11])[C:3]([H:12])([H:13])[C:4]([H:14])([H:15])[O:5][C@:6]1([C:7]([H:17])([H:18])[H:19])[H:16])([H:8])([H:9])[H:10]>>[C:1]([C:2]([C:3]([C:4]([O+:5]=[C-:6][C:7]([H:17])([H:18])[H:19])([H:14])[H:15])([H:12])[H:13])([H:11])[H:16])([H:8])([H:9])[H:10]"
C       -1.07198683      -1.65622172      -0.85867673
C       -0.77193484      -0.17091260      -0.75581839
C       -0.99706915       0.39900210       0.63899301
C       -0.21384842       1.70214441       0.79102130
O        0.81348176       1.77559237      -0.20646556
C        1.29968408       0.59953633      -0.65913880
C        2.03420611      -0.23720558       0.35035975
H       -2.11405419      -1.86970802      -0.60555926
H       -0.90499185      -2.03443638      -1.86863798
H       -0.44941385      -2.23615143      -0.17338370
H       -1.40941460       0.38991548      -1.44891535
H       -0.66818748      -0.32524472       1.38849511
H       -2.05866668       0.57017930       0.83178821
H        0.24906582       1.78443260       1.77682412
H       -0.85560471       2.56345896       0.59490574
H        0.32713342       0.10140368      -1.54428901
H        1.60181318      -0.28076449       1.35539479
H        2.14755899      -1.25099396      -0.03879851
H        3.04222925       0.17597367       0.43190126
19
Frame=9 idx=006736 GeodesicLength=0.6564113086274044 rxn_smarts="[C:1]([C@@:2]1([H:11])[C:3]([H:12])([H:13])[C:4]([H:14])([H:15])[O:5][C@:6]1([C:7]([H:17])([H:18])[H:19])[H:16])([H:8])([H:9])[H:10]>>[C:1]([C:2]([C:3]([C:4]([O+:5]=[C-:6][C:7]([H:17])([H:18])[H:19])([H:14])[H:15])([H:12])[H:13])([H:11])[H:16])([H:8])([H:9])[H:10]"
C       -1.08572787      -1.65339572      -0.86419474
C       -0.77179362      -0.17013047      -0.75734846
C       -0.99602152       0.39308754       0.64135722
C       -0.22140603       1.70034531       0.78684762
O        0.82105440       1.76936879      -0.19602157
C        1.30464498       0.59119231      -0.64723612
C        2.05384761      -0.23439099       0.36037990
H       -2.12916741      -1.85885759      -0.61028536
H       -0.92452303      -2.03039067      -1.87558840
H       -0.46794153      -2.24224473      -0.18223141
H       -1.41639464       0.39492123      -1.44073833
H       -0.65441910      -0.32890753       1.38754090
H       -2.05731001       0.55457740       0.84375241
H        0.23096709       1.79719984       1.77601802
H       -0.86691784       2.55387001       0.56861468
H        0.32505118       0.10585362      -1.56522644
H        1.62868093      -0.27169882       1.36851333
H        2.16534535      -1.25065035      -0.02349595
H        3.06203107       0.18025083       0.42934270
19
Frame=10 idx=006736 GeodesicLength=0.7289861272534929 rxn_smarts="[C:1]([C@@:2]1([H:11])[C:3]([H:12])([H:13])[C:4]([H:14])([H:15])[O:5][C@:6]1([C:7]([H:17])([H:18])[H:19])[H:16])([H:8])([H:9])[H:10]>>[C:1]([C:2]([C:3]([C:4]([O+:5]=[C-:6][C:7]([H:17])([H:18])[H:19])([H:14])[H:15])([H:12])[H:13])([H:11])[H:16])([H:8])([H:9])[H:10]"
C       -1.09961351      -1.65050926      -0.86969859
C       -0.77176910      -0.16942416      -0.75893321
C       -0.99506497       0.38709567       0.64366901
C       -0.22890684       1.69831441       0.78263921
O        0.82848429       1.76286642      -0.18539210
C        1.30948107       0.58252388      -0.63509101
C        2.07373143      -0.23138971       0.37049936
H       -2.14440703      -1.84785406      -0.61511477
H       -0.94404144      -2.02626174      -1.88247203
H       -0.48693037      -2.24828177      -0.19095469
H       -1.42336698       0.39978725      -1.43256330
H       -0.64084395      -0.33256928       1.38642469
H       -2.05586276       0.53908866       0.85554110
H        0.21270471       1.80967086       1.77494193
H       -0.87762340       2.54381844       0.54237036
H        0.32261272       0.11072964      -1.58631083
H        1.65593110      -0.26235499       1.38169251
H        2.18363417      -1.25014743      -0.00784726
H        3.08185087       0.18489717       0.42659962
19
Frame=11 idx=006736 GeodesicLength=0.801504872505758 rxn_smarts="[C:1]([C@@:2]1([H:11])[C:3]([H:12])([H:13])[C:4]([H:14])([H:15])[O:5][C@:6]1([C:7]([H:17])([H:18])[H:19])[H:16])([H:8])([H:9])[H:10]>>[C:1]([C:2]([C:3]([C:4]([O+:5]=[C-:6][C:7]([H:17])([H:18])[H:19])([H:14])[H:15])([H:12])[H:13])([H:11])[H:16])([H:8])([H:9])[H:10]"
C       -1.11364427      -1.64756633      -0.87518482
C       -0.77185751      -0.16879853      -0.76057439
C       -0.99420491       0.38102801       0.64592213
C       -0.23634454       1.69604785       0.77839956
O        0.83576545       1.75607907      -0.17458700
C        1.31420069       0.57352210      -0.62268793
C        2.09385784      -0.22819632       0.38071371
H       -2.15977529      -1.83669313      -0.62004826
H       -0.96354568      -2.02206295      -1.88928429
H       -0.50638905      -2.25426083      -0.19954434
H       -1.43032658       0.40450721      -1.42439775
H       -0.62748513      -0.33623214       1.38514908
H       -2.05433920       0.52372229       0.86713755
H        0.19430354       1.82182949       1.77359108
H       -0.88771085       2.53332103       0.51620588
H        0.31980747       0.11603719      -1.60755462
H        1.68356249      -0.25273336       1.39492194
H        2.20245152      -1.24947243       0.00814312
H        3.10167401       0.18992179       0.42367932
19
Frame=12 idx=006736 GeodesicLength=0.8739687009897985 rxn_smarts="[C:1]([C@@:2]1([H:11])[C:3]([H:12])([H:13])[C:4]([H:14])([H:15])[O:5][C@:6]1([C:7]([H:17])([H:18])[H:19])[H:16])([H:8])([H:9])[H:10]>>[C:1]([C:2]([C:3]([C:4]([O+:5]=[C-:6][C:7]([H:17])([H:18])[H:19])([H:14])[H:15])([H:12])[H:13])([H:11])[H:16])([H:8])([H:9])[H:10]"
C       -1.12782081      -1.64457099      -0.88064957
C       -0.77205436      -0.16825917      -0.76227322
C       -0.99344761       0.37488623       0.64811057
C       -0.24371242       1.69354270       0.77413235
O        0.84289338       1.74899976      -0.16361472
C        1.31881096       0.56417708      -0.61000948
C        2.11422613      -0.22480593       0.39101859
H       -2.17527345      -1.82537032      -0.62508822
H       -0.98303268      -2.01780792      -1.89602101
H       -0.52632682      -2.26018081      -0.20798964
H       -1.43726622       0.40907517      -1.41624995
H       -0.61436779      -0.33989870       1.38371828
H       -2.05275577       0.50848820       0.87852402
H        0.17578764       1.83366019       1.77196242
H       -0.89717181       2.52239682       0.49015465
H        0.31662681       0.12178082      -1.62896936
H        1.71157523      -0.24283272       1.40819330
H        2.22182255      -1.24861440       0.02446783
H        3.12148705       0.19533396       0.42058316
19
Frame=13 idx=006736 GeodesicLength=0.9463752784082945 rxn_smarts="[C:1]([C@@:2]1([H:11])[C:3]([H:12])([H:13])[C:4]([H:14])([H:15])[O:5][C@:6]1([C:7]([H:17])([H:18])[H:19])[H:16])([H:8])([H:9])[H:10]>>[C:1]([C:2]([C:3]([C:4]([O+:5]=[C-:6][C:7]([H:17])([H:18])[H:19])([H:14])[H:15])([H:12])[H:13])([H:11])[H:16])([H:8])([H:9])[H:10]"
C       -1.14214264      -1.64152734      -0.88609020
C       -0.77235440      -0.16781172      -0.76403118
C       -0.99279920       0.36867178       0.65022822
C       -0.25100391       1.69079620       0.76983968
O        0.84986505       1.74162093      -0.15248388
C        1.32331888       0.55447761      -0.59703798
C        2.13483496      -0.22121463       0.40140968
H       -2.19090230      -1.81388071      -0.63023832
H       -1.00249652      -2.01350967      -1.90267584
H       -0.54675312      -2.26604027      -0.21627870
H       -1.44417803       0.41348525      -1.40812833
H       -0.60151678      -0.34357210       1.38213742
H       -2.05112887       0.49339547       0.88968355
H        0.15718039       1.84514821       1.77005321
H       -0.90599997       2.51106796       0.46425122
H        0.31306012       0.12796581      -1.65056676
H        1.73996884      -0.23265157       1.42149785
H        2.24177107      -1.24756277       0.04111845
H        3.14127643       0.20114157       0.41731192
19
Frame=14 idx=006736 GeodesicLength=1.0187307972147541 rxn_smarts="[C:1]([C@@:2]1([H:11])[C:3]([H:12])([H:13])[C:4]([H:14])([H:15])[O:5][C@:6]1([C:7]([H:17])([H:18])[H:19])[H:16])([H:8])([H:9])[H:10]>>[C:1]([C:2]([C:3]([C:4]([O+:5]=[C-:6][C:7]([H:17])([H:18])[H:19])([H:14])[H:15])([H:12])[H:13])([H:11])[H:16])([H:8])([H:9])[H:10]"
C       -1.15660921      -1.63843961      -0.89150365
C       -0.77275157      -0.16746136      -0.76584970
C       -0.99226542       0.36238582       0.65226952
C       -0.25821196       1.68780620       0.76552417
O        0.85667949       1.73393545      -0.14120233
C        1.32773194       0.54441155      -0.58375288
C        2.15568340      -0.21741935       0.41188435
H       -2.20666235      -1.80222012      -0.63550174
H       -1.02193325      -2.00918277      -1.90924669
H       -0.56767587      -2.27183684      -0.22440203
H       -1.45105555       0.41773155      -1.40003969
H       -0.58895701      -0.34725666       1.38041306
H       -2.04947526       0.47845229       0.90059992
H        0.13850775       1.85628122       1.76786140
H       -0.91418833       2.49935451       0.43852358
H        0.30909016       0.13460052      -1.67236304
H        1.76874397      -0.22218968       1.43482983
H        2.26232138      -1.24630563       0.05808858
H        3.16102770       0.20735292       0.41386735
19
Frame=15 idx=006736 GeodesicLength=1.091035991705357 rxn_smarts="[C:1]([C@@:2]1([H:11])[C:3]([H:12])([H:13])[C:4]([H:14])([H:15])[O:5][C@:6]1([C:7]([H:17])([H:18])[H:19])[H:16])([H:8])([H:9])[H:10]>>[C:1]([C:2]([C:3]([C:4]([O+:5]=[C-:6][C:7]([H:17])([H:18])[H:19])([H:14])[H:15])([H:12])[H:13])([H:11])[H:16])([H:8])([H:9])[H:10]"
C       -1.17121792      -1.63531159      -0.89688708
C       -0.77323936      -0.16721360      -0.76772946
C       -0.99185292       0.35602972       0.65422958
C       -0.26532995       1.68457050       0.76118765
O        0.86333702       1.72593463      -0.12977782
C        1.33205688       0.53396474      -0.57013249
C        2.17676934      -0.21341785       0.42244035
H       -2.22255194      -1.79038420      -0.64088422
H       -1.04133382      -2.00484070      -1.91572943
H       -0.58910242      -2.27756818      -0.23234835
H       -1.45789118       0.42180867      -1.39199073
H       -0.57671497      -0.35095663       1.37855372
H       -2.04781271       0.46366677       0.91125701
H        0.11979240       1.86704950       1.76538483
H       -0.92173292       2.48728073       0.41300188
H        0.30469898       0.14169476      -1.69437375
H        1.79789997      -0.21144478       1.44818446
H        2.28349624      -1.24483515       0.07536898
H        3.18072926       0.21397264       0.41024487
19
Frame=16 idx=006736 GeodesicLength=1.163289520551948 rxn_smarts="[C:1]([C@@:2]1([H:11])[C:3]([H:12])([H:13])[C:4]([H:14])([H:15])[O:5][C@:6]1([C:7]([H:17])([H:18])[H:19])[H:16])([H:8])([H:9])[H:10]>>[C:1]([C:2]([C:3]([C:4]([O+:5]=[C-:6][C:7]([H:17])([H:18])[H:19])([H:14])[H:15])([H:12])[H:13])([H:11])[H:16])([H:8])([H:9])[H:10]"
C       -1.18596545      -1.63214731      -0.90223753
C       -0.77381027      -0.16707386      -0.76967087
C       -0.99156843       0.34960502       0.65610372
C       -0.27235122       1.68108750       0.75683229
O        0.86983967       1.71760919      -0.11821605
C        1.33629985       0.52312210      -0.55615317
C        2.19809048      -0.20920956       0.43307524
H       -2.23856882      -1.77836887      -0.64639219
H       -1.06068803      -2.00049739      -1.92212064
H       -0.61103984      -2.28323084      -0.24010712
H       -1.46467653       0.42571154      -1.38398817
H       -0.56481702      -0.35467733       1.37656956
H       -2.04615947       0.44904718       0.92163912
H        0.10105647       1.87744361       1.76262299
H       -0.92862959       2.47486944       0.38771089
H        0.29986627       0.14926083      -1.71661451
H        1.82743839      -0.20041301       1.46155991
H        2.30531555      -1.24314356       0.09295019
H        3.20036798       0.22100531       0.40643633
