12
Frame=0 idx=005783 GeodesicLength=0.0 rxn_smarts="[C:1]1([H:7])([H:8])[C:2]([H:9])=[C:3]([H:10])[C@@:4]2([H:11])[O:5][C@@:6]12[H:12]>>[C:1]([C:2](=[C:3]=[C:4]([H:10])[H:11])[H:9])([C:6](=[O:5])[H:12])([H:7])[H:8]"
C       -1.15516984       0.47526037       0.05444616
C        0.23736577       1.00342781      -0.10829315
C        1.32443531       0.27956470       0.11772747
C        2.08917726      -0.74110371       0.57215179
O       -0.52064687      -1.82844674      -0.31635572
C       -1.36865730      -1.00651026      -0.10567934
H       -1.57394867       0.72926653       1.03942365
H       -1.83361666       0.95700525      -0.65940566
H        0.34840944       2.03570777      -0.40896848
H        2.38780830       0.74884738       0.07802152
H        2.49571654      -1.33764530      -0.25640509
H       -2.43087327      -1.31537377      -0.00666312
12
Frame=1 idx=005783 GeodesicLength=0.10772672402673646 rxn_smarts="[C:1]1([H:7])([H:8])[C:2]([H:9])=[C:3]([H:10])[C@@:4]2([H:11])[O:5][C@@:6]12[H:12]>>[C:1]([C:2](=[C:3]=[C:4]([H:10])[H:11])[H:9])([C:6](=[O:5])[H:12])([H:7])[H:8]"
C       -1.15278816       0.47821298       0.06683300
C        0.23059439       1.02268263      -0.11927301
C        1.32216978       0.29312777       0.05054793
C        2.04015061      -0.75030032       0.53322196
O       -0.50125572      -1.86349329      -0.14351833
C       -1.34367878      -1.00318428      -0.11405133
H       -1.55828322       0.71877883       1.06007367
H       -1.84604275       0.96313884      -0.63088335
H        0.33197281       2.06285289      -0.39667652
H        2.40891888       0.73798125       0.10581851
H        2.48001693      -1.35218936      -0.27301879
H       -2.41177476      -1.30760794      -0.13907374
12
Frame=2 idx=005783 GeodesicLength=0.2154787511715377 rxn_smarts="[C:1]1([H:7])([H:8])[C:2]([H:9])=[C:3]([H:10])[C@@:4]2([H:11])[O:5][C@@:6]12[H:12]>>[C:1]([C:2](=[C:3]=[C:4]([H:10])[H:11])[H:9])([C:6](=[O:5])[H:12])([H:7])[H:8]"
C       -1.15127124       0.48234104       0.07777306
C        0.22399402       1.04397792      -0.11657902
C        1.31698203       0.30809123      -0.00371562
C        1.99096611      -0.76198624       0.48811414
O       -0.49287444      -1.87941985       0.04028691
C       -1.30819317      -1.00040990      -0.11857882
H       -1.55494459       0.71299768       1.07337234
H       -1.85259392       0.96338719      -0.61451181
H        0.31739671       2.08906328      -0.37816993
H        2.42486973       0.71829725       0.12621828
H        2.44985679      -1.36764169      -0.30319342
H       -2.36418804      -1.30869791      -0.27101611
12
Frame=3 idx=005783 GeodesicLength=0.3254142464448555 rxn_smarts="[C:1]1([H:7])([H:8])[C:2]([H:9])=[C:3]([H:10])[C@@:4]2([H:11])[O:5][C@@:6]12[H:12]>>[C:1]([C:2](=[C:3]=[C:4]([H:10])[H:11])[H:9])([C:6](=[O:5])[H:12])([H:7])[H:8]"
C       -1.15127555       0.48775700       0.08544229
C        0.21797032       1.06754031      -0.10035813
C        1.30960948       0.32505954      -0.04353054
C        1.94118778      -0.77845528       0.43490005
O       -0.49375580      -1.87548523       0.22511880
C       -1.26421056      -0.99894559      -0.11246647
H       -1.56724414       0.71660188       1.07565668
H       -1.85244485       0.95505149      -0.61626165
H        0.30475771       2.11618192      -0.35022073
H        2.43928310       0.68966805       0.14575937
H        2.40525483      -1.38350039      -0.35244800
H       -2.28913232      -1.32147370      -0.39159167
12
Frame=4 idx=005783 GeodesicLength=0.4372937387408255 rxn_smarts="[C:1]1([H:7])([H:8])[C:2]([H:9])=[C:3]([H:10])[C@@:4]2([H:11])[O:5][C@@:6]12[H:12]>>[C:1]([C:2](=[C:3]=[C:4]([H:10])[H:11])[H:9])([C:6](=[O:5])[H:12])([H:7])[H:8]"
C       -1.15224567       0.49415409       0.08996349
C        0.21244635       1.09126315      -0.07897255
C        1.30117716       0.34384959      -0.07186145
C        1.88844582      -0.79759354       0.37799266
O       -0.49706238      -1.85598500       0.38743096
C       -1.21792524      -0.99745688      -0.09551152
H       -1.58795671       0.72791437       1.06983050
H       -1.84753357       0.94079754      -0.63054481
H        0.29365693       2.14264756      -0.31958250
H        2.45166196       0.65298189       0.17152716
H        2.35100914      -1.39813976      -0.41227878
H       -2.19567381      -1.34443302      -0.48799315
12
Frame=5 idx=005783 GeodesicLength=0.5510716473597188 rxn_smarts="[C:1]1([H:7])([H:8])[C:2]([H:9])=[C:3]([H:10])[C@@:4]2([H:11])[O:5][C@@:6]12[H:12]>>[C:1]([C:2](=[C:3]=[C:4]([H:10])[H:11])[H:9])([C:6](=[O:5])[H:12])([H:7])[H:8]"
C       -1.15376642       0.50089659       0.09272851
C        0.20694202       1.11397159      -0.05838917
C        1.29223795       0.36344242      -0.09342744
C        1.83284904      -0.81555489       0.32233824
O       -0.49971443      -1.82778743       0.52537865
C       -1.17284628      -0.99500292      -0.07278203
H       -1.61024727       0.74196465       1.06067880
H       -1.84108161       0.92414412      -0.64893821
H        0.28322758       2.16821519      -0.28849741
H        2.46158881       0.60951014       0.19856423
H        2.29167732      -1.41156375      -0.47217321
H       -2.09086671      -1.37223571      -0.56548095
12
Frame=6 idx=005783 GeodesicLength=0.6662570407477196 rxn_smarts="[C:1]1([H:7])([H:8])[C:2]([H:9])=[C:3]([H:10])[C@@:4]2([H:11])[O:5][C@@:6]12[H:12]>>[C:1]([C:2](=[C:3]=[C:4]([H:10])[H:11])[H:9])([C:6](=[O:5])[H:12])([H:7])[H:8]"
C       -1.15550466       0.50739602       0.09462427
C        0.20123102       1.13513333      -0.04216994
C        1.28332941       0.38307333      -0.11031364
C        1.77560626      -0.83050325       0.27118623
O       -0.50040855      -1.79625493       0.63899689
C       -1.13042594      -0.99132122      -0.04978392
H       -1.62964916       0.75482063       1.05181419
H       -1.83566944       0.90766806      -0.66584775
H        0.27296463       2.19225932      -0.26084611
H        2.46870176       0.56124748       0.22516754
H        2.23161806      -1.42351917      -0.52586777
H       -1.98179338      -1.39999960      -0.62695998
12
Frame=7 idx=005783 GeodesicLength=0.7826052246916501 rxn_smarts="[C:1]1([H:7])([H:8])[C:2]([H:9])=[C:3]([H:10])[C@@:4]2([H:11])[O:5][C@@:6]12[H:12]>>[C:1]([C:2](=[C:3]=[C:4]([H:10])[H:11])[H:9])([C:6](=[O:5])[H:12])([H:7])[H:8]"
C       -1.15735979       0.51336023       0.09597219
C        0.19526214       1.15468349      -0.03084540
C        1.27479042       0.40225507      -0.12356417
C        1.71819651      -0.84205090       0.22510694
O       -0.49889082      -1.76416108       0.73241672
C       -1.09092930      -0.98664506      -0.02873191
H       -1.64526721       0.76545166       1.04439909
H       -1.83208209       0.89212776      -0.67991292
H        0.26275386       2.21470575      -0.23707130
H        2.47302957       0.50975604       0.25029072
H        2.17292478      -1.43408830      -0.57213071
H       -1.87242807      -1.42539465      -0.67592925
12
Frame=8 idx=005783 GeodesicLength=0.9001309480015826 rxn_smarts="[C:1]1([H:7])([H:8])[C:2]([H:9])=[C:3]([H:10])[C@@:4]2([H:11])[O:5][C@@:6]12[H:12]>>[C:1]([C:2](=[C:3]=[C:4]([H:10])[H:11])[H:9])([C:6](=[O:5])[H:12])([H:7])[H:8]"
C       -1.15932783       0.51874693       0.09749217
C        0.18900830       1.17273225      -0.02405855
C        1.26665122       0.42056611      -0.13406723
C        1.66161244      -0.85050120       0.18386687
O       -0.49539674      -1.73303235       0.80965718
C       -1.05431336      -0.98116271      -0.01008245
H       -1.65691093       0.77377994       1.03950907
H       -1.83081349       0.87782431      -0.69017111
H        0.25236909       2.23529740      -0.21855385
H        2.47434227       0.45631839       0.27413392
H        2.11655190      -1.44369523      -0.61116837
H       -1.76377288      -1.44687384      -0.71655765
12
Frame=9 idx=005783 GeodesicLength=1.0182887345490068 rxn_smarts="[C:1]1([H:7])([H:8])[C:2]([H:9])=[C:3]([H:10])[C@@:4]2([H:11])[O:5][C@@:6]12[H:12]>>[C:1]([C:2](=[C:3]=[C:4]([H:10])[H:11])[H:9])([C:6](=[O:5])[H:12])([H:7])[H:8]"
C       -1.16131197       0.52336380       0.09841128
C        0.18257484       1.18934384      -0.02129012
C        1.25910124       0.43794027      -0.14267911
C        1.60706827      -0.85578405       0.14763909
O       -0.48994670      -1.70355097       0.87328118
C       -1.02007140      -0.97535196       0.00493876
H       -1.66536523       0.77973384       1.03605225
H       -1.83131893       0.86466723      -0.69808056
H        0.24216725       2.25466898      -0.20175253
H        2.47353672       0.40233403       0.29471930
H        2.06338563      -1.45279054      -0.64256198
H       -1.65981971      -1.46457446      -0.74867757
12
Frame=10 idx=005783 GeodesicLength=1.137118823025564 rxn_smarts="[C:1]1([H:7])([H:8])[C:2]([H:9])=[C:3]([H:10])[C@@:4]2([H:11])[O:5][C@@:6]12[H:12]>>[C:1]([C:2](=[C:3]=[C:4]([H:10])[H:11])[H:9])([C:6](=[O:5])[H:12])([H:7])[H:8]"
C       -1.16329478       0.52729087       0.09941653
C        0.17597238       1.20468368      -0.02201042
C        1.25204070       0.45427987      -0.14981780
C        1.55492305      -0.85849986       0.11591139
O       -0.48298805      -1.67621321       0.92587178
C       -0.98801372      -0.96931504       0.01676204
H       -1.67060582       0.78359337       1.03476751
H       -1.83382132       0.85270090      -0.70300315
H        0.23192674       2.27256099      -0.18833836
H        2.47059997       0.34858072       0.31305027
H        2.01353709      -1.46168988      -0.66710951
H       -1.56027623      -1.47797240      -0.77550028
12
Frame=11 idx=005783 GeodesicLength=1.2563895432124719 rxn_smarts="[C:1]1([H:7])([H:8])[C:2]([H:9])=[C:3]([H:10])[C@@:4]2([H:11])[O:5][C@@:6]12[H:12]>>[C:1]([C:2](=[C:3]=[C:4]([H:10])[H:11])[H:9])([C:6](=[O:5])[H:12])([H:7])[H:8]"
C       -1.16519399       0.53052109       0.10024078
C        0.16926912       1.21886464      -0.02580988
C        1.24551639       0.46969235      -0.15586558
C        1.50558514      -0.85897046       0.08820632
O       -0.47469963      -1.65098688       0.96945179
C       -0.95772343      -0.96325721       0.02542039
H       -1.67314772       0.78567600       1.03502638
H       -1.83790506       0.84168915      -0.70575079
H        0.22177700       2.28925034      -0.17682641
H        2.46603643       0.29570016       0.32907477
H        1.96705022      -1.47052815      -0.68552261
H       -1.46656447      -1.48765103      -0.79764517
12
Frame=12 idx=005783 GeodesicLength=1.375960620387484 rxn_smarts="[C:1]1([H:7])([H:8])[C:2]([H:9])=[C:3]([H:10])[C@@:4]2([H:11])[O:5][C@@:6]12[H:12]>>[C:1]([C:2](=[C:3]=[C:4]([H:10])[H:11])[H:9])([C:6](=[O:5])[H:12])([H:7])[H:8]"
C       -1.16694794       0.53309764       0.10085446
C        0.16250200       1.23200079      -0.03238860
C        1.23951317       0.48428464      -0.16111084
C        1.45920324      -0.85755411       0.06402327
O       -0.46528451      -1.62774173       1.00565359
C       -0.92887606      -0.95726205       0.03118420
H       -1.67328447       0.78629432       1.03653646
H       -1.84332924       0.83144921      -0.70668868
H        0.21174138       2.30484577      -0.16660850
H        2.46015363       0.24407693       0.34315458
H        1.92383251      -1.47938295      -0.69852083
H       -1.37922371      -1.49410845      -0.81608910
12
Frame=13 idx=005783 GeodesicLength=1.4957026543586012 rxn_smarts="[C:1]1([H:7])([H:8])[C:2]([H:9])=[C:3]([H:10])[C@@:4]2([H:11])[O:5][C@@:6]12[H:12]>>[C:1]([C:2](=[C:3]=[C:4]([H:10])[H:11])[H:9])([C:6](=[O:5])[H:12])([H:7])[H:8]"
C       -1.16851190       0.53509226       0.10131829
C        0.15569067       1.24419882      -0.04150387
C        1.23399139       0.49816658      -0.16573033
C        1.41577269      -0.85458280       0.04287370
O       -0.45492507      -1.60634730       1.03574100
C       -0.90125457      -0.95135322       0.03438215
H       -1.67119088       0.78574623       1.03915813
H       -1.84994025       0.82185895      -0.70597553
H        0.20180670       2.31938832      -0.15751853
H        2.45314250       0.19389405       0.35581637
H        1.88375266      -1.48825098      -0.70678653
H       -1.29833395      -1.49781091      -0.83177484
12
Frame=14 idx=005783 GeodesicLength=1.6155294717252706 rxn_smarts="[C:1]1([H:7])([H:8])[C:2]([H:9])=[C:3]([H:10])[C@@:4]2([H:11])[O:5][C@@:6]12[H:12]>>[C:1]([C:2](=[C:3]=[C:4]([H:10])[H:11])[H:9])([C:6](=[O:5])[H:12])([H:7])[H:8]"
C       -1.16985260       0.53658707       0.10169870
C        0.14884665       1.25555296      -0.05293110
C        1.22890339       0.51144839      -0.16981012
C        1.37518382      -0.85035449       0.02423200
O       -0.44374192      -1.58662270       1.06077654
C       -0.87470561      -0.94552400       0.03538630
H       -1.66703038       0.78433172       1.04275815
H       -1.85758515       0.81279614      -0.70374208
H        0.19194626       2.33289824      -0.14950643
H        2.44508353       0.14514936       0.36766770
H        1.84659757      -1.49705479      -0.71107177
H       -1.22364557      -1.49920792      -0.84545790
12
Frame=15 idx=005783 GeodesicLength=1.7353870591816638 rxn_smarts="[C:1]1([H:7])([H:8])[C:2]([H:9])=[C:3]([H:10])[C@@:4]2([H:11])[O:5][C@@:6]12[H:12]>>[C:1]([C:2](=[C:3]=[C:4]([H:10])[H:11])[H:9])([C:6](=[O:5])[H:12])([H:7])[H:8]"
C       -1.17094720       0.53766169       0.10204966
C        0.14198058       1.26614410      -0.06639899
C        1.22418909       0.52423032      -0.17340137
C        1.33727292      -0.84511533       0.00762115
O       -0.43181456      -1.56836091       1.08165053
C       -0.84911790      -0.93975591       0.03455546
H       -1.66099715       0.78231381       1.04718297
H       -1.86608225       0.80415340      -0.70013303
H        0.18212974       2.34538712      -0.14252219
H        2.43601232       0.09774917       0.37919071
H        1.81209567      -1.50569896      -0.71208261
H       -1.15472126      -1.49870849      -0.85771229
12
Frame=16 idx=005783 GeodesicLength=1.855247106720188 rxn_smarts="[C:1]1([H:7])([H:8])[C:2]([H:9])=[C:3]([H:10])[C@@:4]2([H:11])[O:5][C@@:6]12[H:12]>>[C:1]([C:2](=[C:3]=[C:4]([H:10])[H:11])[H:9])([C:6](=[O:5])[H:12])([H:7])[H:8]"
C       -1.17177780       0.53838908       0.10243982
C        0.13510826       1.27604067      -0.08156953
C        1.21978498       0.53659992      -0.17651762
C        1.30185193      -0.83906782      -0.00737036
O       -0.41919527      -1.55137922       1.09907657
C       -0.82441027      -0.93402629       0.03220425
H       -1.65328834       0.77989222       1.05230953
H       -1.87524095       0.79586069      -0.69525999
H        0.17231233       2.35685642      -0.13665919
H        2.42592134       0.05154423       0.39079358
H        1.77996439      -1.51407347      -0.71046116
H       -1.09103061      -1.49663644      -0.86898590
