11
Frame=0 idx=008699 GeodesicLength=0.0 rxn_smarts="[O:1]=[C:2]([c:3]1[c:4]([H:9])[n:5][c:6]([H:10])[n:7]1[H:11])[H:8]>>[O:1]=[C:2](/[C:3]([C@:4]1([H:9])[N:5]=[C:6]1[H:10])=[N:7]\[H:11])[H:8]"
O       -2.37696339      -1.38034160      -0.04947002
C       -1.86245858      -0.29955132       0.06388515
C       -0.39755307      -0.11900309       0.05559916
C        0.33979233       1.04693664      -0.13052319
N        1.62899870       0.88239357      -0.96650781
C        1.68524087       0.16413509       0.06869161
N        0.52556566      -1.07955512       0.15850309
H       -2.45703096       0.62972031       0.13809802
H        0.11429298       2.06442478       0.14654161
H        2.38993617       0.03248659       0.88510476
H        0.41017926      -1.94164589      -0.36992239
11
Frame=1 idx=008699 GeodesicLength=0.044094806295339156 rxn_smarts="[O:1]=[C:2]([c:3]1[c:4]([H:9])[n:5][c:6]([H:10])[n:7]1[H:11])[H:8]>>[O:1]=[C:2](/[C:3]([C@:4]1([H:9])[N:5]=[C:6]1[H:10])=[N:7]\[H:11])[H:8]"
O       -2.37404587      -1.38225686      -0.04830883
C       -1.86136499      -0.30031523       0.06357407
C       -0.39685306      -0.11892580       0.04595181
C        0.34089579       1.05165715      -0.12467663
N        1.62461100       0.89683651      -0.95754709
C        1.69426359       0.16670809       0.06960368
N        0.52450556      -1.07913802       0.15335622
H       -2.45633303       0.62995313       0.12004290
H        0.10065945       2.06479373       0.15623113
H        2.41558178       0.02474450       0.86906374
H        0.38807976      -1.95405720      -0.34729099
11
Frame=2 idx=008699 GeodesicLength=0.08825013389190625 rxn_smarts="[O:1]=[C:2]([c:3]1[c:4]([H:9])[n:5][c:6]([H:10])[n:7]1[H:11])[H:8]>>[O:1]=[C:2](/[C:3]([C@:4]1([H:9])[N:5]=[C:6]1[H:10])=[N:7]\[H:11])[H:8]"
O       -2.37131226      -1.38437798      -0.04394325
C       -1.86020566      -0.30097863       0.06265345
C       -0.39611823      -0.11896639       0.03400893
C        0.34201949       1.05643604      -0.11899041
N        1.62127407       0.91215138      -0.94725776
C        1.70328842       0.16944760       0.07104375
N        0.52339920      -1.07883891       0.14619428
H       -2.45546727       0.63004528       0.10139483
H        0.08679572       2.06482453       0.16603525
H        2.44052355       0.01650649       0.85321616
H        0.36580296      -1.96624940      -0.32435524
11
Frame=3 idx=008699 GeodesicLength=0.13194269263530004 rxn_smarts="[O:1]=[C:2]([c:3]1[c:4]([H:9])[n:5][c:6]([H:10])[n:7]1[H:11])[H:8]>>[O:1]=[C:2](/[C:3]([C@:4]1([H:9])[N:5]=[C:6]1[H:10])=[N:7]\[H:11])[H:8]"
O       -2.36862426      -1.38617986      -0.03939804
C       -1.85884319      -0.30145091       0.06067653
C       -0.39532374      -0.11909708       0.01907762
C        0.34305439       1.06106410      -0.11438896
N        1.61928451       0.92753972      -0.93585352
C        1.71212896       0.17230010       0.07331870
N        0.52221408      -1.07855830       0.13722512
H       -2.45426084       0.62988739       0.08681537
H        0.07247570       2.06443178       0.17442270
H        2.46411800       0.00831910       0.83840191
H        0.34377639      -1.97825604      -0.30029741
11
Frame=4 idx=008699 GeodesicLength=0.17566620628510668 rxn_smarts="[O:1]=[C:2]([c:3]1[c:4]([H:9])[n:5][c:6]([H:10])[n:7]1[H:11])[H:8]>>[O:1]=[C:2](/[C:3]([C@:4]1([H:9])[N:5]=[C:6]1[H:10])=[N:7]\[H:11])[H:8]"
O       -2.36615594      -1.38786648      -0.03462501
C       -1.85733381      -0.30188651       0.05789460
C       -0.39447117      -0.11936893       0.00105869
C        0.34403913       1.06559636      -0.11097518
N        1.61877909       0.94318786      -0.92331078
C        1.72092150       0.17529071       0.07650877
N        0.52100531      -1.07844257       0.12617713
H       -2.45285950       0.62957676       0.07634194
H        0.05778786       2.06373377       0.18119554
H        2.48649386       0.00020168       0.82492042
H        0.32179367      -1.99002265      -0.27518612
11
Frame=5 idx=008699 GeodesicLength=0.21927060033487322 rxn_smarts="[O:1]=[C:2]([c:3]1[c:4]([H:9])[n:5][c:6]([H:10])[n:7]1[H:11])[H:8]>>[O:1]=[C:2](/[C:3]([C@:4]1([H:9])[N:5]=[C:6]1[H:10])=[N:7]\[H:11])[H:8]"
O       -2.36368061      -1.38955613      -0.02686648
C       -1.85554030      -0.30222079       0.05422365
C       -0.39350961      -0.11977427      -0.02032345
C        0.34490488       1.07002035      -0.10833005
N        1.61963778       0.95948820      -0.90924743
C        1.72957538       0.17835093       0.08061050
N        0.51981026      -1.07849209       0.11224395
H       -2.45125559       0.62921982       0.06732989
H        0.04264997       2.06254452       0.18728287
H        2.50762964      -0.00827295       0.81262973
H        0.29977821      -2.00130758      -0.24955319
11
Frame=6 idx=008699 GeodesicLength=0.26297858905633015 rxn_smarts="[O:1]=[C:2]([c:3]1[c:4]([H:9])[n:5][c:6]([H:10])[n:7]1[H:11])[H:8]>>[O:1]=[C:2](/[C:3]([C@:4]1([H:9])[N:5]=[C:6]1[H:10])=[N:7]\[H:11])[H:8]"
O       -2.36121396      -1.39115502      -0.01806213
C       -1.85349231      -0.30252611       0.04944182
C       -0.39248430      -0.12024778      -0.04510199
C        0.34557020       1.07434702      -0.10652416
N        1.62161826       0.97634899      -0.89384685
C        1.73804279       0.18147044       0.08553985
N        0.51859433      -1.07872148       0.09556038
H       -2.44946237       0.62883464       0.06127253
H        0.02708784       2.06093372       0.19251873
H        2.52787242      -0.01714997       0.80116313
H        0.27786710      -2.01213444      -0.22196131
11
Frame=7 idx=008699 GeodesicLength=0.3059566889426021 rxn_smarts="[O:1]=[C:2]([c:3]1[c:4]([H:9])[n:5][c:6]([H:10])[n:7]1[H:11])[H:8]>>[O:1]=[C:2](/[C:3]([C@:4]1([H:9])[N:5]=[C:6]1[H:10])=[N:7]\[H:11])[H:8]"
O       -2.35815621      -1.39249167      -0.00670389
C       -1.85087134      -0.30273728       0.04367479
C       -0.39127924      -0.12076630      -0.07193440
C        0.34595822       1.07827109      -0.10511674
N        1.62420996       0.99345610      -0.87709971
C        1.74605527       0.18444872       0.09114705
N        0.51736701      -1.07903933       0.07584726
H       -2.44715377       0.62831692       0.05586959
H        0.01117783       2.05844250       0.19742527
H        2.54679396      -0.02639974       0.79027170
H        0.25589830      -2.02150101      -0.19338092
11
Frame=8 idx=008699 GeodesicLength=0.34945752568344307 rxn_smarts="[O:1]=[C:2]([c:3]1[c:4]([H:9])[n:5][c:6]([H:10])[n:7]1[H:11])[H:8]>>[O:1]=[C:2](/[C:3]([C@:4]1([H:9])[N:5]=[C:6]1[H:10])=[N:7]\[H:11])[H:8]"
O       -2.35501238      -1.39393779       0.00735819
C       -1.84825856      -0.30294864       0.03646841
C       -0.39005895      -0.12124129      -0.10034208
C        0.34608586       1.08214740      -0.10357162
N        1.62723702       1.01129104      -0.85903040
C        1.75406529       0.18723014       0.09715275
N        0.51628797      -1.07979268       0.05284879
H       -2.44510068       0.62784797       0.04979559
H       -0.00497339       2.05564157       0.20290966
H        2.56567538      -0.03644362       0.77908539
H        0.23405243      -2.02979409      -0.16267469
11
Frame=9 idx=008699 GeodesicLength=0.3925477237259636 rxn_smarts="[O:1]=[C:2]([c:3]1[c:4]([H:9])[n:5][c:6]([H:10])[n:7]1[H:11])[H:8]>>[O:1]=[C:2](/[C:3]([C@:4]1([H:9])[N:5]=[C:6]1[H:10])=[N:7]\[H:11])[H:8]"
O       -2.35104090      -1.39492316       0.02124870
C       -1.84523736      -0.30314945       0.02666866
C       -0.38877701      -0.12154842      -0.13002507
C        0.34576567       1.08562613      -0.10163934
N        1.62968604       1.02951770      -0.83991469
C        1.76144661       0.18965450       0.10313471
N        0.51511477      -1.08065578       0.02629854
H       -2.44247484       0.62724315       0.04496321
H       -0.02132764       2.05187635       0.20936466
H        2.58419415      -0.04756746       0.76643217
H        0.21265050      -2.03607356      -0.12653154
11
Frame=10 idx=008699 GeodesicLength=0.43533934919969774 rxn_smarts="[O:1]=[C:2]([c:3]1[c:4]([H:9])[n:5][c:6]([H:10])[n:7]1[H:11])[H:8]>>[O:1]=[C:2](/[C:3]([C@:4]1([H:9])[N:5]=[C:6]1[H:10])=[N:7]\[H:11])[H:8]"
O       -2.34673231      -1.39575616       0.03551030
C       -1.84234720      -0.30343127       0.01698781
C       -0.38762194      -0.12166105      -0.15819158
C        0.34517232       1.08871902      -0.09862311
N        1.63137769       1.04734933      -0.82026488
C        1.76868026       0.19133731       0.10878599
N        0.51380220      -1.08199233      -0.00211923
H       -2.44025658       0.62651682       0.03698999
H       -0.03748919       2.04753171       0.21724143
H        2.60309764      -0.05938173       0.75172297
H        0.19231710      -2.03923166      -0.08803969
11
Frame=11 idx=008699 GeodesicLength=0.4780322613969232 rxn_smarts="[O:1]=[C:2]([c:3]1[c:4]([H:9])[n:5][c:6]([H:10])[n:7]1[H:11])[H:8]>>[O:1]=[C:2](/[C:3]([C@:4]1([H:9])[N:5]=[C:6]1[H:10])=[N:7]\[H:11])[H:8]"
O       -2.34196139      -1.39658047       0.05262231
C       -1.84003632      -0.30384861       0.00251487
C       -0.38656300      -0.12147633      -0.18755267
C        0.34432361       1.09145487      -0.09530617
N        1.63354049       1.06524039      -0.79907714
C        1.77567934       0.19210191       0.11459011
N        0.51236941      -1.08377080      -0.03455551
H       -2.43841825       0.62576288       0.03025578
H       -0.05397558       2.04243398       0.22592858
H        2.62148173      -0.07244552       0.73620717
H        0.17355996      -2.03887230      -0.04562733
11
Frame=12 idx=008699 GeodesicLength=0.5206551216175342 rxn_smarts="[O:1]=[C:2]([c:3]1[c:4]([H:9])[n:5][c:6]([H:10])[n:7]1[H:11])[H:8]>>[O:1]=[C:2](/[C:3]([C@:4]1([H:9])[N:5]=[C:6]1[H:10])=[N:7]\[H:11])[H:8]"
O       -2.33663617      -1.39697829       0.06426583
C       -1.83782683      -0.30449257      -0.01347744
C       -0.38585706      -0.12102884      -0.21598787
C        0.34312180       1.09337024      -0.09129015
N        1.63400598       1.08165546      -0.77784966
C        1.78191619       0.19170142       0.11998803
N        0.50986384      -1.08577945      -0.06755998
H       -2.43596411       0.62468673       0.02645246
H       -0.07003308       2.03634610       0.23482730
H        2.64003959      -0.08629623       0.71809068
H        0.15736983      -2.03318456       0.00254080
11
Frame=13 idx=008699 GeodesicLength=0.5627737492839874 rxn_smarts="[O:1]=[C:2]([c:3]1[c:4]([H:9])[n:5][c:6]([H:10])[n:7]1[H:11])[H:8]>>[O:1]=[C:2](/[C:3]([C@:4]1([H:9])[N:5]=[C:6]1[H:10])=[N:7]\[H:11])[H:8]"
O       -2.33122188      -1.39721096       0.07593483
C       -1.83595819      -0.30522046      -0.02783543
C       -0.38530716      -0.12056359      -0.24192728
C        0.34182683       1.09472146      -0.08745078
N        1.63428961       1.09507278      -0.75694008
C        1.78786227       0.19048460       0.12655342
N        0.50659764      -1.08820401      -0.09571444
H       -2.43381168       0.62360690       0.02254722
H       -0.08591725       2.03046941       0.24115353
H        2.65828834      -0.09912298       0.70027772
H        0.14335148      -2.02403316       0.04340128
11
Frame=14 idx=008699 GeodesicLength=0.6053990356752291 rxn_smarts="[O:1]=[C:2]([c:3]1[c:4]([H:9])[n:5][c:6]([H:10])[n:7]1[H:11])[H:8]>>[O:1]=[C:2](/[C:3]([C@:4]1([H:9])[N:5]=[C:6]1[H:10])=[N:7]\[H:11])[H:8]"
O       -2.32636926      -1.39768039       0.08233576
C       -1.83434825      -0.30604291      -0.04003956
C       -0.38499048      -0.12014719      -0.26546263
C        0.34049982       1.09571929      -0.08380394
N        1.63391339       1.10609774      -0.73698750
C        1.79378113       0.18877779       0.13376218
N        0.50256087      -1.09103735      -0.11943179
H       -2.43169162       0.62248367       0.02115379
H       -0.10123496       2.02502980       0.24511972
H        2.67704294      -0.11084219       0.68181833
H        0.13083642      -2.01235824       0.08153564
11
Frame=15 idx=008699 GeodesicLength=0.6479609743602076 rxn_smarts="[O:1]=[C:2]([c:3]1[c:4]([H:9])[n:5][c:6]([H:10])[n:7]1[H:11])[H:8]>>[O:1]=[C:2](/[C:3]([C@:4]1([H:9])[N:5]=[C:6]1[H:10])=[N:7]\[H:11])[H:8]"
O       -2.32136112      -1.39785003       0.09055394
C       -1.83287403      -0.30686363      -0.05143990
C       -0.38465663      -0.11975850      -0.28718408
C        0.33908714       1.09643323      -0.08002652
N        1.63331034       1.11536967      -0.71695059
C        1.79958905       0.18683007       0.14221287
N        0.49819676      -1.09399481      -0.13967950
H       -2.42973346       0.62140764       0.01849952
H       -0.11646291       2.01984282       0.24730493
H        2.69573565      -0.12168097       0.66339233
H        0.11916922      -1.99973548       0.11331701
11
Frame=16 idx=008699 GeodesicLength=0.6906254937120694 rxn_smarts="[O:1]=[C:2]([c:3]1[c:4]([H:9])[n:5][c:6]([H:10])[n:7]1[H:11])[H:8]>>[O:1]=[C:2](/[C:3]([C@:4]1([H:9])[N:5]=[C:6]1[H:10])=[N:7]\[H:11])[H:8]"
O       -2.31649545      -1.39795734       0.09719857
C       -1.83138117      -0.30766153      -0.06141077
C       -0.38434439      -0.11942513      -0.30714418
C        0.33763869       1.09689951      -0.07622936
N        1.63223692       1.12309869      -0.69731070
C        1.80537696       0.18469949       0.15134629
N        0.49349444      -1.09706799      -0.15705654
H       -2.42772332       0.62033894       0.01610941
H       -0.13127057       2.01485923       0.24806409
H        2.71439682      -0.13146303       0.64460212
H        0.10807106      -1.98632083       0.14183107
