7
Frame=0 idx=003347 GeodesicLength=0.0 rxn_smarts="[C:1]([C:2](=[O:3])[H:7])([H:4])([H:5])[H:6]>>[C:1](=[C:2]=[O:3])([H:4])[H:6].[H:5][H:7]"
C       -0.64864973      -0.30946468       0.33578849
C        0.62696072       0.19245834       0.16624890
O        1.46967706       0.83300077       0.72087309
H       -1.15014286      -0.25530591       1.29580107
H       -0.09146699       0.49773140      -0.97404274
H       -1.01440231      -0.99932356      -0.41191832
H        0.80802412       0.04090361      -1.13275046
7
Frame=1 idx=003347 GeodesicLength=0.0903644020397517 rxn_smarts="[C:1]([C:2](=[O:3])[H:7])([H:4])([H:5])[H:6]>>[C:1](=[C:2]=[O:3])([H:4])[H:6].[H:5][H:7]"
C       -0.65345495      -0.29816424       0.33306740
C        0.63026780       0.19059208       0.17513671
O        1.47325218       0.82719124       0.73147129
H       -1.14946173      -0.25811459       1.29667300
H       -0.10386384       0.49984712      -0.99188910
H       -1.01097393      -1.00588383      -0.40221264
H        0.81423447       0.04453221      -1.14224666
7
Frame=2 idx=003347 GeodesicLength=0.18073184674737047 rxn_smarts="[C:1]([C:2](=[O:3])[H:7])([H:4])([H:5])[H:6]>>[C:1](=[C:2]=[O:3])([H:4])[H:6].[H:5][H:7]"
C       -0.65744155      -0.28781000       0.33052578
C        0.63419767       0.18771439       0.18452236
O        1.47693540       0.82133928       0.74222362
H       -1.14933513      -0.25972625       1.29674337
H       -0.11729069       0.50170257      -1.00975847
H       -1.00740137      -1.01244805      -0.39222662
H        0.82033567       0.04922806      -1.15203004
7
Frame=3 idx=003347 GeodesicLength=0.27107564972786363 rxn_smarts="[C:1]([C:2](=[O:3])[H:7])([H:4])([H:5])[H:6]>>[C:1](=[C:2]=[O:3])([H:4])[H:6].[H:5][H:7]"
C       -0.66066050      -0.27826265       0.32810953
C        0.63875313       0.18378078       0.19445228
O        1.48067674       0.81552051       0.75313141
H       -1.14965192      -0.26027813       1.29613237
H       -0.13173487       0.50320004      -1.02777038
H       -1.00376250      -1.01891384      -0.38202885
H        0.82637993       0.05495329      -1.16202637
7
Frame=4 idx=003347 GeodesicLength=0.3614158897005845 rxn_smarts="[C:1]([C:2](=[O:3])[H:7])([H:4])([H:5])[H:6]>>[C:1](=[C:2]=[O:3])([H:4])[H:6].[H:5][H:7]"
C       -0.66318813      -0.26936324       0.32578010
C        0.64395198       0.17876041       0.20496576
O        1.48445266       0.80983990       0.76418216
H       -1.15032971      -0.25997203       1.29498485
H       -0.14715296       0.50424656      -1.04606423
H       -1.00019460      -1.02518172      -0.37167283
H        0.83246076       0.06167012      -1.17217581
7
Frame=5 idx=003347 GeodesicLength=0.4517587866394972 rxn_smarts="[C:1]([C:2](=[O:3])[H:7])([H:4])([H:5])[H:6]>>[C:1](=[C:2]=[O:3])([H:4])[H:6].[H:5][H:7]"
C       -0.66500052      -0.26105487       0.32348905
C        0.64979456       0.17254812       0.21612345
O        1.48824395       0.80423171       0.77540240
H       -1.15132132      -0.25870459       1.29326010
H       -0.16364456       0.50478496      -1.06468686
H       -0.99660859      -1.03129068      -0.36114999
H        0.83853647       0.06948535      -1.18243814
7
Frame=6 idx=003347 GeodesicLength=0.5421987126533965 rxn_smarts="[C:1]([C:2](=[O:3])[H:7])([H:4])([H:5])[H:6]>>[C:1](=[C:2]=[O:3])([H:4])[H:6].[H:5][H:7]"
C       -0.66614079      -0.25321339       0.32122984
C        0.65630667       0.16514456       0.22797725
O        1.49203120       0.79881713       0.78677061
H       -1.15253189      -0.25671502       1.29109899
H       -0.18118621       0.50467841      -1.08381667
H       -0.99321819      -1.03707918      -0.35052948
H        0.84473922       0.07836750      -1.19273055
7
Frame=7 idx=003347 GeodesicLength=0.6323089175615522 rxn_smarts="[C:1]([C:2](=[O:3])[H:7])([H:4])([H:5])[H:6]>>[C:1](=[C:2]=[O:3])([H:4])[H:6].[H:5][H:7]"
C       -0.66654604      -0.24579120       0.31891928
C        0.66354892       0.15641358       0.24053472
O        1.49588227       0.79342554       0.79832121
H       -1.15402639      -0.25375184       1.28837561
H       -0.19988834       0.50379628      -1.10348637
H       -0.98981742      -1.04270710      -0.33975317
H        0.85084700       0.08861474      -1.20291128
7
Frame=8 idx=003347 GeodesicLength=0.7225113263929703 rxn_smarts="[C:1]([C:2](=[O:3])[H:7])([H:4])([H:5])[H:6]>>[C:1](=[C:2]=[O:3])([H:4])[H:6].[H:5][H:7]"
C       -0.66622483      -0.23872627       0.31655889
C        0.67150066       0.14637225       0.25388940
O        1.49982916       0.78801199       0.81010215
H       -1.15574207      -0.24986109       1.28512468
H       -0.21985970       0.50197571      -1.12387747
H       -0.98651342      -1.04813464      -0.32879763
H        0.85701021       0.10036205      -1.21300002
7
Frame=9 idx=003347 GeodesicLength=0.8127042719354729 rxn_smarts="[C:1]([C:2](=[O:3])[H:7])([H:4])([H:5])[H:6]>>[C:1](=[C:2]=[O:3])([H:4])[H:6].[H:5][H:7]"
C       -0.66511128      -0.23199869       0.31407241
C        0.68016773       0.13494261       0.26806573
O        1.50394634       0.78233259       0.82217378
H       -1.15771340      -0.24477015       1.28123193
H       -0.24128491       0.49902789      -1.14509937
H       -0.98314906      -1.05351821      -0.31755889
H        0.86314459       0.11398397      -1.22288559
7
Frame=10 idx=003347 GeodesicLength=0.9029163068401997 rxn_smarts="[C:1]([C:2](=[O:3])[H:7])([H:4])([H:5])[H:6]>>[C:1](=[C:2]=[O:3])([H:4])[H:6].[H:5][H:7]"
C       -0.66316584      -0.22555355       0.31140572
C        0.68957316       0.12210496       0.28311360
O        1.50835366       0.77620400       0.83463095
H       -1.15993220      -0.23833647       1.27662661
H       -0.26431513       0.49461766      -1.16734580
H       -0.97971804      -1.05890799      -0.30597033
H        0.86920441       0.12987139      -1.23246076
7
Frame=11 idx=003347 GeodesicLength=0.993008169920405 rxn_smarts="[C:1]([C:2](=[O:3])[H:7])([H:4])([H:5])[H:6]>>[C:1](=[C:2]=[O:3])([H:4])[H:6].[H:5][H:7]"
C       -0.66029618      -0.21932915       0.30847453
C        0.69972805       0.10781351       0.29907188
O        1.51312969       0.76932453       0.84757798
H       -1.16236037      -0.23032870       1.27117696
H       -0.28908028       0.48830099      -1.19085927
H       -0.97614391      -1.06434737      -0.29390302
H        0.87502300       0.14856619      -1.24153905
7
Frame=12 idx=003347 GeodesicLength=1.0831093283964042 rxn_smarts="[C:1]([C:2](=[O:3])[H:7])([H:4])([H:5])[H:6]>>[C:1](=[C:2]=[O:3])([H:4])[H:6].[H:5][H:7]"
C       -0.65644461      -0.21329489       0.30518085
C        0.71064551       0.09202477       0.31596228
O        1.51848235       0.76132111       0.86118182
H       -1.16501148      -0.22039656       1.26472636
H       -0.31580326       0.47951321      -1.21589704
H       -0.97238821      -1.06998749      -0.28118103
H        0.88051970       0.17081984      -1.24997324
7
Frame=13 idx=003347 GeodesicLength=1.1732171583694977 rxn_smarts="[C:1]([C:2](=[O:3])[H:7])([H:4])([H:5])[H:6]>>[C:1](=[C:2]=[O:3])([H:4])[H:6].[H:5][H:7]"
C       -0.65151713      -0.20741314       0.30139111
C        0.72235621       0.07465660       0.33377118
O        1.52465383       0.75168373       0.87566334
H       -1.16786871      -0.20806593       1.25705502
H       -0.34465530       0.46740250      -1.24281645
H       -0.96843080      -1.07597920      -0.26755997
H        0.88546189       0.19771543      -1.25750422
7
Frame=14 idx=003347 GeodesicLength=1.2632385764777831 rxn_smarts="[C:1]([C:2](=[O:3])[H:7])([H:4])([H:5])[H:6]>>[C:1](=[C:2]=[O:3])([H:4])[H:6].[H:5][H:7]"
C       -0.64533912      -0.20162194       0.29690910
C        0.73482621       0.05557397       0.35246588
O        1.53180890       0.73968146       0.89129409
H       -1.17075888      -0.19271269       1.24781730
H       -0.37572010       0.45078537      -1.27207304
H       -0.96418887      -1.08237806      -0.25268576
H        0.88937187       0.23067189      -1.26372758
7
Frame=15 idx=003347 GeodesicLength=1.353257625039636 rxn_smarts="[C:1]([C:2](=[O:3])[H:7])([H:4])([H:5])[H:6]>>[C:1](=[C:2]=[O:3])([H:4])[H:6].[H:5][H:7]"
C       -0.63782273      -0.19585999       0.29151783
C        0.74818074       0.03456891       0.37189636
O        1.54039457       0.72453733       0.90837827
H       -1.17359678      -0.17360644       1.23668692
H       -0.40888835       0.42791933      -1.30424391
H       -0.95993386      -1.08931380      -0.23617249
H        0.89166642       0.27175467      -1.26806298
7
Frame=16 idx=003347 GeodesicLength=1.443162680806202 rxn_smarts="[C:1]([C:2](=[O:3])[H:7])([H:4])([H:5])[H:6]>>[C:1](=[C:2]=[O:3])([H:4])[H:6].[H:5][H:7]"
C       -0.62879850      -0.19003649       0.28489166
C        0.76239397       0.01133867       0.39178668
O        1.55077293       0.70506400       0.92715861
H       -1.17607298      -0.14974971       1.22313766
H       -0.44354952       0.39647502      -1.34002262
H       -0.95589573      -1.09681213      -0.21738375
H        0.89114984       0.32372065      -1.26956824
