15
Frame=0 idx=006550 GeodesicLength=0.0 rxn_smarts="[C:1]([N:2]([C@@:3]([C:4]([O:5][H:15])([H:13])[H:14])([C:6]#[N:7])[H:12])[H:11])([H:8])([H:9])[H:10]>>[C:1]([N:2]([C@@:3]([C:4]([O:5][H:15])([H:13])[H:14])([N+:7]#[C-:6])[H:12])[H:11])([H:8])([H:9])[H:10]"
C       -1.89725013       0.63898216       0.59439759
N       -0.52952294       0.16564823       0.68354707
C        0.23659955       0.09817630      -0.38944353
C        1.67909458      -0.31283057      -0.24267023
O        2.42438405       0.83414061       0.10949601
C       -0.83080371      -1.25542719      -1.72845974
N       -0.09861793      -2.03915934      -1.25746824
H       -2.49505296      -0.07204211       0.01556134
H       -2.30807460       0.75493584       1.59495497
H       -1.91624875       1.60344766       0.08943806
H       -0.34903462      -0.53071660       1.39190219
H        0.03064248       0.82427333      -1.16446942
H        2.05539571      -0.66866341      -1.19600418
H        1.77960666      -1.12231208       0.48601119
H        2.21888262       1.08154724       1.01320691
15
Frame=1 idx=006550 GeodesicLength=0.061015202061557555 rxn_smarts="[C:1]([N:2]([C@@:3]([C:4]([O:5][H:15])([H:13])[H:14])([C:6]#[N:7])[H:12])[H:11])([H:8])([H:9])[H:10]>>[C:1]([N:2]([C@@:3]([C:4]([O:5][H:15])([H:13])[H:14])([N+:7]#[C-:6])[H:12])[H:11])([H:8])([H:9])[H:10]"
C       -1.89016624       0.63998632       0.59675921
N       -0.52191058       0.16697148       0.68606232
C        0.23444045       0.07824641      -0.40109534
C        1.68261587      -0.31536960      -0.24647374
O        2.41491841       0.83532968       0.11729112
C       -0.82158849      -1.24833177      -1.74463058
N       -0.11953118      -2.03453267      -1.23762904
H       -2.49293187      -0.07150496       0.02333457
H       -2.29901634       0.76138707       1.59768714
H       -1.90898093       1.60269665       0.08796142
H       -0.34881576      -0.53603461       1.39000566
H        0.03785995       0.82300652      -1.16214119
H        2.06765335      -0.66466919      -1.19919894
H        1.78770947      -1.12665726       0.48029729
H        2.17774389       1.08947593       1.01177010
15
Frame=2 idx=006550 GeodesicLength=0.12195858787805024 rxn_smarts="[C:1]([N:2]([C@@:3]([C:4]([O:5][H:15])([H:13])[H:14])([C:6]#[N:7])[H:12])[H:11])([H:8])([H:9])[H:10]>>[C:1]([N:2]([C@@:3]([C:4]([O:5][H:15])([H:13])[H:14])([N+:7]#[C-:6])[H:12])[H:11])([H:8])([H:9])[H:10]"
C       -1.88291471       0.64088951       0.59890346
N       -0.51435363       0.16823600       0.68833134
C        0.23225294       0.05894198      -0.41228239
C        1.68566956      -0.31748602      -0.25015442
O        2.40526463       0.83641915       0.12544053
C       -0.81176554      -1.24225004      -1.75976840
N       -0.14068602      -2.02935844      -1.21797380
H       -2.49059078      -0.07082009       0.03065316
H       -2.28980604       0.76742051       1.59998590
H       -1.90137664       1.60189765       0.08670444
H       -0.34866085      -0.54091353       1.38795784
H        0.04489015       0.82108092      -1.15956451
H        2.07933253      -0.65969299      -1.20217349
H        1.79522187      -1.13078508       0.47416185
H        2.13752254       1.09642047       1.00977848
15
Frame=3 idx=006550 GeodesicLength=0.1830564746738896 rxn_smarts="[C:1]([N:2]([C@@:3]([C:4]([O:5][H:15])([H:13])[H:14])([C:6]#[N:7])[H:12])[H:11])([H:8])([H:9])[H:10]>>[C:1]([N:2]([C@@:3]([C:4]([O:5][H:15])([H:13])[H:14])([N+:7]#[C-:6])[H:12])[H:11])([H:8])([H:9])[H:10]"
C       -1.87605628       0.64197067       0.60106211
N       -0.50704509       0.16949132       0.69060210
C        0.23008611       0.04022369      -0.42318336
C        1.68870387      -0.31936983      -0.25387615
O        2.39567556       0.83736711       0.13376146
C       -0.80124220      -1.23725435      -1.77421805
N       -0.16147952      -2.02394771      -1.19877643
H       -2.48855777      -0.06980983       0.03776724
H       -2.28113005       0.77348278       1.60241572
H       -1.89419788       1.60143902       0.08553106
H       -0.34861403      -0.54551287       1.38624103
H        0.05157184       0.81868876      -1.15724254
H        2.09109814      -0.65396344      -1.20537859
H        1.80277240      -1.13504527       0.46775040
H        2.09841489       1.10223994       1.00754399
15
Frame=4 idx=006550 GeodesicLength=0.24408192913717908 rxn_smarts="[C:1]([N:2]([C@@:3]([C:4]([O:5][H:15])([H:13])[H:14])([C:6]#[N:7])[H:12])[H:11])([H:8])([H:9])[H:10]>>[C:1]([N:2]([C@@:3]([C:4]([O:5][H:15])([H:13])[H:14])([N+:7]#[C-:6])[H:12])[H:11])([H:8])([H:9])[H:10]"
C       -1.86911003       0.64302942       0.60303450
N       -0.49983215       0.17067241       0.69269065
C        0.22789240       0.02204389      -0.43370632
C        1.69138937      -0.32084523      -0.25754928
O        2.38584174       0.83832243       0.14237612
C       -0.79032921      -1.23330604      -1.78756051
N       -0.18226289      -2.01807655      -1.17992812
H       -2.48644582      -0.06869879       0.04465901
H       -2.27233681       0.77949272       1.60449719
H       -1.88680655       1.60092521       0.08433619
H       -0.34868351      -0.54983160       1.38438233
H        0.05795617       0.81572211      -1.15482727
H        2.10246702      -0.64722693      -1.20849554
H        1.80992754      -1.13913713       0.46090721
H        2.06033274       1.10691408       1.00518383
15
Frame=5 idx=006550 GeodesicLength=0.3051984547934009 rxn_smarts="[C:1]([N:2]([C@@:3]([C:4]([O:5][H:15])([H:13])[H:14])([C:6]#[N:7])[H:12])[H:11])([H:8])([H:9])[H:10]>>[C:1]([N:2]([C@@:3]([C:4]([O:5][H:15])([H:13])[H:14])([N+:7]#[C-:6])[H:12])[H:11])([H:8])([H:9])[H:10]"
C       -1.86239114       0.64418952       0.60498156
N       -0.49282943       0.17178839       0.69474506
C        0.22572178       0.00435930      -0.44393843
C        1.69395936      -0.32209467      -0.26120486
O        2.37603759       0.83910932       0.15115476
C       -0.77877783      -1.23033140      -1.80025289
N       -0.20287810      -2.01191620      -1.16146123
H       -2.48452307      -0.06729796       0.05131032
H       -2.26385705       0.78542278       1.60658941
H       -1.87958243       1.60064639       0.08328504
H       -0.34886160      -0.55394597       1.38270014
H        0.06404633       0.81233897      -1.15255867
H        2.11373454      -0.63978735      -1.21165835
H        1.81697993      -1.14326602       0.45379597
H        2.02322112       1.11078490       1.00251217
15
Frame=6 idx=006550 GeodesicLength=0.36637139798246277 rxn_smarts="[C:1]([N:2]([C@@:3]([C:4]([O:5][H:15])([H:13])[H:14])([C:6]#[N:7])[H:12])[H:11])([H:8])([H:9])[H:10]>>[C:1]([N:2]([C@@:3]([C:4]([O:5][H:15])([H:13])[H:14])([N+:7]#[C-:6])[H:12])[H:11])([H:8])([H:9])[H:10]"
C       -1.85578550       0.64542075       0.60685852
N       -0.48600188       0.17282875       0.69673296
C        0.22356252      -0.01286505      -0.45388001
C        1.69635643      -0.32307142      -0.26484267
O        2.36614563       0.83980391       0.16008463
C       -0.76672855      -1.22836884      -1.81216267
N       -0.22335912      -2.00541994      -1.14336941
H       -2.48269634      -0.06565224       0.05773951
H       -2.25553929       0.79130972       1.60858187
H       -1.87237137       1.60051621       0.08233120
H       -0.34917010      -0.55788967       1.38106273
H        0.06981491       0.80854089      -1.15038128
H        2.12483728      -0.63158219      -1.21480986
H        1.82386913      -1.14734569       0.44637712
H        1.98706625       1.11377482       0.99967735
15
Frame=7 idx=006550 GeodesicLength=0.42769627266028004 rxn_smarts="[C:1]([N:2]([C@@:3]([C:4]([O:5][H:15])([H:13])[H:14])([C:6]#[N:7])[H:12])[H:11])([H:8])([H:9])[H:10]>>[C:1]([N:2]([C@@:3]([C:4]([O:5][H:15])([H:13])[H:14])([N+:7]#[C-:6])[H:12])[H:11])([H:8])([H:9])[H:10]"
C       -1.84943028       0.64677566       0.60871224
N       -0.47939207       0.17378531       0.69871714
C        0.22143639      -0.02966273      -0.46359397
C        1.69871942      -0.32383730      -0.26850756
O        2.35628332       0.84037181       0.16913451
C       -0.75422539      -1.22736310      -1.82333234
N       -0.24360663      -1.99864994      -1.12571653
H       -2.48111599      -0.06376431       0.06405365
H       -2.24752767       0.79730967       1.61059928
H       -1.86536019       1.60058748       0.08136818
H       -0.34963426      -0.56174656       1.37956733
H        0.07525631       0.80440835      -1.14839098
H        2.13595740      -0.62266408      -1.21808341
H        1.83077899      -1.15150105       0.43868597
H        1.95186065       1.11595079       0.99678649
15
Frame=8 idx=006550 GeodesicLength=0.48896803756556867 rxn_smarts="[C:1]([N:2]([C@@:3]([C:4]([O:5][H:15])([H:13])[H:14])([C:6]#[N:7])[H:12])[H:11])([H:8])([H:9])[H:10]>>[C:1]([N:2]([C@@:3]([C:4]([O:5][H:15])([H:13])[H:14])([N+:7]#[C-:6])[H:12])[H:11])([H:8])([H:9])[H:10]"
C       -1.84292421       0.64807432       0.61044186
N       -0.47287707       0.17461043       0.70057801
C        0.21930842      -0.04609022      -0.47295569
C        1.70070779      -0.32431261      -0.27203391
O        2.34627657       0.84079083       0.17842807
C       -0.74117142      -1.22724957      -1.83383034
N       -0.26403642      -1.99143597      -1.10836960
H       -2.47941976      -0.06172557       0.07011085
H       -2.23931730       0.80311432       1.61233269
H       -1.85799319       1.60061678       0.08057925
H       -0.35020490      -0.56546770       1.37791691
H        0.08047566       0.79987302      -1.14626540
H        2.14654991      -0.61299172      -1.22102515
H        1.83722354      -1.15546341       0.43065826
H        1.91740239       1.11765704       0.99343419
15
Frame=9 idx=006550 GeodesicLength=0.5503558960237426 rxn_smarts="[C:1]([N:2]([C@@:3]([C:4]([O:5][H:15])([H:13])[H:14])([C:6]#[N:7])[H:12])[H:11])([H:8])([H:9])[H:10]>>[C:1]([N:2]([C@@:3]([C:4]([O:5][H:15])([H:13])[H:14])([N+:7]#[C-:6])[H:12])[H:11])([H:8])([H:9])[H:10]"
C       -1.83666541       0.64949776       0.61217140
N       -0.46658486       0.17532935       0.70246507
C        0.21722562      -0.06216233      -0.48211191
C        1.70268179      -0.32461080      -0.27556880
O        2.33632236       0.84105771       0.18780096
C       -0.72766319      -1.22805512      -1.84370916
N       -0.28425475      -1.98395050      -1.09147235
H       -2.47798670      -0.05941515       0.07606368
H       -2.23141164       0.80901421       1.61412031
H       -1.85079287       1.60085546       0.07982458
H       -0.35094102      -0.56916534       1.37641176
H        0.08537953       0.79506007      -1.14433835
H        2.15715627      -0.60268807      -1.22401569
H        1.84370514      -1.15947821       0.42239162
H        1.88382973       1.11871096       0.98996687
15
Frame=10 idx=006550 GeodesicLength=0.611804270603843 rxn_smarts="[C:1]([N:2]([C@@:3]([C:4]([O:5][H:15])([H:13])[H:14])([C:6]#[N:7])[H:12])[H:11])([H:8])([H:9])[H:10]>>[C:1]([N:2]([C@@:3]([C:4]([O:5][H:15])([H:13])[H:14])([N+:7]#[C-:6])[H:12])[H:11])([H:8])([H:9])[H:10]"
C       -1.83049488       0.65098545       0.61384902
N       -0.46046680       0.17592620       0.70433309
C        0.21516975      -0.07790378      -0.49104371
C        1.70452590      -0.32470344      -0.27908393
O        2.32631600       0.84119876       0.19727206
C       -0.71376270      -1.22972785      -1.85286847
N       -0.30435402      -1.97615807      -1.07501041
H       -2.47665821      -0.05690417       0.08189288
H       -2.22360403       0.81496400       1.61583107
H       -1.84356568       1.60120621       0.07910122
H       -0.35184038      -0.57284721       1.37491676
H        0.09000830       0.78996840      -1.14249098
H        2.16759467      -0.59174110      -1.22694765
H        1.85008234      -1.16347053       0.41385414
H        1.85104974       1.11920714       0.98639490
15
Frame=11 idx=006550 GeodesicLength=0.67334540053929 rxn_smarts="[C:1]([N:2]([C@@:3]([C:4]([O:5][H:15])([H:13])[H:14])([C:6]#[N:7])[H:12])[H:11])([H:8])([H:9])[H:10]>>[C:1]([N:2]([C@@:3]([C:4]([O:5][H:15])([H:13])[H:14])([N+:7]#[C-:6])[H:12])[H:11])([H:8])([H:9])[H:10]"
C       -1.82445036       0.65254916       0.61547276
N       -0.45452673       0.17640818       0.70620535
C        0.21314923      -0.09333966      -0.49976810
C        1.70629907      -0.32458545      -0.28259426
O        2.31629074       0.84122886       0.20684081
C       -0.69961022      -1.23229998      -1.86125809
N       -0.32428057      -1.96803603      -1.05906182
H       -2.47550101      -0.05421975       0.08766573
H       -2.21592157       0.82107894       1.61747232
H       -1.83636834       1.60162774       0.07830904
H       -0.35292296      -0.57653562       1.37343662
H        0.09433728       0.78460916      -1.14075771
H        2.17793316      -0.58011397      -1.22986905
H        1.85644036      -1.16744021       0.40504905
H        1.81913192       1.11906865       0.98285735
15
Frame=12 idx=006550 GeodesicLength=0.7349030961534817 rxn_smarts="[C:1]([N:2]([C@@:3]([C:4]([O:5][H:15])([H:13])[H:14])([C:6]#[N:7])[H:12])[H:11])([H:8])([H:9])[H:10]>>[C:1]([N:2]([C@@:3]([C:4]([O:5][H:15])([H:13])[H:14])([N+:7]#[C-:6])[H:12])[H:11])([H:8])([H:9])[H:10]"
C       -1.81838535       0.65410980       0.61704948
N       -0.44872112       0.17675680       0.70805475
C        0.21115935      -0.10849989      -0.50823924
C        1.70784179      -0.32427934      -0.28600304
O        2.30622639       0.84107400       0.21653059
C       -0.68490906      -1.23569249      -1.86912347
N       -0.34429628      -1.95953154      -1.04351498
H       -2.47435659      -0.05134384       0.09326207
H       -2.20821015       0.82707397       1.61899432
H       -1.82898375       1.60210151       0.07767988
H       -0.35413242      -0.58020492       1.37190671
H        0.09843966       0.77900275      -1.13898686
H        2.18791110      -0.56794146      -1.23251509
H        1.86251368      -1.17130608       0.39599515
H        1.78790277       1.11868072       0.97890972
15
Frame=13 idx=006550 GeodesicLength=0.7965600840879143 rxn_smarts="[C:1]([N:2]([C@@:3]([C:4]([O:5][H:15])([H:13])[H:14])([C:6]#[N:7])[H:12])[H:11])([H:8])([H:9])[H:10]>>[C:1]([N:2]([C@@:3]([C:4]([O:5][H:15])([H:13])[H:14])([N+:7]#[C-:6])[H:12])[H:11])([H:8])([H:9])[H:10]"
C       -1.81251591       0.65575970       0.61862410
N       -0.44311635       0.17697291       0.70995838
C        0.20922669      -0.12340418      -0.51654010
C        1.70937819      -0.32382421      -0.28939906
O        2.29624340       0.84075518       0.22625780
C       -0.66986452      -1.23991232      -1.87639262
N       -0.36416606      -1.95071798      -1.02847892
H       -2.47346016      -0.04823263       0.09879316
H       -2.20072715       0.83316587       1.62054560
H       -1.82168478       1.60271649       0.07706215
H       -0.35553089      -0.58393826       1.37046632
H        0.10226938       0.77319802      -1.13736687
H        2.19784669      -0.55523549      -1.23511701
H        1.86862793      -1.17517601       0.38674222
H        1.75747353       1.11787292       0.97484484
15
Frame=14 idx=006550 GeodesicLength=0.8582487011032515 rxn_smarts="[C:1]([N:2]([C@@:3]([C:4]([O:5][H:15])([H:13])[H:14])([C:6]#[N:7])[H:12])[H:11])([H:8])([H:9])[H:10]>>[C:1]([N:2]([C@@:3]([C:4]([O:5][H:15])([H:13])[H:14])([N+:7]#[C-:6])[H:12])[H:11])([H:8])([H:9])[H:10]"
C       -1.80664889       0.65745075       0.62013870
N       -0.43765836       0.17705044       0.71185593
C        0.20732326      -0.13807196      -0.52464216
C        1.71075932      -0.32318049      -0.29275988
O        2.28616379       0.84031794       0.23605059
C       -0.65454532      -1.24495056      -1.88292995
N       -0.38391953      -1.94158375      -1.01394479
H       -2.47258746      -0.04494289       0.10421836
H       -2.19323035       0.83932026       1.62197755
H       -1.81425165       1.60339051       0.07647745
H       -0.35710303      -0.58772731       1.36895272
H        0.10584432       0.76718069      -1.13577185
H        2.20752086      -0.54196938      -1.23757214
H        1.87462098      -1.17896432       0.37723238
H        1.72771207       1.11668008       0.97071710
15
Frame=15 idx=006550 GeodesicLength=0.9200001443099489 rxn_smarts="[C:1]([N:2]([C@@:3]([C:4]([O:5][H:15])([H:13])[H:14])([C:6]#[N:7])[H:12])[H:11])([H:8])([H:9])[H:10]>>[C:1]([N:2]([C@@:3]([C:4]([O:5][H:15])([H:13])[H:14])([N+:7]#[C-:6])[H:12])[H:11])([H:8])([H:9])[H:10]"
C       -1.80089335       0.65918890       0.62163453
N       -0.43236784       0.17699535       0.71380210
C        0.20547660      -0.15251565      -0.53256716
C        1.71207537      -0.32238694      -0.29607798
O        2.27613632       0.83971722       0.24588139
C       -0.63891124      -1.25078034      -1.88885773
N       -0.40358795      -1.93209853      -0.99995577
H       -2.47188349      -0.04145820       0.10957185
H       -2.18586115       0.84552072       1.62338118
H       -1.80680528       1.60414440       0.07591994
H       -0.35885776      -0.59158961       1.36745932
H        0.10917857       0.76098956      -1.13425280
H        2.21703217      -0.52821759      -1.23988819
H        1.88056725      -1.18270001       0.36753244
H        1.69870176       1.11519072       0.96641688
15
Frame=16 idx=006550 GeodesicLength=0.9817916101589277 rxn_smarts="[C:1]([N:2]([C@@:3]([C:4]([O:5][H:15])([H:13])[H:14])([C:6]#[N:7])[H:12])[H:11])([H:8])([H:9])[H:10]>>[C:1]([N:2]([C@@:3]([C:4]([O:5][H:15])([H:13])[H:14])([N+:7]#[C-:6])[H:12])[H:11])([H:8])([H:9])[H:10]"
C       -1.79521807       0.66096029       0.62310362
N       -0.42723105       0.17681706       0.71579309
C        0.20368526      -0.16674446      -0.54031846
C        1.71330765      -0.32144750      -0.29935106
O        2.26614250       0.83895844       0.25573152
C       -0.62299315      -1.25737780      -1.89415313
N       -0.42317157      -1.92225462      -0.98651915
H       -2.47130297      -0.03779056       0.11483814
H       -2.17859378       0.85173591       1.62473395
H       -1.79931892       1.60496539       0.07540584
H       -0.36078688      -0.59552058       1.36595799
H        0.11228267       0.75464342      -1.13278524
H        2.22634118      -0.51402350      -1.24204188
H        1.88644454      -1.18636234       0.35765080
H        1.67041260       1.11344085       0.96195399
