12
Frame=0 idx=000723 GeodesicLength=0.0 rxn_smarts="[C:1]([C:2](=[O:3])[C:4]([C:5]#[C:6][H:12])([H:10])[H:11])([H:7])([H:8])[H:9]>>[C:1]([C@@:2]1([O:3][H:12])[C:4]([H:10])([H:11])[C:5]1=[C:6])([H:7])([H:8])[H:9]"
C       -1.21068462       1.06316473      -0.01527298
C       -0.30774209      -0.05927571       0.28461277
O       -0.17853426      -0.38461188       1.51410403
C        0.43168320      -0.79914234      -0.76410375
C        1.77569105      -0.53132034      -0.24467433
C        2.68812490      -0.19199209       0.52707901
H       -1.97484655       0.73861065      -0.72499684
H       -0.61218195       1.82530561      -0.52291010
H       -1.65489791       1.48031964       0.88409335
H        0.22223914      -0.37622341      -1.74827480
H        0.15492186      -1.86098829      -0.77217071
H        0.66622728      -0.90384660       1.58251434
12
Frame=1 idx=000723 GeodesicLength=0.1447669549795713 rxn_smarts="[C:1]([C:2](=[O:3])[C:4]([C:5]#[C:6][H:12])([H:10])[H:11])([H:7])([H:8])[H:9]>>[C:1]([C@@:2]1([O:3][H:12])[C:4]([H:10])([H:11])[C:5]1=[C:6])([H:7])([H:8])[H:9]"
C       -1.19885065       1.06786785      -0.01456603
C       -0.32101391      -0.07867372       0.27466844
O       -0.21610805      -0.43150831       1.49982129
C        0.43070316      -0.80597952      -0.77590694
C        1.76296157      -0.49196855      -0.25294374
C        2.64727629      -0.17786971       0.56048643
H       -1.99559238       0.75355621      -0.69208879
H       -0.60155857       1.81303641      -0.54732559
H       -1.60345512       1.50984687       0.89194673
H        0.21509781      -0.39312533      -1.76265251
H        0.18304636      -1.87435839      -0.77740810
H        0.69749348      -0.89082379       1.59596881
12
Frame=2 idx=000723 GeodesicLength=0.28971575834843144 rxn_smarts="[C:1]([C:2](=[O:3])[C:4]([C:5]#[C:6][H:12])([H:10])[H:11])([H:7])([H:8])[H:9]>>[C:1]([C@@:2]1([O:3][H:12])[C:4]([H:10])([H:11])[C:5]1=[C:6])([H:7])([H:8])[H:9]"
C       -1.18721439       1.07175221      -0.01371139
C       -0.33433758      -0.09790614       0.26389252
O       -0.25203092      -0.47702466       1.48392934
C        0.43053377      -0.81262074      -0.78769686
C        1.74919373      -0.45514051      -0.25883470
C        2.60643726      -0.16447433       0.59105931
H       -2.01592705       0.76899197      -0.65701574
H       -0.59347168       1.80030877      -0.57195297
H       -1.54971840       1.53639330       0.89960724
H        0.21073364      -0.40891103      -1.77693798
H        0.21094714      -1.88647916      -0.78345171
H        0.72485450      -0.87488968       1.61111294
12
Frame=3 idx=000723 GeodesicLength=0.43479289796947956 rxn_smarts="[C:1]([C:2](=[O:3])[C:4]([C:5]#[C:6][H:12])([H:10])[H:11])([H:7])([H:8])[H:9]>>[C:1]([C@@:2]1([O:3][H:12])[C:4]([H:10])([H:11])[C:5]1=[C:6])([H:7])([H:8])[H:9]"
C       -1.17574369       1.07489263      -0.01275354
C       -0.34764907      -0.11688259       0.25237596
O       -0.28652131      -0.52092179       1.46668929
C        0.43106326      -0.81905198      -0.79942147
C        1.73454664      -0.42063384      -0.26278397
C        2.56555957      -0.15152365       0.61920381
H       -2.03560624       0.78495677      -0.61972829
H       -0.58786067       1.78717929      -0.59678659
H       -1.49390598       1.56003914       0.90675069
H        0.20886026      -0.42372780      -1.79112125
H        0.23851862      -1.89740262      -0.78995769
H        0.74873860      -0.85692356       1.62753305
12
Frame=4 idx=000723 GeodesicLength=0.580005662097339 rxn_smarts="[C:1]([C:2](=[O:3])[C:4]([C:5]#[C:6][H:12])([H:10])[H:11])([H:7])([H:8])[H:9]>>[C:1]([C@@:2]1([O:3][H:12])[C:4]([H:10])([H:11])[C:5]1=[C:6])([H:7])([H:8])[H:9]"
C       -1.16439033       1.07738890      -0.01175123
C       -0.36090510      -0.13554852       0.24019407
O       -0.31991923      -0.56321550       1.44830433
C        0.43216660      -0.82530169      -0.81104519
C        1.71911886      -0.38821776      -0.26512275
C        2.52456247      -0.13860484       0.64529332
H       -2.05440294       0.80151418      -0.58023262
H       -0.58463431       1.77376726      -0.62177990
H       -1.43613710       1.58092658       0.91307232
H        0.20915465      -0.43774437      -1.80522324
H        0.26568843      -1.90727406      -0.79665898
H        0.76969800      -0.83769018       1.64494989
12
Frame=5 idx=000723 GeodesicLength=0.7255151566409185 rxn_smarts="[C:1]([C:2](=[O:3])[C:4]([C:5]#[C:6][H:12])([H:10])[H:11])([H:7])([H:8])[H:9]>>[C:1]([C@@:2]1([O:3][H:12])[C:4]([H:10])([H:11])[C:5]1=[C:6])([H:7])([H:8])[H:9]"
C       -1.15312018       1.07937347      -0.01076988
C       -0.37406136      -0.15384962       0.22740076
O       -0.35256798      -0.60400011       1.42893429
C        0.43369677      -0.83144980      -0.82258026
C        1.70297467      -0.35774920      -0.26619773
C        2.48338553      -0.12510768       0.66982620
H       -2.07208867       0.81876568      -0.53857996
H       -0.58368509       1.76021186      -0.64683423
H       -1.37655231       1.59924361       0.91828361
H        0.21126217      -0.45114906      -1.81932113
H        0.29235438      -1.91631028      -0.80336810
H        0.78840206      -0.81797886       1.66320643
12
Frame=6 idx=000723 GeodesicLength=0.8712410392543097 rxn_smarts="[C:1]([C:2](=[O:3])[C:4]([C:5]#[C:6][H:12])([H:10])[H:11])([H:7])([H:8])[H:9]>>[C:1]([C@@:2]1([O:3][H:12])[C:4]([H:10])([H:11])[C:5]1=[C:6])([H:7])([H:8])[H:9]"
C       -1.14190275       1.08091430      -0.00981239
C       -0.38712087      -0.17173288       0.21405866
O       -0.38495840      -0.64344020       1.40858767
C        0.43557884      -0.83752302      -0.83394753
C        1.68614423      -0.32903823      -0.26623846
C        2.44188679      -0.11080360       0.69281343
H       -2.08832134       0.83680973      -0.49490527
H       -0.58483440       1.74660558      -0.67173419
H       -1.31540795       1.61497474       0.92219198
H        0.21498607      -0.46411168      -1.83333190
H        0.31853447      -1.92457798      -0.80982304
H        0.80541530      -0.79807675       1.68214104
12
Frame=7 idx=000723 GeodesicLength=1.0172529402489952 rxn_smarts="[C:1]([C:2](=[O:3])[C:4]([C:5]#[C:6][H:12])([H:10])[H:11])([H:7])([H:8])[H:9]>>[C:1]([C@@:2]1([O:3][H:12])[C:4]([H:10])([H:11])[C:5]1=[C:6])([H:7])([H:8])[H:9]"
C       -1.13072081       1.08209412      -0.00889540
C       -0.40008109      -0.18914209       0.20021018
O       -0.41753442      -0.68173135       1.38723145
C        0.43771013      -0.84356285      -0.84510397
C        1.66863581      -0.30195034      -0.26543782
C        2.40001605      -0.09538463       0.71436491
H       -2.10279946       0.85569404      -0.44939435
H       -0.58790950       1.73307145      -0.69626419
H       -1.25295997       1.62814020       0.92463543
H        0.22009832      -0.47677191      -1.84722444
H        0.34418389      -1.93217779      -0.81583496
H        0.82136105      -0.77827886       1.70171317
12
Frame=8 idx=000723 GeodesicLength=1.1636288100228056 rxn_smarts="[C:1]([C:2](=[O:3])[C:4]([C:5]#[C:6][H:12])([H:10])[H:11])([H:7])([H:8])[H:9]>>[C:1]([C@@:2]1([O:3][H:12])[C:4]([H:10])([H:11])[C:5]1=[C:6])([H:7])([H:8])[H:9]"
C       -1.11956781       1.08299758      -0.00800810
C       -0.41294845      -0.20603095       0.18589029
O       -0.45074080      -0.71908388       1.36479028
C        0.43999965      -0.84963277      -0.85603653
C        1.65043535      -0.27640828      -0.26398292
C        2.35774031      -0.07855392       0.73453157
H       -2.11520800       0.87545502      -0.40228623
H       -0.59270523       1.71974843      -0.72016536
H       -1.18953603       1.63875166       0.92553842
H        0.22641019      -0.48926989      -1.86100535
H        0.36926544      -1.93923019      -0.82126569
H        0.83685539      -0.75874281       1.72199963
12
Frame=9 idx=000723 GeodesicLength=1.3105179341743332 rxn_smarts="[C:1]([C:2](=[O:3])[C:4]([C:5]#[C:6][H:12])([H:10])[H:11])([H:7])([H:8])[H:9]>>[C:1]([C@@:2]1([O:3][H:12])[C:4]([H:10])([H:11])[C:5]1=[C:6])([H:7])([H:8])[H:9]"
C       -1.10839692       1.08365150      -0.00711570
C       -0.42571905      -0.22239127       0.17110102
O       -0.48498409      -0.75569684       1.34108327
C        0.44234722      -0.85580595      -0.86675421
C        1.63158557      -0.25237771      -0.26220848
C        2.31480254      -0.05996772       0.75357036
H       -2.12530960       0.89616197      -0.35376927
H       -0.59887520       1.70670873      -0.74312892
H       -1.12541103       1.64669835       0.92484841
H        0.23370344      -0.50174056      -1.87464254
H        0.39371455      -1.94583389      -0.82598410
H        0.85254257      -0.73940661       1.74300016
12
Frame=10 idx=000723 GeodesicLength=1.4579252698965373 rxn_smarts="[C:1]([C:2](=[O:3])[C:4]([C:5]#[C:6][H:12])([H:10])[H:11])([H:7])([H:8])[H:9]>>[C:1]([C@@:2]1([O:3][H:12])[C:4]([H:10])([H:11])[C:5]1=[C:6])([H:7])([H:8])[H:9]"
C       -1.09723877       1.08413150      -0.00617325
C       -0.43840735      -0.23816249       0.15588780
O       -0.52070374      -0.79180701       1.31591034
C        0.44468311      -0.86212895      -0.87721701
C        1.61206157      -0.22984135      -0.26011685
C        2.27135458      -0.03967540       0.77117065
H       -2.13281579       0.91770048      -0.30431165
H       -0.60616061       1.69420262      -0.76482073
H       -1.06113252       1.65192996       0.92270368
H        0.24186871      -0.51426459      -1.88811312
H        0.41747363      -1.95207126      -0.82988798
H        0.86901716      -0.72001351       1.76496811
12
Frame=11 idx=000723 GeodesicLength=1.6059827099383794 rxn_smarts="[C:1]([C:2](=[O:3])[C:4]([C:5]#[C:6][H:12])([H:10])[H:11])([H:7])([H:8])[H:9]>>[C:1]([C@@:2]1([O:3][H:12])[C:4]([H:10])([H:11])[C:5]1=[C:6])([H:7])([H:8])[H:9]"
C       -1.08607343       1.08446619      -0.00511347
C       -0.45101666      -0.25333176       0.14025118
O       -0.55831855      -0.82763356       1.28896987
C        0.44692506      -0.86867534      -0.88744064
C        1.59189634      -0.20883625      -0.25789146
C        2.22730553      -0.01756320       0.78735493
H       -2.13755832       0.93999782      -0.25423981
H       -0.61419217       1.68238447      -0.78492326
H       -0.99710543       1.65435270       0.91926355
H        0.25076073      -0.52693349      -1.90140543
H        0.44045598      -1.95804002      -0.83291673
H        0.88692092      -0.70018757       1.78809128
12
Frame=12 idx=000723 GeodesicLength=1.7547849848655133 rxn_smarts="[C:1]([C:2](=[O:3])[C:4]([C:5]#[C:6][H:12])([H:10])[H:11])([H:7])([H:8])[H:9]>>[C:1]([C@@:2]1([O:3][H:12])[C:4]([H:10])([H:11])[C:5]1=[C:6])([H:7])([H:8])[H:9]"
C       -1.07488087       1.08468546      -0.00384831
C       -0.46355624      -0.26789089       0.12419020
O       -0.59827545      -0.86340018       1.25988102
C        0.44899641      -0.87553011      -0.89744113
C        1.57111492      -0.18944495      -0.25564403
C        2.18260549       0.00645198       0.80203440
H       -2.13940243       0.96292554      -0.20392948
H       -0.62257893       1.67144267      -0.80311603
H       -0.93376463       1.65389217       0.91479434
H        0.26026750      -0.53983472      -1.91451356
H        0.46256153      -1.96385107      -0.83503430
H        0.90691272      -0.67944588       1.81262689
12
Frame=13 idx=000723 GeodesicLength=1.9045179811510409 rxn_smarts="[C:1]([C:2](=[O:3])[C:4]([C:5]#[C:6][H:12])([H:10])[H:11])([H:7])([H:8])[H:9]>>[C:1]([C@@:2]1([O:3][H:12])[C:4]([H:10])([H:11])[C:5]1=[C:6])([H:7])([H:8])[H:9]"
C       -1.06362647       1.08479920      -0.00227656
C       -0.47603897      -0.28184217       0.10769943
O       -0.64106405      -0.89930757       1.22817388
C        0.45081235      -0.88278680      -0.90723930
C        1.54977694      -0.17179756      -0.25351821
C        2.13712286       0.03248015       0.81522799
H       -2.13830671       0.98634736      -0.15375935
H       -0.63086844       1.66155477      -0.81909220
H       -0.87151592       1.65044052       0.90962828
H        0.27025954      -0.55305395      -1.92742677
H        0.48366856      -1.96961069      -0.83619982
H        0.92978032      -0.65722327       1.83878264
12
Frame=14 idx=000723 GeodesicLength=2.055304145664365 rxn_smarts="[C:1]([C:2](=[O:3])[C:4]([C:5]#[C:6][H:12])([H:10])[H:11])([H:7])([H:8])[H:9]>>[C:1]([C@@:2]1([O:3][H:12])[C:4]([H:10])([H:11])[C:5]1=[C:6])([H:7])([H:8])[H:9]"
C       -1.05224524       1.08481852      -0.00027359
C       -0.48850448      -0.29521237       0.09075971
O       -0.68729404      -0.93557772       1.19323152
C        0.45228944      -0.89056849      -0.91685246
C        1.52789764      -0.15606331      -0.25152337
C        2.09072399       0.06074671       0.82675812
H       -2.13423370       1.01008105      -0.10410169
H       -0.63857835       1.65292639      -0.83256122
H       -0.81072702       1.64391518       0.90423709
H        0.28067312      -0.56669991      -1.94015155
H        0.50363646      -1.97547145      -0.83639217
H        0.95636219      -0.63289461       1.86686959
12
Frame=15 idx=000723 GeodesicLength=2.2074478812848426 rxn_smarts="[C:1]([C:2](=[O:3])[C:4]([C:5]#[C:6][H:12])([H:10])[H:11])([H:7])([H:8])[H:9]>>[C:1]([C@@:2]1([O:3][H:12])[C:4]([H:10])([H:11])[C:5]1=[C:6])([H:7])([H:8])[H:9]"
C       -1.04065358       1.08472560       0.00230551
C       -0.50101575      -0.30805093       0.07333220
O       -0.73769530      -0.97239138       1.15425613
C        0.45333787      -0.89901809      -0.92629412
C        1.50552602      -0.14247046      -0.24969289
C        2.04308937       0.09156570       0.83660080
H       -2.12723799       1.03397988      -0.05528780
H       -0.64517617       1.64573123      -0.84322717
H       -0.75168592       1.63415943       0.89913675
H        0.29143935      -0.58089396      -1.95267829
H        0.52230588      -1.98159077      -0.83555984
H        0.98776620      -0.60574626       1.89710870
12
Frame=16 idx=000723 GeodesicLength=2.3613448633011704 rxn_smarts="[C:1]([C:2](=[O:3])[C:4]([C:5]#[C:6][H:12])([H:10])[H:11])([H:7])([H:8])[H:9]>>[C:1]([C@@:2]1([O:3][H:12])[C:4]([H:10])([H:11])[C:5]1=[C:6])([H:7])([H:8])[H:9]"
C       -1.02873786       1.08447395       0.00563987
C       -0.51369100      -0.32044542       0.05535140
O       -0.79319597      -1.00989458       1.11019353
C        0.45386378      -0.90831127      -0.93556509
C        1.48268237      -0.13130944      -0.24794426
C        1.99375759       0.12539526       0.84466709
H       -2.11739636       1.05789199      -0.00761078
H       -0.65007367       1.64012921      -0.85077132
H       -0.69461319       1.62094758       0.89495344
H        0.30255856      -0.59577932      -1.96499620
H        0.53947281      -1.98816517      -0.83363784
H        1.02537294      -0.57493280       1.92972016
