14
Frame=0 idx=007389 GeodesicLength=0.0 rxn_smarts="[C:1]1([H:8])([H:9])[C@@:2]2([H:10])[C:3]([H:11])([H:12])[O:4][C:5]([H:13])=[N:6][C@@:7]12[H:14]>>[C:1]([C@@:2]1([H:10])[C:3]([H:11])([H:12])[O:4][C:5]([H:13])=[N+:6]=[C-:7]1)([H:8])([H:9])[H:14]"
C       -1.55663561      -0.39090968       0.09976406
C       -0.49386830       0.33812610      -0.70161798
C        0.47530457       1.24697171       0.02868434
O        1.78833099       0.67141800       0.12294921
C        1.77471513      -0.62575411       0.46812158
N        0.86151205      -1.47171923       0.20274258
C       -0.06625867      -1.08888232      -0.78796623
H       -1.46151688      -0.31439048       1.17741565
H       -2.56556259      -0.32105212      -0.29519951
H       -0.86372035       0.75370900      -1.63349608
H        0.14218287       1.46213680       1.04740712
H        0.60827677       2.18842697      -0.49830704
H        2.66939716      -0.91937635       1.01005608
H       -1.31215708      -1.52870435      -0.24055378
14
Frame=1 idx=007389 GeodesicLength=0.06156612820104619 rxn_smarts="[C:1]1([H:8])([H:9])[C@@:2]2([H:10])[C:3]([H:11])([H:12])[O:4][C:5]([H:13])=[N:6][C@@:7]12[H:14]>>[C:1]([C@@:2]1([H:10])[C:3]([H:11])([H:12])[O:4][C:5]([H:13])=[N+:6]=[C-:7]1)([H:8])([H:9])[H:14]"
C       -1.54494433      -0.40023194       0.11078201
C       -0.49936955       0.34160728      -0.69997424
C        0.47527254       1.25139953       0.01938060
O        1.78129968       0.67202893       0.15821440
C        1.76241347      -0.62840981       0.48695484
N        0.87393834      -1.47943218       0.16517895
C       -0.06113885      -1.07997053      -0.80613140
H       -1.42775550      -0.34416127       1.18766439
H       -2.56268547      -0.30621812      -0.25547541
H       -0.88501662       0.76223923      -1.62335879
H        0.12809782       1.50330501       1.02477961
H        0.62870363       2.17536490      -0.53353744
H        2.64750377      -0.92688331       1.04186770
H       -1.31631895      -1.54063772      -0.27634522
14
Frame=2 idx=007389 GeodesicLength=0.12292241584303673 rxn_smarts="[C:1]1([H:8])([H:9])[C@@:2]2([H:10])[C:3]([H:11])([H:12])[O:4][C:5]([H:13])=[N:6][C@@:7]12[H:14]>>[C:1]([C@@:2]1([H:10])[C:3]([H:11])([H:12])[O:4][C:5]([H:13])=[N+:6]=[C-:7]1)([H:8])([H:9])[H:14]"
C       -1.53284402      -0.40970110       0.12174966
C       -0.50499971       0.34519406      -0.69818222
C        0.47515987       1.25583864       0.01030718
O        1.77252610       0.67282364       0.19541677
C        1.74948117      -0.63143209       0.50479224
N        0.88735505      -1.48501028       0.12701841
C       -0.05612951      -1.07068729      -0.82400704
H       -1.39388893      -0.37305807       1.19703335
H       -2.55840824      -0.29324260      -0.21498861
H       -0.90637881       0.77072467      -1.61276095
H        0.11373166       1.54465696       1.00054171
H        0.65037760       2.16055955      -0.56841071
H        2.62429148      -0.93528536       1.07293326
H       -1.32027370      -1.55138075      -0.31144305
14
Frame=3 idx=007389 GeodesicLength=0.18400737515651777 rxn_smarts="[C:1]1([H:8])([H:9])[C@@:2]2([H:10])[C:3]([H:11])([H:12])[O:4][C:5]([H:13])=[N:6][C@@:7]12[H:14]>>[C:1]([C@@:2]1([H:10])[C:3]([H:11])([H:12])[O:4][C:5]([H:13])=[N+:6]=[C-:7]1)([H:8])([H:9])[H:14]"
C       -1.52060753      -0.41914741       0.13249238
C       -0.51069979       0.34879770      -0.69619055
C        0.47487274       1.26023203       0.00164884
O        1.76176969       0.67384128       0.23473769
C        1.73619410      -0.63471228       0.52163020
N        0.90151257      -1.48823921       0.08918644
C       -0.05118796      -1.06117432      -0.84112900
H       -1.36052347      -0.40079219       1.20544012
H       -2.55291230      -0.28195697      -0.17444891
H       -0.92739821       0.77894941      -1.60184562
H        0.09897850       1.58600667       0.97477629
H        0.67324233       2.14387013      -0.60252585
H        2.60088968      -0.94465752       1.10181250
H       -1.32413035      -1.56101733      -0.34558452
14
Frame=4 idx=007389 GeodesicLength=0.2449929140867445 rxn_smarts="[C:1]1([H:8])([H:9])[C@@:2]2([H:10])[C:3]([H:11])([H:12])[O:4][C:5]([H:13])=[N:6][C@@:7]12[H:14]>>[C:1]([C@@:2]1([H:10])[C:3]([H:11])([H:12])[O:4][C:5]([H:13])=[N+:6]=[C-:7]1)([H:8])([H:9])[H:14]"
C       -1.50815273      -0.42862939       0.14312442
C       -0.51654460       0.35245369      -0.69401057
C        0.47451508       1.26456776      -0.00670617
O        1.74898282       0.67501193       0.27562865
C        1.72309765      -0.63824079       0.53651482
N        0.91649641      -1.48913644       0.05129492
C       -0.04639901      -1.05141200      -0.85775967
H       -1.32729810      -0.42765494       1.21306081
H       -2.54625864      -0.27224117      -0.13353209
H       -0.94830379       0.78705491      -1.59054905
H        0.08437575       1.62718349       0.94750320
H        0.69724673       2.12525257      -0.63583164
H        2.57619417      -0.95454900       1.13022182
H       -1.32795173      -1.56966061      -0.37895944
14
Frame=5 idx=007389 GeodesicLength=0.30583250354344615 rxn_smarts="[C:1]1([H:8])([H:9])[C@@:2]2([H:10])[C:3]([H:11])([H:12])[O:4][C:5]([H:13])=[N:6][C@@:7]12[H:14]>>[C:1]([C@@:2]1([H:10])[C:3]([H:11])([H:12])[O:4][C:5]([H:13])=[N+:6]=[C-:7]1)([H:8])([H:9])[H:14]"
C       -1.49589591      -0.43794791       0.15340705
C       -0.52247041       0.35605279      -0.69162645
C        0.47397542       1.26883686      -0.01451347
O        1.73388491       0.67636267       0.31848026
C        1.71035019      -0.64182523       0.55007913
N        0.93185014      -1.48770409       0.01463043
C       -0.04174741      -1.04164929      -0.87332443
H       -1.29504307      -0.45331439       1.21982043
H       -2.53875941      -0.26386062      -0.09323345
H       -0.96861656       0.79479460      -1.57917366
H        0.06965510       1.66815868       0.91881617
H        0.72241678       2.10470156      -0.66781569
H        2.55233085      -0.96512654       1.15576955
H       -1.33193062      -1.57747909      -0.41131587
14
Frame=6 idx=007389 GeodesicLength=0.36650281678850083 rxn_smarts="[C:1]1([H:8])([H:9])[C@@:2]2([H:10])[C:3]([H:11])([H:12])[O:4][C:5]([H:13])=[N:6][C@@:7]12[H:14]>>[C:1]([C@@:2]1([H:10])[C:3]([H:11])([H:12])[O:4][C:5]([H:13])=[N+:6]=[C-:7]1)([H:8])([H:9])[H:14]"
C       -1.48371534      -0.44710312       0.16344626
C       -0.52844559       0.35957656      -0.68900870
C        0.47328293       1.27291175      -0.02184781
O        1.71629552       0.67774427       0.36268077
C        1.69833327      -0.64527983       0.56156101
N        0.94754944      -1.48392811      -0.02108323
C       -0.03720505      -1.03179841      -0.88798885
H       -1.26347242      -0.47803285       1.22582751
H       -2.53033617      -0.25658700      -0.05318036
H       -0.98831756       0.80218185      -1.56762436
H        0.05523522       1.70861993       0.88879074
H        0.74858134       2.08195127      -0.69836791
H        2.52824638      -0.97587213       1.17968472
H       -1.33603197      -1.58438418      -0.44288979
14
Frame=7 idx=007389 GeodesicLength=0.4269284493562845 rxn_smarts="[C:1]1([H:8])([H:9])[C@@:2]2([H:10])[C:3]([H:11])([H:12])[O:4][C:5]([H:13])=[N:6][C@@:7]12[H:14]>>[C:1]([C@@:2]1([H:10])[C:3]([H:11])([H:12])[O:4][C:5]([H:13])=[N+:6]=[C-:7]1)([H:8])([H:9])[H:14]"
C       -1.47212579      -0.45587420       0.17297982
C       -0.53444528       0.36292426      -0.68618831
C        0.47235874       1.27677485      -0.02846515
O        1.69600620       0.67901561       0.40843175
C        1.68704690      -0.64845495       0.57197285
N        0.96310303      -1.47808038      -0.05455875
C       -0.03282047      -1.02218272      -0.90120089
H       -1.23346904      -0.50147132       1.23100968
H       -2.52147103      -0.25010793      -0.01445561
H       -1.00698522       0.80901157      -1.55631559
H        0.04100556       1.74847206       0.85759294
H        0.77569387       2.05721541      -0.72684796
H        2.50663615      -0.98666816       1.19955980
H       -1.34053362      -1.59057410      -0.47351458
14
Frame=8 idx=007389 GeodesicLength=0.4873212831455288 rxn_smarts="[C:1]1([H:8])([H:9])[C@@:2]2([H:10])[C:3]([H:11])([H:12])[O:4][C:5]([H:13])=[N:6][C@@:7]12[H:14]>>[C:1]([C@@:2]1([H:10])[C:3]([H:11])([H:12])[O:4][C:5]([H:13])=[N+:6]=[C-:7]1)([H:8])([H:9])[H:14]"
C       -1.46101624      -0.46436319       0.18215088
C       -0.54051666       0.36614206      -0.68316759
C        0.47131474       1.28042809      -0.03453164
O        1.67305998       0.68005243       0.45506994
C        1.67685502      -0.65120578       0.58073064
N        0.97863543      -1.47033592      -0.08637427
C       -0.02860486      -1.01274638      -0.91329627
H       -1.20461961      -0.52406844       1.23548832
H       -2.51219385      -0.24428052       0.02348058
H       -1.02489668       0.81546161      -1.54510003
H        0.02743969       1.78761591       0.82522740
H        0.80367649       2.03046482      -0.75327083
H        2.48631286      -0.99708048       1.21709349
H       -1.34544632      -1.59608420      -0.50350063
14
Frame=9 idx=007389 GeodesicLength=0.5477118598098242 rxn_smarts="[C:1]1([H:8])([H:9])[C@@:2]2([H:10])[C:3]([H:11])([H:12])[O:4][C:5]([H:13])=[N:6][C@@:7]12[H:14]>>[C:1]([C@@:2]1([H:10])[C:3]([H:11])([H:12])[O:4][C:5]([H:13])=[N+:6]=[C-:7]1)([H:8])([H:9])[H:14]"
C       -1.45044510      -0.47253768       0.19094642
C       -0.54664342       0.36920514      -0.67996343
C        0.47017338       1.28382088      -0.04006901
O        1.64745866       0.68070802       0.50214227
C        1.66781743      -0.65335137       0.58796311
N        0.99399852      -1.46087283      -0.11638858
C       -0.02456729      -1.00354587      -0.92425766
H       -1.17695904      -0.54594512       1.23928507
H       -2.50257696      -0.23889014       0.06058729
H       -1.04200564       0.82152312      -1.53404517
H        0.01478106       1.82583056       0.79182412
H        0.83233392       2.00178838      -0.77740361
H        2.46745526      -1.00680417       1.23235380
H       -1.35082078      -1.60092892      -0.53297461
14
Frame=10 idx=007389 GeodesicLength=0.6080325832685918 rxn_smarts="[C:1]1([H:8])([H:9])[C@@:2]2([H:10])[C:3]([H:11])([H:12])[O:4][C:5]([H:13])=[N:6][C@@:7]12[H:14]>>[C:1]([C@@:2]1([H:10])[C:3]([H:11])([H:12])[O:4][C:5]([H:13])=[N+:6]=[C-:7]1)([H:8])([H:9])[H:14]"
C       -1.44068510      -0.48027420       0.19924430
C       -0.55276759       0.37203745      -0.67661591
C        0.46893440       1.28686216      -0.04498024
O        1.61927950       0.68075776       0.54914737
C        1.65976761      -0.65477291       0.59428350
N        1.00888695      -1.44999769      -0.14400262
C       -0.02070899      -0.99476445      -0.93385752
H       -1.15094608      -0.56698464       1.24237812
H       -2.49289057      -0.23364816       0.09640171
H       -1.05802708       0.82707536      -1.52339971
H        0.00326141       1.86275696       0.75775935
H        0.86134724       1.97145808      -0.79882917
H        2.45135375      -1.01536026       1.24446208
H       -1.35680545      -1.60514546      -0.56199126
14
Frame=11 idx=007389 GeodesicLength=0.668405935501977 rxn_smarts="[C:1]1([H:8])([H:9])[C@@:2]2([H:10])[C:3]([H:11])([H:12])[O:4][C:5]([H:13])=[N:6][C@@:7]12[H:14]>>[C:1]([C@@:2]1([H:10])[C:3]([H:11])([H:12])[O:4][C:5]([H:13])=[N+:6]=[C-:7]1)([H:8])([H:9])[H:14]"
C       -1.43178473      -0.48759634       0.20704316
C       -0.55889611       0.37462896      -0.67316400
C        0.46767221       1.28954423      -0.04932277
O        1.58887879       0.68007845       0.59545271
C        1.65264872      -0.65541192       0.59989285
N        1.02323514      -1.43801129      -0.16924302
C       -0.01704954      -0.98649024      -0.94217804
H       -1.12654740      -0.58734409       1.24479442
H       -2.48324616      -0.22838184       0.13097798
H       -1.07304872       0.83215962      -1.51320758
H       -0.00681688       1.89820336       0.72330515
H        0.89041227       1.93980631      -0.81746302
H        2.43802123      -1.02239667       1.25387214
H       -1.36347883      -1.60878853      -0.59075997
14
Frame=12 idx=007389 GeodesicLength=0.7290309321220987 rxn_smarts="[C:1]1([H:8])([H:9])[C@@:2]2([H:10])[C:3]([H:11])([H:12])[O:4][C:5]([H:13])=[N:6][C@@:7]12[H:14]>>[C:1]([C@@:2]1([H:10])[C:3]([H:11])([H:12])[O:4][C:5]([H:13])=[N+:6]=[C-:7]1)([H:8])([H:9])[H:14]"
C       -1.42327369      -0.49474852       0.21459706
C       -0.56504683       0.37707545      -0.66963071
C        0.46653697       1.29196513      -0.05345586
O        1.55692751       0.67875553       0.63975674
C        1.64674449      -0.65506957       0.60405217
N        1.03737452      -1.42485581      -0.19316656
C       -0.01356701      -0.97848639      -0.94977604
H       -1.10281801      -0.60760182       1.24665496
H       -2.47321800      -0.22328728       0.16527301
H       -1.08756029       0.83700767      -1.50317192
H       -0.01487350       1.93196417       0.68873295
H        0.91895040       1.90723367      -0.83383047
H        2.42447615      -1.02815140       1.26352355
H       -1.37065271      -1.61180084      -0.61955889
14
Frame=13 idx=007389 GeodesicLength=0.7896990952692602 rxn_smarts="[C:1]1([H:8])([H:9])[C@@:2]2([H:10])[C:3]([H:11])([H:12])[O:4][C:5]([H:13])=[N:6][C@@:7]12[H:14]>>[C:1]([C@@:2]1([H:10])[C:3]([H:11])([H:12])[O:4][C:5]([H:13])=[N+:6]=[C-:7]1)([H:8])([H:9])[H:14]"
C       -1.41544023      -0.50146669       0.22173555
C       -0.57106636       0.37921713      -0.66599459
C        0.46542979       1.29388126      -0.05720701
O        1.52370735       0.67663637       0.68185753
C        1.64136778      -0.65383986       0.60776282
N        1.05093853      -1.41087182      -0.21494192
C       -0.01011064      -0.97095345      -0.95623621
H       -1.08049290      -0.62724373       1.24784787
H       -2.46305995      -0.21799295       0.19858458
H       -1.10105608       0.84130117      -1.49344573
H       -0.02122141       1.96355791       0.65439455
H        0.94667735       1.87401863      -0.84748210
H        2.41260545      -1.03216448       1.27141706
H       -1.37827868      -1.61407949      -0.64829240
14
Frame=14 idx=007389 GeodesicLength=0.8505832239615772 rxn_smarts="[C:1]1([H:8])([H:9])[C@@:2]2([H:10])[C:3]([H:11])([H:12])[O:4][C:5]([H:13])=[N:6][C@@:7]12[H:14]>>[C:1]([C@@:2]1([H:10])[C:3]([H:11])([H:12])[O:4][C:5]([H:13])=[N+:6]=[C-:7]1)([H:8])([H:9])[H:14]"
C       -1.40811720      -0.50799683       0.22855894
C       -0.57704755       0.38115594      -0.66237360
C        0.46448688       1.29557515      -0.06079003
O        1.49011137       0.67396356       0.72100879
C        1.63672243      -0.65178839       0.61097927
N        1.06407972      -1.39631011      -0.23505939
C       -0.00678954      -0.96390037      -0.96194121
H       -1.05903639      -0.64664063       1.24852472
H       -2.45269134      -0.21269952       0.23132826
H       -1.11400144       0.84528082      -1.48408783
H       -0.02548360       1.99314144       0.62072976
H        0.97306863       1.84092333      -0.85902485
H        2.40118065      -1.03487786       1.27939998
H       -1.38648262      -1.61582651      -0.67725281
14
Frame=15 idx=007389 GeodesicLength=0.9116059544386814 rxn_smarts="[C:1]1([H:8])([H:9])[C@@:2]2([H:10])[C:3]([H:11])([H:12])[O:4][C:5]([H:13])=[N:6][C@@:7]12[H:14]>>[C:1]([C@@:2]1([H:10])[C:3]([H:11])([H:12])[O:4][C:5]([H:13])=[N+:6]=[C-:7]1)([H:8])([H:9])[H:14]"
C       -1.40130501      -0.51427075       0.23506249
C       -0.58291212       0.38283898      -0.65874885
C        0.46365962       1.29695017      -0.06419564
O        1.45642168       0.67077038       0.75718908
C        1.63240937      -0.64904297       0.61410418
N        1.07672372      -1.38130379      -0.25343323
C       -0.00351111      -0.95732937      -0.96682678
H       -1.03858196      -0.66563566       1.24868179
H       -2.44209472      -0.20729788       0.26340561
H       -1.12625681       0.84885063      -1.47506834
H       -0.02792901       2.02059114       0.58790752
H        0.99796679       1.80806176      -0.86859034
H        2.39055499      -1.03624364       1.28696962
H       -1.39514541      -1.61693898      -0.70645710
14
Frame=16 idx=007389 GeodesicLength=0.9727162824994466 rxn_smarts="[C:1]1([H:8])([H:9])[C@@:2]2([H:10])[C:3]([H:11])([H:12])[O:4][C:5]([H:13])=[N:6][C@@:7]12[H:14]>>[C:1]([C@@:2]1([H:10])[C:3]([H:11])([H:12])[O:4][C:5]([H:13])=[N+:6]=[C-:7]1)([H:8])([H:9])[H:14]"
C       -1.39511951      -0.52026081       0.24120939
C       -0.58863952       0.38424548      -0.65515004
C        0.46293378       1.29798697      -0.06737536
O        1.42285733       0.66711503       0.79064105
C        1.62806620      -0.64584118       0.61764970
N        1.08873671      -1.36610500      -0.26988036
C       -0.00028643      -0.95131090      -0.97083537
H       -1.01935790      -0.68412718       1.24837104
H       -2.43140533      -0.20170275       0.29461075
H       -1.13773909       0.85199966      -1.46649496
H       -0.02877356       2.04595939       0.55606635
H        1.02136597       1.77558591      -0.87630800
H        2.38166951      -1.03611380       1.29347222
H       -1.40430817      -1.61743081      -0.73597640
