16
Frame=0 idx=002555 GeodesicLength=0.0 rxn_smarts="[C:1]([C:2]([C:3]([H:11])([H:12])[H:13])([C@@:4]1([H:14])[C:5]([H:15])([H:16])[O:6]1)[H:10])([H:7])([H:8])[H:9]>>[C:1]([C:2]([C:3]([H:11])([H:12])[H:13])=[C:4]([C:5]([O:6][H:10])([H:15])[H:16])[H:14])([H:7])([H:8])[H:9]"
C       -0.48120461       1.38093093      -0.60114623
C       -0.35392992      -0.08097083      -0.23155591
C       -1.47142220      -0.96931960      -0.72264862
C        0.87648411      -0.65671857       0.11464228
C        1.81509796       0.05848866       1.00539562
O        0.95772657      -0.27087081       2.05515583
H        0.28889077       2.00007799      -0.14465232
H       -1.45149056       1.76804917      -0.28613459
H       -0.41573489       1.50346813      -1.68600165
H       -0.18390248      -0.13249311       1.07960564
H       -2.43642254      -0.63011746      -0.33967202
H       -1.33332861      -2.00578279      -0.41231461
H       -1.53355758      -0.94752787      -1.81473241
H        0.98326379      -1.73632576       0.10077080
H        2.80237375      -0.41043004       1.07662660
H        1.93715640       1.12954202       0.80666155
16
Frame=1 idx=002555 GeodesicLength=0.07296954644520572 rxn_smarts="[C:1]([C:2]([C:3]([H:11])([H:12])[H:13])([C@@:4]1([H:14])[C:5]([H:15])([H:16])[O:6]1)[H:10])([H:7])([H:8])[H:9]>>[C:1]([C:2]([C:3]([H:11])([H:12])[H:13])=[C:4]([C:5]([O:6][H:10])([H:15])[H:16])[H:14])([H:7])([H:8])[H:9]"
C       -0.48291049       1.38061086      -0.60738039
C       -0.36185204      -0.07634668      -0.21717041
C       -1.47331567      -0.96755273      -0.71776159
C        0.87402357      -0.65062912       0.11680755
C        1.81996112       0.05648652       1.00541767
O        0.96812487      -0.29924363       2.05288878
H        0.28378713       2.00476089      -0.15181604
H       -1.45572620       1.77292797      -0.30660236
H       -0.40698282       1.49041561      -1.69293572
H       -0.19132925      -0.12587308       1.11276203
H       -2.44266509      -0.62451947      -0.34932164
H       -1.34039266      -2.00227114      -0.39956764
H       -1.52229874      -0.95351805      -1.81064558
H        0.99270701      -1.72806230       0.07166060
H        2.80886487      -0.40944048       1.06451409
H        1.93000439       1.13225482       0.82915065
16
Frame=2 idx=002555 GeodesicLength=0.14585089495507547 rxn_smarts="[C:1]([C:2]([C:3]([H:11])([H:12])[H:13])([C@@:4]1([H:14])[C:5]([H:15])([H:16])[O:6]1)[H:10])([H:7])([H:8])[H:9]>>[C:1]([C:2]([C:3]([H:11])([H:12])[H:13])=[C:4]([C:5]([O:6][H:10])([H:15])[H:16])[H:14])([H:7])([H:8])[H:9]"
C       -0.48450155       1.38013758      -0.61379625
C       -0.36954272      -0.07162939      -0.20306289
C       -1.47510414      -0.96575259      -0.71267176
C        0.87175846      -0.64447346       0.11857793
C        1.82455527       0.05443397       1.00560263
O        0.97768971      -0.32757308       2.04970799
H        0.27895293       2.00929884      -0.15950436
H       -1.45959913       1.77745348      -0.32694887
H       -0.39850648       1.47720629      -1.69982989
H       -0.19844215      -0.11904782       1.14623763
H       -2.44847756      -0.61911856      -0.35833667
H       -1.34717014      -1.99868852      -0.38684228
H       -1.51146813      -0.95942684      -1.80612341
H        1.00212151      -1.71870197       0.04174795
H        2.81492778      -0.40845737       1.05312247
H        1.92280635       1.13433944       0.85211980
16
Frame=3 idx=002555 GeodesicLength=0.21865367460792962 rxn_smarts="[C:1]([C:2]([C:3]([H:11])([H:12])[H:13])([C@@:4]1([H:14])[C:5]([H:15])([H:16])[O:6]1)[H:10])([H:7])([H:8])[H:9]>>[C:1]([C:2]([C:3]([H:11])([H:12])[H:13])=[C:4]([C:5]([O:6][H:10])([H:15])[H:16])[H:14])([H:7])([H:8])[H:9]"
C       -0.48599774       1.37951849      -0.62036907
C       -0.37697705      -0.06682530      -0.18926448
C       -1.47677217      -0.96392775      -0.70740772
C        0.86970538      -0.63825921       0.11993162
C        1.82889875       0.05231910       1.00593481
O        0.98637709      -0.35572227       2.04560678
H        0.27436130       2.01368921      -0.16766709
H       -1.46314799       1.78160986      -0.34712128
H       -0.39033432       1.46388774      -1.70666834
H       -0.20523071      -0.11202985       1.18004187
H       -2.45386377      -0.61393133      -0.36672259
H       -1.35362592      -1.99505012      -0.37417316
H       -1.50105926      -0.96524538      -1.80121493
H        1.01146539      -1.70823630       0.01115519
H        2.82056654      -0.40755415       1.04250880
H        1.91563447       1.13575727       0.87542959
16
Frame=4 idx=002555 GeodesicLength=0.2913925515801952 rxn_smarts="[C:1]([C:2]([C:3]([H:11])([H:12])[H:13])([C@@:4]1([H:14])[C:5]([H:15])([H:16])[O:6]1)[H:10])([H:7])([H:8])[H:9]>>[C:1]([C:2]([C:3]([H:11])([H:12])[H:13])=[C:4]([C:5]([O:6][H:10])([H:15])[H:16])[H:14])([H:7])([H:8])[H:9]"
C       -0.48741992       1.37876306      -0.62707482
C       -0.38413341      -0.06194238      -0.17580617
C       -1.47830557      -0.96208720      -0.70200120
C        0.86788028      -0.63199493       0.12084901
C        1.83300995       0.05013025       1.00639564
O        0.99415330      -0.38356246       2.04058923
H        0.26998261       2.01793253      -0.17625285
H       -1.46641233       1.78538457      -0.36707169
H       -0.38249260       1.45051012      -1.71343702
H       -0.21168533      -0.10483267       1.21418916
H       -2.45882973      -0.60897253      -0.37449279
H       -1.35973008      -1.99137176      -0.36159511
H       -1.49106353      -0.97096393      -1.79597165
H        1.02069761      -1.69667409      -0.01998205
H        2.82578842      -0.40680134       1.03271722
H        1.90856033       1.13648276       0.89894510
16
Frame=5 idx=002555 GeodesicLength=0.364078418158666 rxn_smarts="[C:1]([C:2]([C:3]([H:11])([H:12])[H:13])([C@@:4]1([H:14])[C:5]([H:15])([H:16])[O:6]1)[H:10])([H:7])([H:8])[H:9]>>[C:1]([C:2]([C:3]([H:11])([H:12])[H:13])=[C:4]([C:5]([O:6][H:10])([H:15])[H:16])[H:14])([H:7])([H:8])[H:9]"
C       -0.48879032       1.37788380      -0.63389101
C       -0.39099260      -0.05698716      -0.16271727
C       -1.47968930      -0.96023943      -0.69648544
C        0.86629308      -0.62568424       0.12131884
C        1.83690842       0.04785504       1.00696653
O        1.00099310      -0.41097138       2.03467231
H        0.26578297       2.02203457      -0.18521126
H       -1.46943797       1.78877004      -0.38675747
H       -0.37500602       1.43712442      -1.72012497
H       -0.21779683      -0.09747956       1.24870082
H       -2.46338274      -0.60425323      -0.38167032
H       -1.36545628      -1.98766709      -0.34913787
H       -1.48146141      -0.97657843      -1.79044584
H        1.02977699      -1.68402795      -0.05152613
H        2.83060528      -0.40627911       1.02377864
H        1.90165363       1.13649974       0.92253044
16
Frame=6 idx=002555 GeodesicLength=0.436729338545313 rxn_smarts="[C:1]([C:2]([C:3]([H:11])([H:12])[H:13])([C@@:4]1([H:14])[C:5]([H:15])([H:16])[O:6]1)[H:10])([H:7])([H:8])[H:9]>>[C:1]([C:2]([C:3]([H:11])([H:12])[H:13])=[C:4]([C:5]([O:6][H:10])([H:15])[H:16])[H:14])([H:7])([H:8])[H:9]"
C       -0.49013129       1.37689392      -0.64079745
C       -0.39753838      -0.05196726      -0.15002351
C       -1.48091103      -0.95839231      -0.69089160
C        0.86496098      -0.61932937       0.12131793
C        1.84061453       0.04548307       1.00762506
O        1.00686716      -0.43784303       2.02787346
H        0.26172887       2.02600355      -0.19449714
H       -1.47226529       1.79176261      -0.40613628
H       -0.36789863       1.42377983      -1.72672483
H       -0.22355320      -0.08998236       1.28359935
H       -2.46752996      -0.59978273      -0.38827986
H       -1.37078341      -1.98394880      -0.33682708
H       -1.47223378      -0.98208528      -1.78468721
H        1.03866989      -1.67033874      -0.08333903
H        2.83502785      -0.40605797       1.01571755
H        1.89497568       1.13580486       0.94607066
16
Frame=7 idx=002555 GeodesicLength=0.5093529827405596 rxn_smarts="[C:1]([C:2]([C:3]([H:11])([H:12])[H:13])([C@@:4]1([H:14])[C:5]([H:15])([H:16])[O:6]1)[H:10])([H:7])([H:8])[H:9]>>[C:1]([C:2]([C:3]([H:11])([H:12])[H:13])=[C:4]([C:5]([O:6][H:10])([H:15])[H:16])[H:14])([H:7])([H:8])[H:9]"
C       -0.49146560       1.37580885      -0.64777538
C       -0.40375804      -0.04688932      -0.13774895
C       -1.48195854      -0.95655326      -0.68525266
C        0.86389313      -0.61293061       0.12083336
C        1.84415040       0.04300389       1.00835083
O        1.01174752      -0.46407299       2.02022307
H        0.25778493       2.02985084      -0.20406603
H       -1.47494072       1.79436317      -0.42517207
H       -0.36119381       1.41052551      -1.73323137
H       -0.22893714      -0.08236981       1.31891343
H       -2.47128182      -0.59556705      -0.39435345
H       -1.37569496      -1.98022759      -0.32468630
H       -1.46335556      -0.98748401      -1.77874630
H        1.04734365      -1.65564622      -0.11528629
H        2.83907846      -0.40621448       1.00855338
H        1.88858813       1.13440308       0.96944472
16
Frame=8 idx=002555 GeodesicLength=0.5819747297085903 rxn_smarts="[C:1]([C:2]([C:3]([H:11])([H:12])[H:13])([C@@:4]1([H:14])[C:5]([H:15])([H:16])[O:6]1)[H:10])([H:7])([H:8])[H:9]>>[C:1]([C:2]([C:3]([H:11])([H:12])[H:13])=[C:4]([C:5]([O:6][H:10])([H:15])[H:16])[H:14])([H:7])([H:8])[H:9]"
C       -0.49281368       1.37464382      -0.65481242
C       -0.40964104      -0.04175885      -0.12591715
C       -1.48282103      -0.95472847      -0.67959844
C        0.86309956      -0.60648406       0.11984895
C        1.84753351       0.04040800       1.00912429
O        1.01562261      -0.48959166       2.01174827
H        0.25391759       2.03359005      -0.21388361
H       -1.47750083       1.79657708      -0.44383629
H       -0.35491136       1.39740472      -1.73964476
H       -0.23393277      -0.07465474       1.35468187
H       -2.47464402      -0.59160832      -0.39992351
H       -1.38017827      -1.97651089      -0.31273210
H       -1.45480037      -0.99277841      -1.77266613
H        1.05577234      -1.64001047      -0.14724216
H        2.84276390      -0.40680830       1.00228671
H        1.88253387       1.13231050       0.99256648
16
Frame=9 idx=002555 GeodesicLength=0.654637278474436 rxn_smarts="[C:1]([C:2]([C:3]([H:11])([H:12])[H:13])([C@@:4]1([H:14])[C:5]([H:15])([H:16])[O:6]1)[H:10])([H:7])([H:8])[H:9]>>[C:1]([C:2]([C:3]([H:11])([H:12])[H:13])=[C:4]([C:5]([O:6][H:10])([H:15])[H:16])[H:14])([H:7])([H:8])[H:9]"
C       -0.49418540       1.37342084      -0.66191490
C       -0.41519220      -0.03657874      -0.11457464
C       -1.48350255      -0.95291892      -0.67396884
C        0.86255900      -0.59999526       0.11841746
C        1.85076137       0.03769430       1.00993396
O        1.01865063      -0.51444577       2.00250146
H        0.25010078       2.03724054      -0.22393025
H       -1.47997243       1.79842846      -0.46214423
H       -0.34903786       1.38446121      -1.74597922
H       -0.23853803      -0.06682823       1.39098148
H       -2.47763358      -0.58788943      -0.40505040
H       -1.38425192      -1.97279776      -0.30098296
H       -1.44653877      -0.99797601      -1.76649200
H        1.06393834      -1.62356530      -0.17903744
H        2.84608345      -0.40781877       0.99680393
H        1.87675918       1.12956884       1.01543658
16
Frame=10 idx=002555 GeodesicLength=0.7272976822830557 rxn_smarts="[C:1]([C:2]([C:3]([H:11])([H:12])[H:13])([C@@:4]1([H:14])[C:5]([H:15])([H:16])[O:6]1)[H:10])([H:7])([H:8])[H:9]>>[C:1]([C:2]([C:3]([H:11])([H:12])[H:13])=[C:4]([C:5]([O:6][H:10])([H:15])[H:16])[H:14])([H:7])([H:8])[H:9]"
C       -0.49561389       1.37215190      -0.66905324
C       -0.42039831      -0.03135640      -0.10371111
C       -1.48398451      -0.95113463      -0.66838482
C        0.86230148      -0.59344704       0.11647364
C        1.85387024       0.03484960       1.01075445
O        1.02064034      -0.53841279       1.99251404
H        0.24629408       2.04081483      -0.23416217
H       -1.48240877       1.79991306      -0.48003018
H       -0.34361909       1.37173394      -1.75222639
H       -0.24269735      -0.05897336       1.42782589
H       -2.48025916      -0.58443101      -0.40974690
H       -1.38788521      -1.96910220      -0.28945659
H       -1.43854332      -1.00307262      -1.76026851
H        1.07182888      -1.60632133      -0.21062787
H        2.84906650      -0.40939640       0.99222563
H        1.87140809       1.12618444       1.03787412
16
Frame=11 idx=002555 GeodesicLength=0.7999666977732982 rxn_smarts="[C:1]([C:2]([C:3]([H:11])([H:12])[H:13])([C@@:4]1([H:14])[C:5]([H:15])([H:16])[O:6]1)[H:10])([H:7])([H:8])[H:9]>>[C:1]([C:2]([C:3]([H:11])([H:12])[H:13])=[C:4]([C:5]([O:6][H:10])([H:15])[H:16])[H:14])([H:7])([H:8])[H:9]"
C       -0.49711556       1.37085518      -0.67622448
C       -0.42525841      -0.02609458      -0.09334144
C       -1.48426058      -0.94938019      -0.66287238
C        0.86232880      -0.58682823       0.11402150
C        1.85687245       0.03186618       1.01157165
O        1.02160229      -0.56144402       1.98183063
H        0.24247062       2.04433109      -0.24456077
H       -1.48484548       1.80104712      -0.49748166
H       -0.33866544       1.35925818      -1.75839900
H       -0.24639355      -0.05111245       1.46527398
H       -2.48253289      -0.58123312      -0.41404937
H       -1.39107269      -1.96542842      -0.27816274
H       -1.43078315      -1.00807153      -1.75403434
H        1.07944070      -1.58835744      -0.24192214
H        2.85171403      -0.41159572       0.98852730
H        1.86649885       1.12218793       1.05982327
16
Frame=12 idx=002555 GeodesicLength=0.8726343574770047 rxn_smarts="[C:1]([C:2]([C:3]([H:11])([H:12])[H:13])([C@@:4]1([H:14])[C:5]([H:15])([H:16])[O:6]1)[H:10])([H:7])([H:8])[H:9]>>[C:1]([C:2]([C:3]([H:11])([H:12])[H:13])=[C:4]([C:5]([O:6][H:10])([H:15])[H:16])[H:14])([H:7])([H:8])[H:9]"
C       -0.49870699       1.36954704      -0.68342596
C       -0.42977655      -0.02079641      -0.08347684
C       -1.48432880      -0.94765831      -0.65745794
C        0.86263720      -0.58013028       0.11106660
C        1.85977993       0.02874076       1.01237012
O        1.02154151      -0.58348615       1.97050419
H        0.23860265       2.04780636      -0.25510754
H       -1.48731588       1.80184939      -0.51449030
H       -0.33418292       1.34706338      -1.76450980
H       -0.24959530      -0.04328943       1.50338573
H       -2.48446978      -0.57829185      -0.41799847
H       -1.39381793      -1.96177882      -0.26711352
H       -1.42322862      -1.01297528      -1.74782645
H        1.08676874      -1.56976041      -0.27283960
H        2.85403956      -0.41446026       0.98568870
H        1.86205317       1.11762028       1.08123108
16
Frame=13 idx=002555 GeodesicLength=0.9452972476281716 rxn_smarts="[C:1]([C:2]([C:3]([H:11])([H:12])[H:13])([C@@:4]1([H:14])[C:5]([H:15])([H:16])[O:6]1)[H:10])([H:7])([H:8])[H:9]>>[C:1]([C:2]([C:3]([H:11])([H:12])[H:13])=[C:4]([C:5]([O:6][H:10])([H:15])[H:16])[H:14])([H:7])([H:8])[H:9]"
C       -0.50040319       1.36824408      -0.69065923
C       -0.43395901      -0.01546221      -0.07412532
C       -1.48418616      -0.94597092      -0.65216537
C        0.86321927      -0.57333978       0.10762021
C        1.86260211       0.02547168       1.01313604
O        1.02046938      -0.60450004       1.95858614
H        0.23466431       2.05125870      -0.26578985
H       -1.48985098       1.80234071      -0.53105710
H       -0.33017297       1.33517345      -1.77057423
H       -0.25226762      -0.03554944       1.54223377
H       -2.48608405      -0.57560190      -0.42163451
H       -1.39612406      -1.95815324      -0.25631524
H       -1.41584647      -1.01778983      -1.74167886
H        1.09381144      -1.55060842      -0.30331203
H        2.85604765      -0.41803334       0.98367899
H        1.85808035       1.11252049       1.10205659
16
Frame=14 idx=002555 GeodesicLength=1.0179520870640668 rxn_smarts="[C:1]([C:2]([C:3]([H:11])([H:12])[H:13])([C@@:4]1([H:14])[C:5]([H:15])([H:16])[O:6]1)[H:10])([H:7])([H:8])[H:9]>>[C:1]([C:2]([C:3]([H:11])([H:12])[H:13])=[C:4]([C:5]([O:6][H:10])([H:15])[H:16])[H:14])([H:7])([H:8])[H:9]"
C       -0.50221524       1.36696052      -0.69792866
C       -0.43781622      -0.01009250      -0.06529434
C       -1.48383456      -0.94431869      -0.64701740
C        0.86406701      -0.56644913       0.10369489
C        1.86534505       0.02205906       1.01385751
O        1.01840182      -0.62445378       1.94612425
H        0.23063318       2.05470455      -0.27659759
H       -1.49247511       1.80254184      -0.54719057
H       -0.32663074       1.32360743      -1.77660773
H       -0.25436663      -0.02794106       1.58189714
H       -2.48739016      -0.57315644      -0.42499700
H       -1.39800109      -1.95455012      -0.24577444
H       -1.40860971      -1.02251950      -1.73562047
H        1.10057305      -1.53098281      -0.33328340
H        2.85773807      -0.42233984       0.98246504
H        1.85458129       1.10693047       1.12227277
16
Frame=15 idx=002555 GeodesicLength=1.0905883122351896 rxn_smarts="[C:1]([C:2]([C:3]([H:11])([H:12])[H:13])([C@@:4]1([H:14])[C:5]([H:15])([H:16])[O:6]1)[H:10])([H:7])([H:8])[H:9]>>[C:1]([C:2]([C:3]([H:11])([H:12])[H:13])=[C:4]([C:5]([O:6][H:10])([H:15])[H:16])[H:14])([H:7])([H:8])[H:9]"
C       -0.50415261       1.36570979      -0.70524301
C       -0.44136253      -0.00468534      -0.05698793
C       -1.48327776      -0.94270091      -0.64203464
C        0.86516389      -0.55944855       0.09931422
C        1.86801160       0.01850620       1.01452497
O        1.01536246      -0.64332335       1.93317121
H        0.22648818       2.05815952      -0.28752499
H       -1.49520977       1.80247534      -0.56291063
H       -0.32354344       1.31237623      -1.78262950
H       -0.25583725      -0.02052972       1.62246577
H       -2.48840648      -0.57094510      -0.42812800
H       -1.39946250      -1.95096541      -0.23549387
H       -1.40149014      -1.02717046      -1.72967835
H        1.10705842      -1.51095049      -0.36271181
H        2.85910931      -0.42739958       0.98200613
H        1.85154861       1.10089183       1.14186043
16
Frame=16 idx=002555 GeodesicLength=1.1631982576870936 rxn_smarts="[C:1]([C:2]([C:3]([H:11])([H:12])[H:13])([C@@:4]1([H:14])[C:5]([H:15])([H:16])[O:6]1)[H:10])([H:7])([H:8])[H:9]>>[C:1]([C:2]([C:3]([H:11])([H:12])[H:13])=[C:4]([C:5]([O:6][H:10])([H:15])[H:16])[H:14])([H:7])([H:8])[H:9]"
C       -0.50622225       1.36450392      -0.71261323
C       -0.44461282       0.00076118      -0.04921066
C       -1.48252079      -0.94111593      -0.63723723
C        0.86649559      -0.55233042       0.09449854
C        1.87060038       0.01481800       1.01512940
O        1.01137582      -0.66108725       1.91977525
H        0.22221099       2.06163841      -0.29856921
H       -1.49807221       1.80216315      -0.57823829
H       -0.32089669       1.30148830      -1.78865905
H       -0.25661773      -0.01338296       1.66403678
H       -2.48914947      -0.56895670      -0.43106756
H       -1.40052303      -1.94739422      -0.22547734
H       -1.39446225      -1.03174703      -1.72387753
H        1.11327335      -1.49058282      -0.39155821
H        2.86015176      -0.43322302       0.98226168
H        1.84896933       1.09444739       1.16080666
