15
Frame=0 idx=006881 GeodesicLength=0.0 rxn_smarts="[C:1]([C:2]1([O:5][C:6](=[O:7])[H:15])[C:3]([H:11])([H:12])[C:4]1([H:13])[H:14])([H:8])([H:9])[H:10]>>[C:1]([C:2]1=[C:4]([H:13])[C:3]1([H:11])[H:12])([H:8])([H:9])[H:10].[O:5]=[C:6]([O:7][H:14])[H:15]"
C       -0.54097087       1.79334232      -0.21571822
C       -0.50200983       0.32971118      -0.10835132
C       -1.02268127      -0.81284768      -0.86231359
C       -0.91004764      -0.71935291       0.65745809
O        1.59935427       0.22297390      -0.24228788
C        2.09923425      -0.70117160       0.41377431
O        1.46131424      -1.67135141       0.93405975
H        0.04829977       2.14336621      -1.06040042
H       -0.19861566       2.27012153       0.70110661
H       -1.58759816       2.06825024      -0.38419897
H       -1.95510937      -0.64175938      -1.39698582
H       -0.34167396      -1.49835050      -1.35631414
H       -1.63364280      -0.72840417       1.45991196
H        0.29305468      -1.34922228       0.88234103
H        3.19109241      -0.70530539       0.57791860
15
Frame=1 idx=006881 GeodesicLength=0.0729169668998864 rxn_smarts="[C:1]([C:2]1([O:5][C:6](=[O:7])[H:15])[C:3]([H:11])([H:12])[C:4]1([H:13])[H:14])([H:8])([H:9])[H:10]>>[C:1]([C:2]1=[C:4]([H:13])[C:3]1([H:11])[H:12])([H:8])([H:9])[H:10].[O:5]=[C:6]([O:7][H:14])[H:15]"
C       -0.54430888       1.79458684      -0.21940758
C       -0.49338838       0.33059589      -0.10495578
C       -1.02597417      -0.80888290      -0.85867817
C       -0.91446004      -0.71613600       0.65992488
O        1.60464177       0.23674239      -0.21366244
C        2.11469148      -0.71042507       0.40261267
O        1.47608763      -1.69499033       0.89221886
H        0.05746909       2.13957963      -1.05772003
H       -0.21973820       2.27989173       0.69955967
H       -1.58888937       2.06550694      -0.40427132
H       -1.96115040      -0.63865011      -1.38846640
H       -0.35620731      -1.50551371      -1.35201876
H       -1.64033254      -0.72039339       1.46018059
H        0.28964039      -1.35304282       0.89303331
H        3.20191893      -0.69886911       0.59165052
15
Frame=2 idx=006881 GeodesicLength=0.14564427352780365 rxn_smarts="[C:1]([C:2]1([O:5][C:6](=[O:7])[H:15])[C:3]([H:11])([H:12])[C:4]1([H:13])[H:14])([H:8])([H:9])[H:10]>>[C:1]([C:2]1=[C:4]([H:13])[C:3]1([H:11])[H:12])([H:8])([H:9])[H:10].[O:5]=[C:6]([O:7][H:14])[H:15]"
C       -0.54759286       1.79561820      -0.22304918
C       -0.48498058       0.33137842      -0.10142428
C       -1.02896804      -0.80505254      -0.85505843
C       -0.91892086      -0.71304689       0.66241505
O        1.60969907       0.25075309      -0.18299663
C        2.13015238      -0.71863053       0.39090449
O        1.49044775      -1.71570071       0.85098957
H        0.06717561       2.13573159      -1.05430624
H       -0.24147310       2.28930166       0.69793376
H       -1.58973488       2.06258700      -0.42484407
H       -1.96679472      -0.63586102      -1.38014311
H       -0.37049511      -1.51272547      -1.34743585
H       -1.64735594      -0.71261030       1.46017904
H        0.28642672      -1.35680240       0.90385847
H        3.21241455      -0.69494009       0.60297740
15
Frame=3 idx=006881 GeodesicLength=0.21824626808314082 rxn_smarts="[C:1]([C:2]1([O:5][C:6](=[O:7])[H:15])[C:3]([H:11])([H:12])[C:4]1([H:13])[H:14])([H:8])([H:9])[H:10]>>[C:1]([C:2]1=[C:4]([H:13])[C:3]1([H:11])[H:12])([H:8])([H:9])[H:10].[O:5]=[C:6]([O:7][H:14])[H:15]"
C       -0.55076448       1.79644760      -0.22664203
C       -0.47683372       0.33203881      -0.09773668
C       -1.03169914      -0.80138836      -0.85150939
C       -0.92359286      -0.71012691       0.66491034
O        1.61443326       0.26489725      -0.15011807
C        2.14549020      -0.72542479       0.37925867
O        1.50450005      -1.73360272       0.81065806
H        0.07749111       2.13182101      -1.05013206
H       -0.26372691       2.29833956       0.69622139
H       -1.59004753       2.05954855      -0.44593769
H       -1.97203175      -0.63337716      -1.37219608
H       -0.38453860      -1.52003819      -1.34254226
H       -1.65489846      -0.70509320       1.45986570
H        0.28319180      -1.36061918       0.91487517
H        3.22302704      -0.69342228       0.61102493
15
Frame=4 idx=006881 GeodesicLength=0.29055426600389994 rxn_smarts="[C:1]([C:2]1([O:5][C:6](=[O:7])[H:15])[C:3]([H:11])([H:12])[C:4]1([H:13])[H:14])([H:8])([H:9])[H:10]>>[C:1]([C:2]1=[C:4]([H:13])[C:3]1([H:11])[H:12])([H:8])([H:9])[H:10].[O:5]=[C:6]([O:7][H:14])[H:15]"
C       -0.55365724       1.79692612      -0.23015264
C       -0.46895451       0.33247801      -0.09393315
C       -1.03427588      -0.79787232      -0.84802488
C       -0.92854602      -0.70736135       0.66733535
O        1.61868074       0.27873663      -0.11549119
C        2.16054235      -0.73053632       0.36807611
O        1.51835148      -1.74885486       0.77098719
H        0.08843958       2.12757043      -1.04523939
H       -0.28607102       2.30678012       0.69431867
H       -1.58961716       2.05639926      -0.46721873
H       -1.97691508      -0.63101612      -1.36454429
H       -0.39854631      -1.52752143      -1.33734701
H       -1.66295076      -0.69772736       1.45921999
H        0.27974046      -1.36465771       0.92580851
H        3.23377939      -0.69334309       0.61620545
15
Frame=5 idx=006881 GeodesicLength=0.3627323514377412 rxn_smarts="[C:1]([C:2]1([O:5][C:6](=[O:7])[H:15])[C:3]([H:11])([H:12])[C:4]1([H:13])[H:14])([H:8])([H:9])[H:10]>>[C:1]([C:2]1=[C:4]([H:13])[C:3]1([H:11])[H:12])([H:8])([H:9])[H:10].[O:5]=[C:6]([O:7][H:14])[H:15]"
C       -0.55622181       1.79713744      -0.23360630
C       -0.46135674       0.33270250      -0.08997290
C       -1.03676120      -0.79455473      -0.84464002
C       -0.93388443      -0.70480529       0.66973594
O        1.62241487       0.29229096      -0.07886541
C        2.17528687      -0.73407409       0.35730429
O        1.53209703      -1.76171489       0.73209325
H        0.10009838       2.12309454      -1.03962338
H       -0.30848193       2.31472792       0.69225391
H       -1.58839277       2.05321541      -0.48884243
H       -1.98152139      -0.62882512      -1.35734728
H       -0.41255581      -1.53520234      -1.33185214
H       -1.67162349      -0.69058866       1.45827890
H        0.27594991      -1.36898897       0.93688393
H        3.24495251      -0.69441467       0.61819965
15
Frame=6 idx=006881 GeodesicLength=0.4347542534634562 rxn_smarts="[C:1]([C:2]1([O:5][C:6](=[O:7])[H:15])[C:3]([H:11])([H:12])[C:4]1([H:13])[H:14])([H:8])([H:9])[H:10]>>[C:1]([C:2]1=[C:4]([H:13])[C:3]1([H:11])[H:12])([H:8])([H:9])[H:10].[O:5]=[C:6]([O:7][H:14])[H:15]"
C       -0.55829608       1.79698316      -0.23701232
C       -0.45401089       0.33262313      -0.08590808
C       -1.03934202      -0.79142099      -0.84131791
C       -0.93956692      -0.70247001       0.67209421
O        1.62555591       0.30519045      -0.04081571
C        2.18971309      -0.73603219       0.34684987
O        1.54588589      -1.77244479       0.69335314
H        0.11250195       2.11819172      -1.03338844
H       -0.33054661       2.32205549       0.68991738
H       -1.58620304       2.05002070      -0.51057355
H       -1.98608053      -0.62664872      -1.35038092
H       -0.42691906      -1.54313746      -1.32613256
H       -1.68072874      -0.68359671       1.45716130
H        0.27178883      -1.37379918       0.94780158
H        3.25624822      -0.69551459       0.61835201
15
Frame=7 idx=006881 GeodesicLength=0.5066540474763248 rxn_smarts="[C:1]([C:2]1([O:5][C:6](=[O:7])[H:15])[C:3]([H:11])([H:12])[C:4]1([H:13])[H:14])([H:8])([H:9])[H:10]>>[C:1]([C:2]1=[C:4]([H:13])[C:3]1([H:11])[H:12])([H:8])([H:9])[H:10].[O:5]=[C:6]([O:7][H:14])[H:15]"
C       -0.55979353       1.79645237      -0.24039525
C       -0.44689607       0.33220103      -0.08175199
C       -1.04213336      -0.78848827      -0.83803476
C       -0.94557556      -0.70037233       0.67443151
O        1.62806519       0.31729351      -0.00150211
C        2.20383385      -0.73641882       0.33666227
O        1.55980221      -1.78122950       0.65438533
H        0.12571857       2.11282337      -1.02654531
H       -0.35216507       2.32875727       0.68728657
H       -1.58293636       2.04683974      -0.53246413
H       -1.99074827      -0.62445359      -1.34354998
H       -0.44182777      -1.55134915      -1.32021859
H       -1.69015993      -0.67672665       1.45595800
H        0.26723460      -1.37919458       0.95851571
H        3.26758151      -0.69613439       0.61722273
15
Frame=8 idx=006881 GeodesicLength=0.5784685217542778 rxn_smarts="[C:1]([C:2]1([O:5][C:6](=[O:7])[H:15])[C:3]([H:11])([H:12])[C:4]1([H:13])[H:14])([H:8])([H:9])[H:10]>>[C:1]([C:2]1=[C:4]([H:13])[C:3]1([H:11])[H:12])([H:8])([H:9])[H:10].[O:5]=[C:6]([O:7][H:14])[H:15]"
C       -0.56063760       1.79551175      -0.24377040
C       -0.43999760       0.33138916      -0.07753234
C       -1.04524901      -0.78575890      -0.83477674
C       -0.95188916      -0.69852977       0.67675496
O        1.62991777       0.32842413       0.03873409
C        2.21768450      -0.73521950       0.32673196
O        1.57395130      -1.78815891       0.61480273
H        0.13972554       2.10690435      -1.01918650
H       -0.37308589       2.33480649       0.68430373
H       -1.57853620       2.04368445      -0.55439198
H       -1.99567178      -0.62217237      -1.33676429
H       -0.45747786      -1.55984991      -1.31414641
H       -1.69981819      -0.66996155       1.45475076
H        0.26228354      -1.38526922       0.96892160
H        3.27880064      -0.69580020       0.61556883
15
Frame=9 idx=006881 GeodesicLength=0.650219757024292 rxn_smarts="[C:1]([C:2]1([O:5][C:6](=[O:7])[H:15])[C:3]([H:11])([H:12])[C:4]1([H:13])[H:14])([H:8])([H:9])[H:10]>>[C:1]([C:2]1=[C:4]([H:13])[C:3]1([H:11])[H:12])([H:8])([H:9])[H:10].[O:5]=[C:6]([O:7][H:14])[H:15]"
C       -0.56078097       1.79414449      -0.24714906
C       -0.43330257       0.33015369      -0.07327379
C       -1.04876688      -0.78324297      -0.83152869
C       -0.95848389      -0.69695034       0.67907354
O        1.63109859       0.33845215       0.07956835
C        2.23130209      -0.73242533       0.31707915
O        1.58840833      -1.79326420       0.57426425
H        0.15447136       2.10037609      -1.01140058
H       -0.39311705       2.34020356       0.68093094
H       -1.57298070       2.04056197      -0.57624771
H       -2.00094931      -0.61976619      -1.32995336
H       -0.47399940      -1.56864351      -1.30793560
H       -1.70961898      -0.66328295       1.45360421
H        0.25693859      -1.39207961       0.97895821
H        3.28978079      -0.69423684       0.61401013
15
Frame=10 idx=006881 GeodesicLength=0.7219553707470943 rxn_smarts="[C:1]([C:2]1([O:5][C:6](=[O:7])[H:15])[C:3]([H:11])([H:12])[C:4]1([H:13])[H:14])([H:8])([H:9])[H:10]>>[C:1]([C:2]1=[C:4]([H:13])[C:3]1([H:11])[H:12])([H:8])([H:9])[H:10].[O:5]=[C:6]([O:7][H:14])[H:15]"
C       -0.56020569       1.79235668      -0.25053970
C       -0.42680528       0.32847689      -0.06898471
C       -1.05272076      -0.78095984      -0.82827771
C       -0.96535368      -0.69564009       0.68140914
O        1.63160256       0.34730934       0.12076541
C        2.24471901      -0.72804361       0.30773623
O        1.60322723      -1.79652935       0.53250631
H        0.16991225       2.09321213      -1.00326000
H       -0.41214846       2.34499134       0.67715164
H       -1.56627582       2.03747940      -0.59796394
H       -2.00662071      -0.61723000      -1.32308045
H       -0.49143956      -1.57773628      -1.30158904
H       -1.71953121      -0.65667627       1.45257697
H        0.25119183      -1.39965465       0.98862142
H        3.30044830      -0.69135569       0.61292843
15
Frame=11 idx=006881 GeodesicLength=0.7936146953804103 rxn_smarts="[C:1]([C:2]1([O:5][C:6](=[O:7])[H:15])[C:3]([H:11])([H:12])[C:4]1([H:13])[H:14])([H:8])([H:9])[H:10]>>[C:1]([C:2]1=[C:4]([H:13])[C:3]1([H:11])[H:12])([H:8])([H:9])[H:10].[O:5]=[C:6]([O:7][H:14])[H:15]"
C       -0.55891239       1.79009569      -0.25394102
C       -0.42050520       0.32633879      -0.06466571
C       -1.05712105      -0.77888708      -0.82499877
C       -0.97248674      -0.69456714       0.68375119
O        1.63141346       0.35489800       0.16216340
C        2.25794588      -0.72208535       0.29872299
O        1.61843967      -1.79784277       0.48938693
H        0.18599546       2.08533421      -0.99475352
H       -0.43011428       2.34910553       0.67295200
H       -1.55843454       2.03438145      -0.61951874
H       -2.01269080      -0.61452518      -1.31613142
H       -0.50981375      -1.58705989      -1.29504289
H       -1.72952313      -0.65009283       1.45162910
H        0.24504107      -1.40793816       0.99794849
H        3.31076632      -0.68715527       0.61249798
15
Frame=12 idx=006881 GeodesicLength=0.8653048636048772 rxn_smarts="[C:1]([C:2]1([O:5][C:6](=[O:7])[H:15])[C:3]([H:11])([H:12])[C:4]1([H:13])[H:14])([H:8])([H:9])[H:10]>>[C:1]([C:2]1=[C:4]([H:13])[C:3]1([H:11])[H:12])([H:8])([H:9])[H:10].[O:5]=[C:6]([O:7][H:14])[H:15]"
C       -0.55690371       1.78740000      -0.25736725
C       -0.41440329       0.32374174      -0.06029309
C       -1.06196243      -0.77705943      -0.82166022
C       -0.97988914      -0.69374160       0.68615706
O        1.63053924       0.36122588       0.20365980
C        2.27101112      -0.71458099       0.29002858
O        1.63407141      -1.79713781       0.44462642
H        0.20272868       2.07674431      -0.98592608
H       -0.44705131       2.35266825       0.66832384
H       -1.54945233       2.03127619      -0.64095146
H       -2.01915357      -0.61169091      -1.30905617
H       -0.52907987      -1.59662319      -1.28829898
H       -1.73960828      -0.64353644       1.45085486
H        0.23847412      -1.41695765       1.00697326
H        3.32067936      -0.68172834       0.61292942
15
Frame=13 idx=006881 GeodesicLength=0.937071122143824 rxn_smarts="[C:1]([C:2]1([O:5][C:6](=[O:7])[H:15])[C:3]([H:11])([H:12])[C:4]1([H:13])[H:14])([H:8])([H:9])[H:10]>>[C:1]([C:2]1=[C:4]([H:13])[C:3]1([H:11])[H:12])([H:8])([H:9])[H:10].[O:5]=[C:6]([O:7][H:14])[H:15]"
C       -0.55418499       1.78426129      -0.26084094
C       -0.40850020       0.32067609      -0.05586753
C       -1.06728807      -0.77547576      -0.81823595
C       -0.98753209      -0.69316306       0.68865075
O        1.62899699       0.36626482       0.24513446
C        2.28396522      -0.70553234       0.28167644
O        1.65017779      -1.79426083       0.39793097
H        0.22009646       2.06741880      -0.97678902
H       -0.46293746       2.35569931       0.66324125
H       -1.53933886       2.02813001      -0.66231475
H       -2.02607572      -0.60871775      -1.30179919
H       -0.54930976      -1.60641459      -1.28131797
H       -1.74972377      -0.63699394       1.45029672
H        0.23152093      -1.42673112       1.01568030
H        3.33013352      -0.67516092       0.61455446
15
Frame=14 idx=006881 GeodesicLength=1.008941537609338 rxn_smarts="[C:1]([C:2]1([O:5][C:6](=[O:7])[H:15])[C:3]([H:11])([H:12])[C:4]1([H:13])[H:14])([H:8])([H:9])[H:10]>>[C:1]([C:2]1=[C:4]([H:13])[C:3]1([H:11])[H:12])([H:8])([H:9])[H:10].[O:5]=[C:6]([O:7][H:14])[H:15]"
C       -0.55075833       1.78067979      -0.26436669
C       -0.40281314       0.31714579      -0.05132228
C       -1.07305257      -0.77415196      -0.81468477
C       -0.99544602      -0.69282464       0.69128248
O        1.62676546       0.37000062       0.28673362
C        2.29677095      -0.69495120       0.27361937
O        1.66674834      -1.78901272       0.34921271
H        0.23815990       2.05732471      -0.96726118
H       -0.47791085       2.35825730       0.65770070
H       -1.52803806       2.02490175      -0.68377199
H       -2.03338942      -0.60564637      -1.29437195
H       -0.57037825      -1.61638796      -1.27404480
H       -1.75993587      -0.63045389       1.44996427
H        0.22414105      -1.43723224       1.02419976
H        3.33913681      -0.66764898       0.61711075
15
Frame=15 idx=006881 GeodesicLength=1.0809287592402765 rxn_smarts="[C:1]([C:2]1([O:5][C:6](=[O:7])[H:15])[C:3]([H:11])([H:12])[C:4]1([H:13])[H:14])([H:8])([H:9])[H:10]>>[C:1]([C:2]1=[C:4]([H:13])[C:3]1([H:11])[H:12])([H:8])([H:9])[H:10].[O:5]=[C:6]([O:7][H:14])[H:15]"
C       -0.54661751       1.77658803      -0.26796316
C       -0.39733542       0.31312905      -0.04668221
C       -1.07927693      -0.77306885      -0.81095682
C       -1.00358881      -0.69270243       0.69406686
O        1.62385166       0.37238242       0.32812125
C        2.30946836      -0.68280390       0.26592733
O        1.68381775      -1.78107929       0.29801985
H        0.25686160       2.04636145      -0.95741830
H       -0.49186055       2.36028250       0.65164802
H       -1.51555342       2.02149254      -0.70523328
H       -2.04111691      -0.60244513      -1.28664364
H       -0.59233926      -1.62650655      -1.26641459
H       -1.77016522      -0.62387407       1.44990970
H        0.21635265      -1.44844463       1.03242930
H        3.34750200      -0.65931115       0.62118968
15
Frame=16 idx=006881 GeodesicLength=1.153059369613096 rxn_smarts="[C:1]([C:2]1([O:5][C:6](=[O:7])[H:15])[C:3]([H:11])([H:12])[C:4]1([H:13])[H:14])([H:8])([H:9])[H:10]>>[C:1]([C:2]1=[C:4]([H:13])[C:3]1([H:11])[H:12])([H:8])([H:9])[H:10].[O:5]=[C:6]([O:7][H:14])[H:15]"
C       -0.54179871       1.77204492      -0.27160888
C       -0.39210571       0.30865116      -0.04186633
C       -1.08588114      -0.77227804      -0.80705383
C       -1.01202980      -0.69280624       0.69704013
O        1.62028656       0.37338169       0.36931144
C        2.32201163      -0.66916947       0.25856535
O        1.70135333      -1.77025256       0.24451039
H        0.27612275       2.03455794      -0.94726463
H       -0.50477718       2.36189470       0.64511232
H       -1.50194967       2.01793122      -0.72668789
H       -2.04913377      -0.59920181      -1.27878355
H       -0.61493083      -1.63673743      -1.25840157
H       -1.78056096      -0.61728599       1.45007717
H        0.20810015      -1.46028805       1.04067091
H        3.35529333      -0.65044204       0.62637897
