15
Frame=0 idx=003106 GeodesicLength=0.0 rxn_smarts="[C:1]([C@@:2]1([H:10])[N:3]([H:11])[C@:4]1([C:5]([O:6][H:15])([H:13])[H:14])[H:12])([H:7])([H:8])[H:9]>>[C:1]([C:2][C@@:4]([N:3]([H:10])[H:11])([C:5]([O:6][H:15])([H:13])[H:14])[H:12])([H:7])([H:8])[H:9]"
C       -1.58701920       0.60550742       0.46410407
C       -1.10161236      -0.38024160      -0.55407678
N        0.41471396       0.29238543      -1.41015864
C        0.32003884      -0.80305942      -0.42153219
C        1.17526664      -0.53978903       0.81685784
O        1.42143319       0.82306001       1.05576845
H       -2.08242857      -0.04307147       1.19923187
H       -0.83312335       1.18533475       0.99970387
H       -2.36299268       1.25562961       0.06165174
H       -0.75641237       0.32450810      -1.66018929
H        0.60846168      -0.14601424      -2.31030804
H        0.53618282      -1.78960287      -0.83085453
H        2.12159220      -1.08358230       0.69875996
H        0.67761738      -0.94962849       1.70067614
H        1.44828184       1.24856412       0.19036557
15
Frame=1 idx=003106 GeodesicLength=0.041950895742321484 rxn_smarts="[C:1]([C@@:2]1([H:10])[N:3]([H:11])[C@:4]1([C:5]([O:6][H:15])([H:13])[H:14])[H:12])([H:7])([H:8])[H:9]>>[C:1]([C:2][C@@:4]([N:3]([H:10])[H:11])([C:5]([O:6][H:15])([H:13])[H:14])[H:12])([H:7])([H:8])[H:9]"
C       -1.59072805       0.60387824       0.46445631
C       -1.09632508      -0.37385300      -0.55605048
N        0.41604078       0.28643646      -1.41051731
C        0.32095512      -0.80475025      -0.41916936
C        1.17742023      -0.53931967       0.81761483
O        1.42088234       0.82437223       1.05581819
H       -2.08727845      -0.04840475       1.19547030
H       -0.83908711       1.18467538       1.00214924
H       -2.36696867       1.25432211       0.06278351
H       -0.76252538       0.34013553      -1.66645408
H        0.60532710      -0.15150689      -2.31116489
H        0.53314776      -1.79300269      -0.82612452
H        2.12476589      -1.08112217       0.69885502
H        0.68160228      -0.94952311       1.70225772
H        1.46277123       1.24766259       0.19007552
15
Frame=2 idx=003106 GeodesicLength=0.08388271572481705 rxn_smarts="[C:1]([C@@:2]1([H:10])[N:3]([H:11])[C@:4]1([C:5]([O:6][H:15])([H:13])[H:14])[H:12])([H:7])([H:8])[H:9]>>[C:1]([C:2][C@@:4]([N:3]([H:10])[H:11])([C:5]([O:6][H:15])([H:13])[H:14])[H:12])([H:7])([H:8])[H:9]"
C       -1.59446165       0.60216814       0.46477154
C       -1.09097053      -0.36735303      -0.55806918
N        0.41740679       0.28039328      -1.41092631
C        0.32185909      -0.80646033      -0.41675782
C        1.17960775      -0.53880647       0.81836756
O        1.42039708       0.82575190       1.05569029
H       -2.09219601      -0.05390449       1.19152067
H       -0.84513665       1.18388476       1.00468109
H       -2.37095007       1.25296761       0.06389660
H       -0.76841266       0.35618192      -1.67247280
H        0.60196904      -0.15714424      -2.31207754
H        0.53000516      -1.79644465      -0.82127277
H        2.12794156      -1.07866576       0.69896046
H        0.68562388      -0.94926402       1.70388210
H        1.47731723       1.24669537       0.18980612
15
Frame=3 idx=003106 GeodesicLength=0.12578779288146444 rxn_smarts="[C:1]([C@@:2]1([H:10])[N:3]([H:11])[C@:4]1([C:5]([O:6][H:15])([H:13])[H:14])[H:12])([H:7])([H:8])[H:9]>>[C:1]([C:2][C@@:4]([N:3]([H:10])[H:11])([C:5]([O:6][H:15])([H:13])[H:14])[H:12])([H:7])([H:8])[H:9]"
C       -1.59821670       0.60038227       0.46504616
C       -1.08555043      -0.36075162      -0.56011769
N        0.41880255       0.27426003      -1.41138243
C        0.32274979      -0.80818882      -0.41430012
C        1.18182958      -0.53825292       0.81911315
O        1.41997925       0.82719328       1.05539043
H       -2.09717367      -0.05955194       1.18739058
H       -0.85126782       1.18296909       1.00729177
H       -2.37493228       1.25156858       0.06498093
H       -0.77407303       0.37261235      -1.67824736
H        0.59839449      -0.16291132      -2.31304035
H        0.52675911      -1.79992256      -0.81630809
H        2.13111927      -1.07621697       0.69906953
H        0.68968404      -0.94885928       1.70554519
H        1.49189586       1.24566981       0.18956831
15
Frame=4 idx=003106 GeodesicLength=0.167660500657276 rxn_smarts="[C:1]([C@@:2]1([H:10])[N:3]([H:11])[C@:4]1([C:5]([O:6][H:15])([H:13])[H:14])[H:12])([H:7])([H:8])[H:9]>>[C:1]([C:2][C@@:4]([N:3]([H:10])[H:11])([C:5]([O:6][H:15])([H:13])[H:14])[H:12])([H:7])([H:8])[H:9]"
C       -1.60198946       0.59852657       0.46527653
C       -1.08006673      -0.35405933      -0.56218071
N        0.42021856       0.26804145      -1.41188200
C        0.32362654      -0.80993498      -0.41179906
C        1.18408601      -0.53766308       0.81984881
O        1.41963002       0.82868980       1.05492608
H       -2.10220238      -0.06532682       1.18308951
H       -0.85747569       1.18193630       1.00997229
H       -2.37891070       1.25012791       0.06602645
H       -0.77950865       0.38938914      -1.68378219
H        0.59461235      -0.16879273      -2.31404725
H        0.52341445      -1.80343016      -0.81124016
H        2.13429944      -1.07377950       0.69917507
H        0.69378465      -0.94831884       1.70724243
H        1.50648158       1.24459426       0.18937422
15
Frame=5 idx=003106 GeodesicLength=0.20949572104300807 rxn_smarts="[C:1]([C@@:2]1([H:10])[N:3]([H:11])[C@:4]1([C:5]([O:6][H:15])([H:13])[H:14])[H:12])([H:7])([H:8])[H:9]>>[C:1]([C:2][C@@:4]([N:3]([H:10])[H:11])([C:5]([O:6][H:15])([H:13])[H:14])[H:12])([H:7])([H:8])[H:9]"
C       -1.60577567       0.59660756       0.46545906
C       -1.07452164      -0.34728694      -0.56424312
N        0.42164538       0.26174266      -1.41242105
C        0.32448880      -0.81169808      -0.40925758
C        1.18637733      -0.53704149       0.82057187
O        1.41935007       0.83023429       1.05430633
H       -2.10727202      -0.07120811       1.17862831
H       -0.86375449       1.18079569       1.01271261
H       -2.38288058       1.24864887       0.06702337
H       -0.78472443       0.40647262      -1.68908395
H        0.59063304      -0.17477289      -2.31509191
H        0.51997633      -1.80696137      -0.80607938
H        2.13748285      -1.07135682       0.69926970
H        0.69792755      -0.94765413       1.70896890
H        1.52104749       1.24347814       0.18923684
15
Frame=6 idx=003106 GeodesicLength=0.25129196918243996 rxn_smarts="[C:1]([C@@:2]1([H:10])[N:3]([H:11])[C@:4]1([C:5]([O:6][H:15])([H:13])[H:14])[H:12])([H:7])([H:8])[H:9]>>[C:1]([C:2][C@@:4]([N:3]([H:10])[H:11])([C:5]([O:6][H:15])([H:13])[H:14])[H:12])([H:7])([H:8])[H:9]"
C       -1.60957043       0.59463231       0.46558995
C       -1.06891833      -0.34044486      -0.56629033
N        0.42307390       0.25536882      -1.41299541
C        0.32533620      -0.81347780      -0.40667898
C        1.18870401      -0.53639326       0.82128024
O        1.41913997       0.83181895       1.05354260
H       -2.11237035      -0.07717486       1.17401918
H       -0.87009751       1.17955893       1.01550155
H       -2.38683729       1.24713497       0.06796197
H       -0.78972964       0.42382267      -1.69416155
H        0.58646846      -0.18083716      -2.31616847
H        0.51645026      -1.81051086      -0.80083739
H        2.14067140      -1.06895271       0.69934658
H        0.70211435      -0.94687787       1.71071957
H        1.53556500       1.24233273       0.18917049
15
Frame=7 idx=003106 GeodesicLength=0.2930458611563238 rxn_smarts="[C:1]([C@@:2]1([H:10])[N:3]([H:11])[C@:4]1([C:5]([O:6][H:15])([H:13])[H:14])[H:12])([H:7])([H:8])[H:9]>>[C:1]([C:2][C@@:4]([N:3]([H:10])[H:11])([C:5]([O:6][H:15])([H:13])[H:14])[H:12])([H:7])([H:8])[H:9]"
C       -1.61336834       0.59261113       0.46566694
C       -1.06325675      -0.33354895      -0.56830708
N        0.42449212       0.24893012      -1.41359836
C        0.32617006      -0.81527094      -0.40406576
C        1.19106387      -0.53572427       0.82197149
O        1.41898977       0.83343232       1.05265537
H       -2.11748379      -0.08319551       1.16927860
H       -0.87650189       1.17823775       1.01832437
H       -2.39077372       1.24559093       0.06883370
H       -0.79454101       0.44137882      -1.69903328
H        0.58213054      -0.18696002      -2.31726551
H        0.51284901      -1.81406523      -0.79552470
H        2.14386289      -1.06656568       0.69939709
H        0.70634758      -0.94601300       1.71248612
H        1.55001967       1.24116253       0.18918099
15
Frame=8 idx=003106 GeodesicLength=0.3347659124786944 rxn_smarts="[C:1]([C@@:2]1([H:10])[N:3]([H:11])[C@:4]1([C:5]([O:6][H:15])([H:13])[H:14])[H:12])([H:7])([H:8])[H:9]>>[C:1]([C:2][C@@:4]([N:3]([H:10])[H:11])([C:5]([O:6][H:15])([H:13])[H:14])[H:12])([H:7])([H:8])[H:9]"
C       -1.61717765       0.59054291       0.46569266
C       -1.05754719      -0.32659741      -0.57029156
N        0.42590527       0.24242101      -1.41423672
C        0.32698688      -0.81707858      -0.40142186
C        1.19346348      -0.53503251       0.82264693
O        1.41891482       0.83508143       1.05164651
H       -2.12262843      -0.08927726       1.16440525
H       -0.88296923       1.17683464       1.02118915
H       -2.39470277       1.24401306       0.06963822
H       -0.79914940       0.45915221      -1.70370186
H        0.57762125      -0.19315231      -2.31839203
H        0.50916054      -1.81763324      -0.79014676
H        2.14707036      -1.06419711       0.69941741
H        0.71062904      -0.94505046       1.71427580
H        1.56442304       1.23997363       0.18927888
15
Frame=9 idx=003106 GeodesicLength=0.376428064489624 rxn_smarts="[C:1]([C@@:2]1([H:10])[N:3]([H:11])[C@:4]1([C:5]([O:6][H:15])([H:13])[H:14])[H:12])([H:7])([H:8])[H:9]>>[C:1]([C:2][C@@:4]([N:3]([H:10])[H:11])([C:5]([O:6][H:15])([H:13])[H:14])[H:12])([H:7])([H:8])[H:9]"
C       -1.62099408       0.58842372       0.46565795
C       -1.05176856      -0.31958317      -0.57223049
N        0.42730802       0.23584717      -1.41489508
C        0.32778599      -0.81889400      -0.39873899
C        1.19589656      -0.53431905       0.82329655
O        1.41889504       0.83675835       1.05049227
H       -2.12780474      -0.09542517       1.15938086
H       -0.88949956       1.17533708       1.02409379
H       -2.39861642       1.24239921       0.07036076
H       -0.80354776       0.47714021      -1.70814002
H        0.57293367      -0.19940493      -2.31952693
H        0.50537770      -1.82120385      -0.78467279
H        2.15027709      -1.06184267       0.69939540
H        0.71497222      -0.94399557       1.71607437
H        1.57878482       1.23876268       0.18945236
15
Frame=10 idx=003106 GeodesicLength=0.4180564527770949 rxn_smarts="[C:1]([C@@:2]1([H:10])[N:3]([H:11])[C@:4]1([C:5]([O:6][H:15])([H:13])[H:14])[H:12])([H:7])([H:8])[H:9]>>[C:1]([C:2][C@@:4]([N:3]([H:10])[H:11])([C:5]([O:6][H:15])([H:13])[H:14])[H:12])([H:7])([H:8])[H:9]"
C       -1.62480147       0.58626296       0.46555974
C       -1.04594171      -0.31252897      -0.57411932
N        0.42868930       0.22922015      -1.41557482
C        0.32856925      -0.82071464      -0.39602682
C        1.19835685      -0.53358879       0.82393024
O        1.41893848       0.83845701       1.04922926
H       -2.13294780      -0.10161068       1.15423588
H       -0.89608432       1.17377336       1.02699147
H       -2.40251166       1.24074162       0.07101020
H       -0.80778083       0.49529008      -1.71237940
H        0.56808100      -0.20569025      -2.32066704
H        0.50152159      -1.82476883      -0.77914588
H        2.15348399      -1.05951350       0.69935344
H        0.71935018      -0.94285843       1.71788485
H        1.59307716       1.23752891       0.18971821
15
Frame=11 idx=003106 GeodesicLength=0.45966139543904083 rxn_smarts="[C:1]([C@@:2]1([H:10])[N:3]([H:11])[C@:4]1([C:5]([O:6][H:15])([H:13])[H:14])[H:12])([H:7])([H:8])[H:9]>>[C:1]([C:2][C@@:4]([N:3]([H:10])[H:11])([C:5]([O:6][H:15])([H:13])[H:14])[H:12])([H:7])([H:8])[H:9]"
C       -1.62862152       0.58406025       0.46540591
C       -1.04006275      -0.30543008      -0.57595446
N        0.43005606       0.22253605      -1.41627921
C        0.32933444      -0.82253977      -0.39328732
C        1.20085372      -0.53283893       0.82454355
O        1.41905571       0.84018220       1.04785136
H       -2.13811289      -0.10784170       1.14896994
H       -0.90272988       1.17213862       1.02991563
H       -2.40641008       1.23904260       0.07158331
H       -0.81183154       0.51360206      -1.71643330
H        0.56306932      -0.21201778      -2.32181967
H        0.49758028      -1.82832975      -0.77355487
H        2.15669935      -1.05720674       0.69927753
H        0.72377531      -0.94163582       1.71970793
H        1.60734446       1.23627879       0.19007368
15
Frame=12 idx=003106 GeodesicLength=0.5012358586328659 rxn_smarts="[C:1]([C@@:2]1([H:10])[N:3]([H:11])[C@:4]1([C:5]([O:6][H:15])([H:13])[H:14])[H:12])([H:7])([H:8])[H:9]>>[C:1]([C:2][C@@:4]([N:3]([H:10])[H:11])([C:5]([O:6][H:15])([H:13])[H:14])[H:12])([H:7])([H:8])[H:9]"
C       -1.63245158       0.58181422       0.46519198
C       -1.03412918      -0.29828450      -0.57773003
N        0.43140767       0.21579190      -1.41700500
C        0.33008045      -0.82436677      -0.39051488
C        1.20339013      -0.53206720       0.82513352
O        1.41924205       0.84193542       1.04635478
H       -2.14331136      -0.11412364       1.14355493
H       -0.90944127       1.17041168       1.03287592
H       -2.41029300       1.23731518       0.07207242
H       -0.81569955       0.53208191      -1.72028829
H        0.55788849      -0.21839102      -2.32297623
H        0.49354430      -1.83188723      -0.76788425
H        2.15992739      -1.05491512       0.69915826
H        0.72826331      -0.94032832       1.72154306
H        1.62158214       1.23501349       0.19051380
15
Frame=13 idx=003106 GeodesicLength=0.5427907951274845 rxn_smarts="[C:1]([C@@:2]1([H:10])[N:3]([H:11])[C@:4]1([C:5]([O:6][H:15])([H:13])[H:14])[H:12])([H:7])([H:8])[H:9]>>[C:1]([C:2][C@@:4]([N:3]([H:10])[H:11])([C:5]([O:6][H:15])([H:13])[H:14])[H:12])([H:7])([H:8])[H:9]"
C       -1.63629460       0.57952341       0.46491714
C       -1.02814110      -0.29109179      -0.57944091
N        0.43274378       0.20898592      -1.41775110
C        0.33080631      -0.82619296      -0.38770710
C        1.20597062      -0.53127062       0.82569826
O        1.41949967       0.84371925       1.04473961
H       -2.14856480      -0.12045779       1.13797245
H       -0.91622212       1.16857335       1.03588747
H       -2.41414911       1.23557151       0.07247254
H       -0.81939204       0.55072503      -1.72394578
H        0.55253696      -0.22481264      -2.32413179
H        0.48940694      -1.83544083      -0.76212487
H        2.16317404      -1.05263171       0.69898717
H        0.73282446      -0.93893530       1.72338966
H        1.63580099       1.23373516       0.19103725
15
Frame=14 idx=003106 GeodesicLength=0.584329065247613 rxn_smarts="[C:1]([C@@:2]1([H:10])[N:3]([H:11])[C@:4]1([C:5]([O:6][H:15])([H:13])[H:14])[H:12])([H:7])([H:8])[H:9]>>[C:1]([C:2][C@@:4]([N:3]([H:10])[H:11])([C:5]([O:6][H:15])([H:13])[H:14])[H:12])([H:7])([H:8])[H:9]"
C       -1.64015462       0.57718516       0.46458105
C       -1.02209645      -0.28384873      -0.58108609
N        0.43406822       0.20211413      -1.41851864
C        0.33151047      -0.82801658      -0.38486228
C        1.20859721      -0.53044611       0.82623670
O        1.41983053       0.84553829       1.04300193
H       -2.15388532      -0.12685256       1.13220720
H       -0.92307907       1.16661303       1.03895824
H       -2.41798095       1.23381284       0.07278534
H       -0.82290429       0.56954220      -1.72739941
H        0.54700975      -0.23128706      -2.32528669
H        0.48515904      -1.83899235      -0.75626707
H        2.16644105      -1.05035418       0.69876055
H        0.73746516      -0.93745065       1.72525068
H        1.65001925       1.23244258       0.19163849
15
Frame=15 idx=003106 GeodesicLength=0.6258669096514765 rxn_smarts="[C:1]([C@@:2]1([H:10])[N:3]([H:11])[C@:4]1([C:5]([O:6][H:15])([H:13])[H:14])[H:12])([H:7])([H:8])[H:9]>>[C:1]([C:2][C@@:4]([N:3]([H:10])[H:11])([C:5]([O:6][H:15])([H:13])[H:14])[H:12])([H:7])([H:8])[H:9]"
C       -1.64403506       0.57479622       0.46418280
C       -1.01599297      -0.27655397      -0.58266370
N        0.43538155       0.19517253      -1.41930564
C        0.33219324      -0.82983441      -0.38197806
C        1.21127236      -0.52959022       0.82674752
O        1.42023854       0.84739463       1.04113600
H       -2.15928644      -0.13331524       1.12624436
H       -0.93001793       1.16451934       1.04209570
H       -2.42178932       1.23203927       0.07300940
H       -0.82623507       0.58854508      -1.73064907
H        0.54129719      -0.23781544      -2.32643540
H        0.48079596      -1.84253885      -0.75029966
H        2.16973043      -1.04808028       0.69847758
H        0.74219116      -0.93586721       1.72712600
H        1.66425636       1.23112856       0.19231216
15
Frame=16 idx=003106 GeodesicLength=0.6674043363397841 rxn_smarts="[C:1]([C@@:2]1([H:10])[N:3]([H:11])[C@:4]1([C:5]([O:6][H:15])([H:13])[H:14])[H:12])([H:7])([H:8])[H:9]>>[C:1]([C:2][C@@:4]([N:3]([H:10])[H:11])([C:5]([O:6][H:15])([H:13])[H:14])[H:12])([H:7])([H:8])[H:9]"
C       -1.64793768       0.57235233       0.46371987
C       -1.00982958      -0.26920290      -0.58417050
N        0.43668527       0.18815686      -1.42011177
C        0.33285215      -0.83164466      -0.37905193
C        1.21399936      -0.52869938       0.82722876
O        1.42072742       0.84929109       1.03913789
H       -2.16478383      -0.13985171       1.12005982
H       -0.93704225       1.16227324       1.04531071
H       -2.42556553       1.23025646       0.07314212
H       -0.82938551       0.60773901      -1.73368435
H        0.53539495      -0.24440172      -2.32757529
H        0.47630413      -1.84608120      -0.74421067
H        2.17304534      -1.04580370       0.69813298
H        0.74701299      -0.93417913       1.72901675
H        1.67852279       1.22979541       0.19305562
