15
Frame=0 idx=011189 GeodesicLength=0.0 rxn_smarts="[C:1]([C@@:2]1([H:11])[O:3][C@@:4]2([H:12])[C:5]([H:13])([H:14])[C@@:6]12[O:7][H:15])([H:8])([H:9])[H:10]>>[C:1]([C@@:2]([O:3][H:12])([C@@:6]1([O:7][H:15])[C:4][C:5]1([H:13])[H:14])[H:11])([H:8])([H:9])[H:10]"
C       -1.80757082      -0.16154976      -0.16843974
C       -0.58672826       0.65963950       0.16158332
O       -0.24975314       0.55218299       1.55804414
C        1.50903124       0.35574693       0.91437847
C        1.34437323      -0.97807468       0.29864581
C        0.75130387       0.22132330      -0.37952121
O        1.25053644       0.69051478      -1.58013523
H       -1.64676458      -1.21435304       0.06765388
H       -2.67254000       0.18959479       0.39698673
H       -2.03690798      -0.06870968      -1.23305325
H       -0.74921834       1.71077756      -0.10410940
H        0.84821701       1.03096279       1.72540071
H        2.26144298      -1.30918196      -0.18042640
H        0.77640327      -1.75324621       0.79776900
H        1.00817507       0.07437273      -2.27477677
15
Frame=1 idx=011189 GeodesicLength=0.047194948632206156 rxn_smarts="[C:1]([C@@:2]1([H:11])[O:3][C@@:4]2([H:12])[C:5]([H:13])([H:14])[C@@:6]12[O:7][H:15])([H:8])([H:9])[H:10]>>[C:1]([C@@:2]([O:3][H:12])([C@@:6]1([O:7][H:15])[C:4][C:5]1([H:13])[H:14])[H:11])([H:8])([H:9])[H:10]"
C       -1.80751254      -0.16295895      -0.16783805
C       -0.58804854       0.65977407       0.16280812
O       -0.24933271       0.55469560       1.55876560
C        1.50854398       0.35239322       0.91239927
C        1.34420352      -0.98011560       0.29287122
C        0.74960167       0.22025683      -0.38036623
O        1.24705049       0.69537387      -1.57945297
H       -1.64741585      -1.21481433       0.07301364
H       -2.67358555       0.19016646       0.39454178
H       -2.03283787      -0.07461908      -1.23364130
H       -0.75057135       1.71042021      -0.10457985
H        0.85127544       1.04163780       1.73578684
H        2.26053045      -1.31562456      -0.18425974
H        0.77202084      -1.75125452       0.79386253
H        1.01607802       0.07466900      -2.27391088
15
Frame=2 idx=011189 GeodesicLength=0.09438792580408664 rxn_smarts="[C:1]([C@@:2]1([H:11])[O:3][C@@:4]2([H:12])[C:5]([H:13])([H:14])[C@@:6]12[O:7][H:15])([H:8])([H:9])[H:10]>>[C:1]([C@@:2]([O:3][H:12])([C@@:6]1([O:7][H:15])[C:4][C:5]1([H:13])[H:14])[H:11])([H:8])([H:9])[H:10]"
C       -1.80745999      -0.16437869      -0.16722345
C       -0.58936563       0.65989715       0.16400304
O       -0.24888934       0.55724850       1.55945200
C        1.50803998       0.34901225       0.91039080
C        1.34401273      -0.98217785       0.28706325
C        0.74789489       0.21916032      -0.38124466
O        1.24356941       0.70017416      -1.57877882
H       -1.64806750      -1.21526582       0.07837290
H       -2.67461492       0.19071078       0.39212871
H       -2.02880510      -0.08053755      -1.23417441
H       -0.75192027       1.71004500      -0.10509588
H        0.85429272       1.05241464       1.74628516
H        2.25957701      -1.32213060      -0.18808804
H        0.76766874      -1.74926651       0.78994057
H        1.02406726       0.07509423      -2.27303118
15
Frame=3 idx=011189 GeodesicLength=0.1415744317506043 rxn_smarts="[C:1]([C@@:2]1([H:11])[O:3][C@@:4]2([H:12])[C:5]([H:13])([H:14])[C@@:6]12[O:7][H:15])([H:8])([H:9])[H:10]>>[C:1]([C@@:2]([O:3][H:12])([C@@:6]1([O:7][H:15])[C:4][C:5]1([H:13])[H:14])[H:11])([H:8])([H:9])[H:10]"
C       -1.80741246      -0.16580601      -0.16660068
C       -0.59067764       0.66000815       0.16516792
O       -0.24842300       0.55983504       1.56010277
C        1.50752192       0.34560775       0.90835212
C        1.34380525      -0.98426018       0.28122616
C        0.74618516       0.21803183      -0.38215584
O        1.24009181       0.70490333      -1.57811795
H       -1.64871314      -1.21570903       0.08370487
H       -2.67562403       0.19121807       0.38975686
H       -2.02481945      -0.08643908      -1.23465400
H       -0.75326062       1.70965242      -0.10565489
H        0.85726033       1.06329978       1.75690256
H        2.25858880      -1.32869661      -0.19190377
H        0.76335546      -1.74728216       0.78601084
H        1.03212161       0.07563669      -2.27213696
15
Frame=4 idx=011189 GeodesicLength=0.18874838932674767 rxn_smarts="[C:1]([C@@:2]1([H:11])[O:3][C@@:4]2([H:12])[C:5]([H:13])([H:14])[C@@:6]12[O:7][H:15])([H:8])([H:9])[H:10]>>[C:1]([C@@:2]([O:3][H:12])([C@@:6]1([O:7][H:15])[C:4][C:5]1([H:13])[H:14])[H:11])([H:8])([H:9])[H:10]"
C       -1.80736921      -0.16723782      -0.16597454
C       -0.59198261       0.66010651       0.16630271
O       -0.24793366       0.56244845       1.56071753
C        1.50699255       0.34218358       0.90628239
C        1.34358569      -0.98636131       0.27536432
C        0.74447422       0.21686942      -0.38309905
O        1.23661629       0.70954910      -1.57747572
H       -1.64934647      -1.21614571       0.08898308
H       -2.67660893       0.19167932       0.38743538
H       -2.02089043      -0.09229775      -1.23508220
H       -0.75458775       1.70924299      -0.10625415
H        0.86016953       1.07429925       1.76764632
H        2.25757236      -1.33531880      -0.19569919
H        0.75908962      -1.74530149       0.78208100
H        1.04021877       0.07628426      -2.27122788
15
Frame=5 idx=011189 GeodesicLength=0.2359023859305442 rxn_smarts="[C:1]([C@@:2]1([H:11])[O:3][C@@:4]2([H:12])[C:5]([H:13])([H:14])[C@@:6]12[O:7][H:15])([H:8])([H:9])[H:10]>>[C:1]([C@@:2]([O:3][H:12])([C@@:6]1([O:7][H:15])[C:4][C:5]1([H:13])[H:14])[H:11])([H:8])([H:9])[H:10]"
C       -1.80732947      -0.16867106      -0.16534978
C       -0.59327852       0.66019160       0.16740750
O       -0.24742122       0.56508196       1.56129610
C        1.50645474       0.33874342       0.90418091
C        1.34335877      -0.98848012       0.26948203
C        0.74276386       0.21567117      -0.38407345
O        1.23314172       0.71409969      -1.57685724
H       -1.64996151      -1.21657785       0.09418220
H       -2.67756590       0.19208645       0.38517292
H       -2.01702694      -0.09808852      -1.23546177
H       -0.75589692       1.70881722      -0.10689080
H        0.86301156       1.08541904       1.77852360
H        2.25653447      -1.34199346      -0.19946658
H        0.75487974      -1.74332472       0.77815852
H        1.04833563       0.07702518      -2.27030417
15
Frame=6 idx=011189 GeodesicLength=0.28302576662596346 rxn_smarts="[C:1]([C@@:2]1([H:11])[O:3][C@@:4]2([H:12])[C:5]([H:13])([H:14])[C@@:6]12[O:7][H:15])([H:8])([H:9])[H:10]>>[C:1]([C@@:2]([O:3][H:12])([C@@:6]1([O:7][H:15])[C:4][C:5]1([H:13])[H:14])[H:11])([H:8])([H:9])[H:10]"
C       -1.80729283      -0.17010238      -0.16473152
C       -0.59456314       0.66026309       0.16848266
O       -0.24688567       0.56772897       1.56183896
C        1.50591216       0.33529166       0.90204729
C        1.34313024      -0.99061535       0.26358377
C        0.74105649       0.21443521      -0.38507805
O        1.22966736       0.71854254      -1.57626826
H       -1.65055252      -1.21700769       0.09927579
H       -2.67849182       0.19243171       0.38297849
H       -2.01323857      -0.10378538      -1.23579653
H       -0.75718291       1.70837603      -0.10756158
H        0.86577605       1.09666377       1.78954203
H        2.25548357      -1.34871661      -0.20319803
H        0.75073518      -1.74135178       0.77425127
H        1.05644640       0.07784623      -2.26936629
15
Frame=7 idx=011189 GeodesicLength=0.3301608030632025 rxn_smarts="[C:1]([C@@:2]1([H:11])[O:3][C@@:4]2([H:12])[C:5]([H:13])([H:14])[C@@:6]12[O:7][H:15])([H:8])([H:9])[H:10]>>[C:1]([C@@:2]([O:3][H:12])([C@@:6]1([O:7][H:15])[C:4][C:5]1([H:13])[H:14])[H:11])([H:8])([H:9])[H:10]"
C       -1.80725583      -0.17152808      -0.16412350
C       -0.59583280       0.66031892       0.16952826
O       -0.24632320       0.57037832       1.56234400
C        1.50536815       0.33182829       0.89987792
C        1.34290337      -0.99276755       0.25767144
C        0.73935307       0.21315853      -0.38611317
O        1.22618972       0.72286765      -1.57571466
H       -1.65111128      -1.21743750       0.10423888
H       -2.67937855       0.19270787       0.38086238
H       -2.00953145      -0.10936040      -1.23608790
H       -0.75843938       1.70791866      -0.10826270
H        0.86844174       1.10805466       1.80072028
H        2.25442350      -1.35548380      -0.20688782
H        0.74666343      -1.73938530       0.77036319
H        1.06452951       0.07872973      -2.26841662
15
Frame=8 idx=011189 GeodesicLength=0.3772799066319907 rxn_smarts="[C:1]([C@@:2]1([H:11])[O:3][C@@:4]2([H:12])[C:5]([H:13])([H:14])[C@@:6]12[O:7][H:15])([H:8])([H:9])[H:10]>>[C:1]([C@@:2]([O:3][H:12])([C@@:6]1([O:7][H:15])[C:4][C:5]1([H:13])[H:14])[H:11])([H:8])([H:9])[H:10]"
C       -1.80721953      -0.17294794      -0.16352644
C       -0.59708660       0.66035962       0.17054555
O       -0.24573343       0.57302959       1.56281345
C        1.50482658       0.32835406       0.89767358
C        1.34268099      -0.99493737       0.25174500
C        0.73765603       0.21184136      -0.38717826
O        1.22271198       0.72707415      -1.57519743
H       -1.65163929      -1.21786864       0.10907168
H       -2.68022904       0.19291758       0.37882437
H       -2.00590640      -0.11481446      -1.23634010
H       -0.75966486       1.70744615      -0.10899206
H        0.87100314       1.11959421       1.81205957
H        2.25335712      -1.36229757      -0.21053709
H        0.74266606      -1.73742624       0.76649434
H        1.07257723       0.07967550      -2.26745616
15
Frame=9 idx=011189 GeodesicLength=0.4244004633518924 rxn_smarts="[C:1]([C@@:2]1([H:11])[O:3][C@@:4]2([H:12])[C:5]([H:13])([H:14])[C@@:6]12[O:7][H:15])([H:8])([H:9])[H:10]>>[C:1]([C@@:2]([O:3][H:12])([C@@:6]1([O:7][H:15])[C:4][C:5]1([H:13])[H:14])[H:11])([H:8])([H:9])[H:10]"
C       -1.80718436      -0.17436113      -0.16294012
C       -0.59832017       0.66038741       0.17153645
O       -0.24511192       0.57568328       1.56325086
C        1.50429815       0.32487031       0.89543108
C        1.34246889      -0.99712708       0.24580026
C        0.73597236       0.21048447      -0.38827542
O        1.21924246       0.73115990      -1.57472314
H       -1.65213913      -1.21830268       0.11377454
H       -2.68104600       0.19306493       0.37686668
H       -2.00236325      -0.12014874      -1.23655691
H       -0.76085275       1.70696256      -0.10974588
H        0.87342549       1.13129132       1.82357895
H        2.25228991      -1.36916350      -0.21415441
H        0.73874585      -1.73547554       0.76264244
H        1.08057444       0.08067449      -2.26648538
15
Frame=10 idx=011189 GeodesicLength=0.47150849196269706 rxn_smarts="[C:1]([C@@:2]1([H:11])[O:3][C@@:4]2([H:12])[C:5]([H:13])([H:14])[C@@:6]12[O:7][H:15])([H:8])([H:9])[H:10]>>[C:1]([C@@:2]([O:3][H:12])([C@@:6]1([O:7][H:15])[C:4][C:5]1([H:13])[H:14])[H:11])([H:8])([H:9])[H:10]"
C       -1.80714611      -0.17577289      -0.16235624
C       -0.59954112       0.66039385       0.17249980
O       -0.24445664       0.57833019       1.56364691
C        1.50376496       0.32135961       0.89315066
C        1.34224822      -0.99933833       0.23983366
C        0.73428436       0.20908656      -0.38940279
O        1.21576018       0.73514987      -1.57427348
H       -1.65261046      -1.21873748       0.11838481
H       -2.68182338       0.19316205       0.37497416
H       -1.99888652      -0.12538959      -1.23673017
H       -0.76202032       1.70645447      -0.11052773
H        0.87576029       1.14317383       1.83525756
H        2.25119235      -1.37608162      -0.21773958
H        0.73488598      -1.73354143       0.75879074
H        1.08858821       0.08175092      -2.26550830
15
Frame=11 idx=011189 GeodesicLength=0.5185680365350055 rxn_smarts="[C:1]([C@@:2]1([H:11])[O:3][C@@:4]2([H:12])[C:5]([H:13])([H:14])[C@@:6]12[O:7][H:15])([H:8])([H:9])[H:10]>>[C:1]([C@@:2]([O:3][H:12])([C@@:6]1([O:7][H:15])[C:4][C:5]1([H:13])[H:14])[H:11])([H:8])([H:9])[H:10]"
C       -1.80710158      -0.17717546      -0.16178444
C       -0.60073471       0.66038318       0.17343219
O       -0.24376407       0.58097239       1.56400495
C        1.50324545       0.31783808       0.89082737
C        1.34204032      -1.00156925       0.23385305
C        0.73261070       0.20764519      -0.39056368
O        1.21228808       0.73901457      -1.57386776
H       -1.65304119      -1.21917605       0.12285190
H       -2.68255135       0.19319628       0.37317249
H       -1.99549809      -0.13048995      -1.23686926
H       -0.76314133       1.70592958      -0.11134069
H        0.87792696       1.15521958       1.84712329
H        2.25009604      -1.38305077      -0.22128571
H        0.73110617      -1.73161424       0.75495743
H        1.09651862       0.08287689      -2.26451113
15
Frame=12 idx=011189 GeodesicLength=0.565629318104952 rxn_smarts="[C:1]([C@@:2]1([H:11])[O:3][C@@:4]2([H:12])[C:5]([H:13])([H:14])[C@@:6]12[O:7][H:15])([H:8])([H:9])[H:10]>>[C:1]([C@@:2]([O:3][H:12])([C@@:6]1([O:7][H:15])[C:4][C:5]1([H:13])[H:14])[H:11])([H:8])([H:9])[H:10]"
C       -1.80706058      -0.17857367      -0.16121633
C       -0.60190968       0.66035338       0.17433971
O       -0.24303410       0.58360642       1.56432865
C        1.50273811       0.31429569       0.88846205
C        1.34183816      -1.00382645       0.22784626
C        0.73094517       0.20616013      -0.39175917
O        1.20882099       0.74277231      -1.57350046
H       -1.65344960      -1.21962173       0.12720716
H       -2.68324589       0.19318153       0.37145449
H       -1.99219081      -0.13548074      -1.23697152
H       -0.76422889       1.70538716      -0.11217570
H        0.87995286       1.16746893       1.85918043
H        2.24898941      -1.39007431      -0.22480694
H        0.72739461      -1.72970694       0.75112402
H        1.10444024       0.08405831      -2.26351266
15
Frame=13 idx=011189 GeodesicLength=0.612674761030709 rxn_smarts="[C:1]([C@@:2]1([H:11])[O:3][C@@:4]2([H:12])[C:5]([H:13])([H:14])[C@@:6]12[O:7][H:15])([H:8])([H:9])[H:10]>>[C:1]([C@@:2]([O:3][H:12])([C@@:6]1([O:7][H:15])[C:4][C:5]1([H:13])[H:14])[H:11])([H:8])([H:9])[H:10]"
C       -1.80701634      -0.17996985      -0.16064711
C       -0.60306282       0.66030526       0.17522253
O       -0.24226036       0.58623425       1.56461641
C        1.50224408       0.31072539       0.88605086
C        1.34163592      -1.00611102       0.22180628
C        0.72928743       0.20463551      -0.39299084
O        1.20535722       0.74643557      -1.57316919
H       -1.65383765      -1.22006896       0.13148832
H       -2.68390459       0.19313393       0.36980170
H       -1.98894192      -0.14039696      -1.23703730
H       -0.76528384       1.70482608      -0.11303333
H        0.88182365       1.17992290       1.87143661
H        2.24785851      -1.39716009      -0.22831840
H        0.72374206      -1.72781867       0.74727911
H        1.11235864       0.08530666      -2.26250565
15
Frame=14 idx=011189 GeodesicLength=0.6597074700281977 rxn_smarts="[C:1]([C@@:2]1([H:11])[O:3][C@@:4]2([H:12])[C:5]([H:13])([H:14])[C@@:6]12[O:7][H:15])([H:8])([H:9])[H:10]>>[C:1]([C@@:2]([O:3][H:12])([C@@:6]1([O:7][H:15])[C:4][C:5]1([H:13])[H:14])[H:11])([H:8])([H:9])[H:10]"
C       -1.80696822      -0.18136639      -0.16007070
C       -0.60419299       0.66023841       0.17608092
O       -0.24143711       0.58886015       1.56486750
C        1.50176579       0.30711866       0.88359172
C        1.34142946      -1.00842771       0.21572589
C        0.72763795       0.20307153      -0.39426080
O        1.20190016       0.75001610      -1.57287009
H       -1.65420770      -1.22051778       0.13571503
H       -2.68452830       0.19305706       0.36821515
H       -1.98574748      -0.14525541      -1.23706299
H       -0.76630754       1.70424527      -0.11391430
H        0.88352386       1.19260322       1.88389283
H        2.24669346      -1.40432036      -0.23183147
H        0.72013923      -1.72595424       0.74341016
H        1.12029944       0.08663148      -2.26148887
15
Frame=15 idx=011189 GeodesicLength=0.7067341713188487 rxn_smarts="[C:1]([C@@:2]1([H:11])[O:3][C@@:4]2([H:12])[C:5]([H:13])([H:14])[C@@:6]12[O:7][H:15])([H:8])([H:9])[H:10]>>[C:1]([C@@:2]([O:3][H:12])([C@@:6]1([O:7][H:15])[C:4][C:5]1([H:13])[H:14])[H:11])([H:8])([H:9])[H:10]"
C       -1.80691642      -0.18276435      -0.15948162
C       -0.60529992       0.66015384       0.17691474
O       -0.24055909       0.59148761       1.56508037
C        1.50130477       0.30347043       0.88107980
C        1.34121432      -1.01077931       0.20959775
C        0.72599531       0.20146911      -0.39557253
O        1.19844797       0.75352304      -1.57260341
H       -1.65456154      -1.22096745       0.13990204
H       -2.68511812       0.19295248       0.36669762
H       -1.98260473      -0.15007013      -1.23704502
H       -0.76730229       1.70364471      -0.11482126
H        0.88504432       1.20552358       1.89656064
H        2.24548487      -1.41156224      -0.23535647
H        0.71657801      -1.72411597       0.73950693
H        1.12829255       0.08803465      -2.26045958
15
Frame=16 idx=011189 GeodesicLength=0.7537581177562673 rxn_smarts="[C:1]([C@@:2]1([H:11])[O:3][C@@:4]2([H:12])[C:5]([H:13])([H:14])[C@@:6]12[O:7][H:15])([H:8])([H:9])[H:10]>>[C:1]([C@@:2]([O:3][H:12])([C@@:6]1([O:7][H:15])[C:4][C:5]1([H:13])[H:14])[H:11])([H:8])([H:9])[H:10]"
C       -1.80685830      -0.18416721      -0.15887463
C       -0.60638181       0.66005118       0.17772442
O       -0.23961997       0.59412014       1.56525406
C        1.50086401       0.29977195       0.87851187
C        1.34098528      -1.01317039       0.20341335
C        0.72436034       0.19982939      -0.39692869
O        1.19500619       0.75696953      -1.57236467
H       -1.65490401      -1.22141510       0.14408222
H       -2.68567565       0.19283214       0.36523694
H       -1.97950045      -0.15487306      -1.23698154
H       -0.76826874       1.70302339      -0.11575408
H        0.88637032       1.21870051       1.90944759
H        2.24421796      -1.41889930      -0.23891031
H        0.71305075      -1.72230680       0.73556074
H        1.13635407       0.08953363      -2.25941727
