13
Frame=0 idx=003187 GeodesicLength=0.0 rxn_smarts="[C:1]([O:2][C:3]1([H:9])[C:4]([H:10])([H:11])[C:5]1([H:12])[H:13])([H:6])([H:7])[H:8]>>[C:1]([O:2][C:3]1=[C:4]([H:11])[C:5]1([H:12])[H:13])([H:6])([H:7])[H:8].[H:9][H:10]"
C        1.79386475       0.18192426       0.53808762
O        0.83236430      -0.81630196       0.21730522
C       -0.31088403      -0.35335871      -0.29806572
C       -1.61930155      -0.83313822      -0.46735407
C       -1.41543373       0.46403382       0.25739896
H        1.37519691       0.91408997       1.23179693
H        2.13189444       0.68864409      -0.37151970
H        2.63427163      -0.33125638       0.99856367
H        0.23077457       0.27932581      -1.53035811
H       -0.53566776      -0.31020647      -1.58104722
H       -2.01146006      -1.78391052      -0.15044871
H       -1.73040397       1.40660225      -0.19073029
H       -1.37521550       0.49355207       1.34637144
13
Frame=1 idx=003187 GeodesicLength=0.09890273367230493 rxn_smarts="[C:1]([O:2][C:3]1([H:9])[C:4]([H:10])([H:11])[C:5]1([H:12])[H:13])([H:6])([H:7])[H:8]>>[C:1]([O:2][C:3]1=[C:4]([H:11])[C:5]1([H:12])[H:13])([H:6])([H:7])[H:8].[H:9][H:10]"
C        1.79512980       0.18253059       0.54401509
O        0.83480293      -0.81556244       0.22128426
C       -0.30701269      -0.35075627      -0.29844885
C       -1.61460646      -0.83063918      -0.46509327
C       -1.41015578       0.46605371       0.26239705
H        1.37632995       0.91358760       1.23898744
H        2.13407324       0.69200727      -0.36371554
H        2.63611414      -0.33022648       1.00408163
H        0.22230562       0.27269456      -1.54768475
H       -0.55544954      -0.31822512      -1.61283950
H       -2.00751585      -1.78107655      -0.14793247
H       -1.72432303       1.40822714      -0.18662581
H       -1.37969235       0.49138517       1.35157473
13
Frame=2 idx=003187 GeodesicLength=0.19755376372247904 rxn_smarts="[C:1]([O:2][C:3]1([H:9])[C:4]([H:10])([H:11])[C:5]1([H:12])[H:13])([H:6])([H:7])[H:8]>>[C:1]([O:2][C:3]1=[C:4]([H:11])[C:5]1([H:12])[H:13])([H:6])([H:7])[H:8].[H:9][H:10]"
C        1.79659755       0.18326059       0.55012155
O        0.83745644      -0.81479009       0.22564616
C       -0.30288143      -0.34810994      -0.29845075
C       -1.60961459      -0.82797304      -0.46313349
C       -1.40476543       0.46805009       0.26751310
H        1.37765930       0.91326701       1.24630230
H        2.13636553       0.69538763      -0.35581805
H        2.63821079      -0.32897878       1.00979545
H        0.21345262       0.26509826      -1.56517283
H       -0.57668493      -0.32609966      -1.64525746
H       -2.00348428      -1.77810520      -0.14598752
H       -1.71784943       1.40995279      -0.18238157
H       -1.38446212       0.48904034       1.35682310
13
Frame=3 idx=003187 GeodesicLength=0.2961460207300347 rxn_smarts="[C:1]([O:2][C:3]1([H:9])[C:4]([H:10])([H:11])[C:5]1([H:12])[H:13])([H:6])([H:7])[H:8]>>[C:1]([O:2][C:3]1=[C:4]([H:11])[C:5]1([H:12])[H:13])([H:6])([H:7])[H:8].[H:9][H:10]"
C        1.79829302       0.18412997       0.55643331
O        0.84035391      -0.81398541       0.23044380
C       -0.29845521      -0.34542349      -0.29802647
C       -1.60429344      -0.82513198      -0.46151079
C       -1.39925492       0.47001346       0.27275232
H        1.37920752       0.91315059       1.25375803
H        2.13879023       0.69878807      -0.34781343
H        2.64059318      -0.32748159       1.01573564
H        0.20420072       0.25638267      -1.58283465
H       -0.59958385      -0.33373595      -1.67838615
H       -1.99935399      -1.77498026      -0.14467084
H       -1.71094470       1.41177674      -0.17798660
H       -1.38955248       0.48649719       1.36210584
13
Frame=4 idx=003187 GeodesicLength=0.3949093392139648 rxn_smarts="[C:1]([O:2][C:3]1([H:9])[C:4]([H:10])([H:11])[C:5]1([H:12])[H:13])([H:6])([H:7])[H:8]>>[C:1]([O:2][C:3]1=[C:4]([H:11])[C:5]1([H:12])[H:13])([H:6])([H:7])[H:8].[H:9][H:10]"
C        1.80024695       0.18516055       0.56297849
O        0.84353130      -0.81314812       0.23575434
C       -0.29369141      -0.34270561      -0.29711026
C       -1.59859470      -0.82210451      -0.46027588
C       -1.39361434       0.47193000       0.27812132
H        1.38100153       0.91327761       1.26136255
H        2.14136803       0.70220145      -0.33969544
H        2.64330079      -0.32568893       1.02194074
H        0.19452536       0.24630959      -1.60066314
H       -0.62440949      -0.34097416      -1.71233489
H       -1.99510104      -1.77167958      -0.14406674
H       -1.70355184       1.41369844      -0.17341946
H       -1.39501113       0.48372326       1.36740834
13
Frame=5 idx=003187 GeodesicLength=0.4939859010984915 rxn_smarts="[C:1]([O:2][C:3]1([H:9])[C:4]([H:10])([H:11])[C:5]1([H:12])[H:13])([H:6])([H:7])[H:8]>>[C:1]([O:2][C:3]1=[C:4]([H:11])[C:5]1([H:12])[H:13])([H:6])([H:7])[H:8].[H:9][H:10]"
C        1.80249779       0.18638497       0.56978474
O        0.84702623      -0.81227782       0.24169699
C       -0.28853886      -0.33997244      -0.29561472
C       -1.59246728      -0.81886978      -0.45950546
C       -1.38783584       0.47377478       0.28363711
H        1.38307962       0.91373081       1.26909278
H        2.14412908       0.70559186      -0.33148485
H        2.64637829      -0.32352995       1.02846968
H        0.18439420       0.23455939      -1.61866428
H       -0.65144823      -0.34758539      -1.74718548
H       -1.99071383      -1.76818010      -0.14431478
H       -1.69559217       1.41572430      -0.16864001
H       -1.40090900       0.48064936       1.37272828
13
Frame=6 idx=003187 GeodesicLength=0.5933771240895842 rxn_smarts="[C:1]([O:2][C:3]1([H:9])[C:4]([H:10])([H:11])[C:5]1([H:12])[H:13])([H:6])([H:7])[H:8]>>[C:1]([O:2][C:3]1=[C:4]([H:11])[C:5]1([H:12])[H:13])([H:6])([H:7])[H:8].[H:9][H:10]"
C        1.80508063       0.18783163       0.57688225
O        0.85087178      -0.81137002       0.24837689
C       -0.28294714      -0.33724093      -0.29348325
C       -1.58585604      -0.81541615      -0.45927017
C       -1.38190709       0.47552075       0.28930270
H        1.38547226       0.91458371       1.27692197
H        2.14711288       0.70891966      -0.32318679
H        2.64985888      -0.32094026       1.03539076
H        0.17375653       0.22081393      -1.63683484
H       -0.68098758      -0.35330473      -1.78299289
H       -1.98615867      -1.76446197      -0.14552690
H       -1.68699757       1.41784766      -0.16361837
H       -1.40729888       0.47721672       1.37803866
13
Frame=7 idx=003187 GeodesicLength=0.69309610515476 rxn_smarts="[C:1]([O:2][C:3]1([H:9])[C:4]([H:10])([H:11])[C:5]1([H:12])[H:13])([H:6])([H:7])[H:8]>>[C:1]([O:2][C:3]1=[C:4]([H:11])[C:5]1([H:12])[H:13])([H:6])([H:7])[H:8].[H:9][H:10]"
C        1.80803715       0.18953989       0.58429596
O        0.85510696      -0.81042025       0.25594937
C       -0.27686064      -0.33454177      -0.29061404
C       -1.57868459      -0.81171424      -0.45966918
C       -1.37581790       0.47713212       0.29513084
H        1.38821899       0.91595146       1.28479378
H        2.15035457       0.71211751      -0.31484027
H        2.65378783      -0.31782576       1.04277829
H        0.16254097       0.20463106      -1.65515695
H       -0.71333019      -0.35777273      -1.81980568
H       -1.98140476      -1.76049765      -0.14787871
H       -1.67766802       1.42006987      -0.15830032
H       -1.41428036       0.47333049       1.38331690
13
Frame=8 idx=003187 GeodesicLength=0.7930124260015708 rxn_smarts="[C:1]([O:2][C:3]1([H:9])[C:4]([H:10])([H:11])[C:5]1([H:12])[H:13])([H:6])([H:7])[H:8]>>[C:1]([O:2][C:3]1=[C:4]([H:11])[C:5]1([H:12])[H:13])([H:6])([H:7])[H:8].[H:9][H:10]"
C        1.81141278       0.19154958       0.59205550
O        0.85977369      -0.80942742       0.26456220
C       -0.27021477      -0.33191153      -0.28693177
C       -1.57088192      -0.80773712      -0.46081029
C       -1.36956019       0.47856307       0.30112550
H        1.39135952       0.91796076       1.29264754
H        2.15390679       0.71511321      -0.30648381
H        2.65820597      -0.31409454       1.05072801
H        0.15062299       0.18556973      -1.67361977
H       -0.74875691      -0.36061017      -1.85760574
H       -1.97641879      -1.75624526      -0.15154857
H       -1.66750998       1.42237341      -0.15263802
H       -1.42193920       0.46889627       1.38851923
13
Frame=9 idx=003187 GeodesicLength=0.8920231415555427 rxn_smarts="[C:1]([O:2][C:3]1([H:9])[C:4]([H:10])([H:11])[C:5]1([H:12])[H:13])([H:6])([H:7])[H:8]>>[C:1]([O:2][C:3]1=[C:4]([H:11])[C:5]1([H:12])[H:13])([H:6])([H:7])[H:8].[H:9][H:10]"
C        1.81520911       0.19390743       0.60013437
O        0.86482233      -0.80833018       0.27435095
C       -0.26301520      -0.32936095      -0.28243459
C       -1.56235258      -0.80344567      -0.46280492
C       -1.36314163       0.47974331       0.30726607
H        1.39490294       0.92078931       1.30029918
H        2.15783701       0.71775545      -0.29820648
H        2.66306129      -0.30965509       1.05932071
H        0.13781496       0.16289663      -1.69211001
H       -0.78725828      -0.36109196      -1.89609853
H       -1.97110519      -1.75174143      -0.15672834
H       -1.65645861       1.42478609      -0.14656249
H       -1.43031614       0.46374707       1.39357406
13
Frame=10 idx=003187 GeodesicLength=0.9907480774177282 rxn_smarts="[C:1]([O:2][C:3]1([H:9])[C:4]([H:10])([H:11])[C:5]1([H:12])[H:13])([H:6])([H:7])[H:8]>>[C:1]([O:2][C:3]1=[C:4]([H:11])[C:5]1([H:12])[H:13])([H:6])([H:7])[H:8].[H:9][H:10]"
C        1.81950052       0.19666133       0.60856610
O        0.87035338      -0.80715544       0.28548933
C       -0.25515892      -0.32693840      -0.27694685
C       -1.55306337      -0.79878151      -0.46580236
C       -1.35656257       0.48064531       0.31359698
H        1.39891806       0.92455714       1.30771977
H        2.16217004       0.72000534      -0.29006754
H        2.66846538      -0.30438579       1.06862405
H        0.12387987       0.13629929      -1.71059803
H       -0.82901721      -0.35912966      -1.93537221
H       -1.96552017      -1.74685669      -0.16369375
H       -1.64437547       1.42728421      -0.13998337
H       -1.43958951       0.45779488       1.39846788
13
Frame=11 idx=003187 GeodesicLength=1.0891217431390192 rxn_smarts="[C:1]([O:2][C:3]1([H:9])[C:4]([H:10])([H:11])[C:5]1([H:12])[H:13])([H:6])([H:7])[H:8]>>[C:1]([O:2][C:3]1=[C:4]([H:11])[C:5]1([H:12])[H:13])([H:6])([H:7])[H:8].[H:9][H:10]"
C        1.82430753       0.19983420       0.61734601
O        0.87637261      -0.80587962       0.29805683
C       -0.24662732      -0.32465879      -0.27042393
C       -1.54296279      -0.79369486      -0.46988304
C       -1.34982504       0.48124068       0.32011688
H        1.40342852       0.92934355       1.31483577
H        2.16694025       0.72179755      -0.28210783
H        2.67442546      -0.29823262       1.07867216
H        0.10854068       0.10548517      -1.72895788
H       -0.87393502      -0.35451892      -1.97534308
H       -1.95962444      -1.74154640      -0.17258656
H       -1.63121797       1.42986981      -0.13285133
H       -1.44982248       0.45096024       1.40312600
13
Frame=12 idx=003187 GeodesicLength=1.187068940354043 rxn_smarts="[C:1]([O:2][C:3]1([H:9])[C:4]([H:10])([H:11])[C:5]1([H:12])[H:13])([H:6])([H:7])[H:8]>>[C:1]([O:2][C:3]1=[C:4]([H:11])[C:5]1([H:12])[H:13])([H:6])([H:7])[H:8].[H:9][H:10]"
C        1.82963373       0.20342493       0.62646498
O        0.88288433      -0.80448877       0.31204229
C       -0.23741434      -0.32253695      -0.26288419
C       -1.53202942      -0.78814027      -0.47509368
C       -1.34292924       0.48151763       0.32679791
H        1.40842878       0.93515446       1.32161069
H        2.17216702       0.72311106      -0.27433418
H        2.68093366      -0.29118710       1.08946565
H        0.09145452       0.07043677      -1.74704790
H       -0.92173157      -0.34728856      -2.01586357
H       -1.95339625      -1.73575140      -0.18346431
H       -1.61697654       1.43252824      -0.12515222
H       -1.46102468       0.44321997       1.40745852
13
Frame=13 idx=003187 GeodesicLength=1.2844709627368265 rxn_smarts="[C:1]([O:2][C:3]1([H:9])[C:4]([H:10])([H:11])[C:5]1([H:12])[H:13])([H:6])([H:7])[H:8]>>[C:1]([O:2][C:3]1=[C:4]([H:11])[C:5]1([H:12])[H:13])([H:6])([H:7])[H:8].[H:9][H:10]"
C        1.83545978       0.20739542       0.63589180
O        0.88986891      -0.80297648       0.32733082
C       -0.22755872      -0.32057482      -0.25440232
C       -1.52028323      -0.78209327      -0.48141156
C       -1.33587770       0.48149478       0.33360119
H        1.41390539       0.94190398       1.32805863
H        2.17782716       0.72397020      -0.26673291
H        2.68797013      -0.28332746       1.10093831
H        0.07217947       0.03151017      -1.76466448
H       -0.97180042      -0.33774783      -2.05679106
H       -1.94682113      -1.72943504      -0.19625793
H       -1.60170828       1.43524183      -0.11693703
H       -1.47316135       0.43463853       1.41137655
13
Frame=14 idx=003187 GeodesicLength=1.3816516402560157 rxn_smarts="[C:1]([O:2][C:3]1([H:9])[C:4]([H:10])([H:11])[C:5]1([H:12])[H:13])([H:6])([H:7])[H:8]>>[C:1]([O:2][C:3]1=[C:4]([H:11])[C:5]1([H:12])[H:13])([H:6])([H:7])[H:8].[H:9][H:10]"
C        1.84174470       0.21165963       0.64564667
O        0.89731315      -0.80134954       0.34358903
C       -0.21708859      -0.31871810      -0.24522982
C       -1.50778315      -0.77555735      -0.48871833
C       -1.32863184       0.48123802       0.34042701
H        1.41977927       0.94932895       1.33437645
H        2.18394129       0.72454848      -0.25912493
H        2.69546125      -0.27486691       1.11302492
H        0.05049770      -0.01027085      -1.78170801
H       -1.02379263      -0.32682284      -2.09801695
H       -1.93988116      -1.72257826      -0.21065169
H       -1.58556350       1.43798784      -0.10836227
H       -1.48599650       0.42540093       1.41474792
13
Frame=15 idx=003187 GeodesicLength=1.478808465825668 rxn_smarts="[C:1]([O:2][C:3]1([H:9])[C:4]([H:10])([H:11])[C:5]1([H:12])[H:13])([H:6])([H:7])[H:8]>>[C:1]([O:2][C:3]1=[C:4]([H:11])[C:5]1([H:12])[H:13])([H:6])([H:7])[H:8].[H:9][H:10]"
C        1.84843380       0.21610905       0.65573958
O        0.90518854      -0.79962002       0.36044463
C       -0.20605650      -0.31690145      -0.23563715
C       -1.49460457      -0.76854374      -0.49686440
C       -1.32115015       0.48083528       0.34717658
H        1.42596851       0.95710989       1.34077857
H        2.19049686       0.72503094      -0.25131397
H        2.70333059      -0.26605720       1.12562675
H        0.02620949      -0.05365540      -1.79807821
H       -1.07726661      -0.31562273      -2.13945351
H       -1.93255606      -1.71517346      -0.22627861
H       -1.56871610       1.44075512      -0.09960951
H       -1.49927781       0.41573373       1.41746925
13
Frame=16 idx=003187 GeodesicLength=1.5760779133448855 rxn_smarts="[C:1]([O:2][C:3]1([H:9])[C:4]([H:10])([H:11])[C:5]1([H:12])[H:13])([H:6])([H:7])[H:8]>>[C:1]([O:2][C:3]1=[C:4]([H:11])[C:5]1([H:12])[H:13])([H:6])([H:7])[H:8].[H:9][H:10]"
C        1.85546497       0.22061734       0.66619917
O        0.91346370      -0.79780626       0.37746957
C       -0.19450939      -0.31503403      -0.22594981
C       -1.48083811      -0.76107794      -0.50567326
C       -1.31337334       0.48039349       0.35373834
H        1.43237377       0.96488052       1.34753479
H        2.19749605       0.72563843      -0.24305683
H        2.71148259      -0.25719723       1.13865392
H       -0.00072965      -0.09717004      -1.81372834
H       -1.13195068      -0.30545336      -2.18103688
H       -1.92482424      -1.70722914      -0.24270773
H       -1.55136245       1.44353943      -0.09089100
H       -1.51269322       0.40589879       1.41944804
