13
Frame=0 idx=006089 GeodesicLength=0.0 rxn_smarts="[C:1]([C@@:2]1([H:10])[N:3]([H:11])[C@:4]1([C:5](=[O:6])[H:13])[H:12])([H:7])([H:8])[H:9]>>[C:1]([C@@:2]1([H:10])[N:3]([H:11])/[C:4]1=[C:5](/[O:6][H:12])[H:13])([H:7])([H:8])[H:9]"
C       -0.94797750      -0.45922854       1.23198269
C       -0.46710502      -0.73444270      -0.16435850
N       -0.91475972       0.16144532      -1.20961456
C        0.50779585       0.14156313      -0.89705278
C        1.19730221       1.21529585      -0.29295605
O        2.40993626       0.86610899      -0.16322666
H       -1.10486447       0.61033527       1.37761736
H       -0.22723865      -0.81319629       1.97223842
H       -1.89669858      -0.96936481       1.41422955
H       -0.38302140      -1.78875920      -0.41683798
H       -1.07346713      -0.33355720      -2.07942055
H        2.01587123      -0.11082002      -0.78173441
H        0.88422692       2.21462017       0.00913343
13
Frame=1 idx=006089 GeodesicLength=0.042798214374800234 rxn_smarts="[C:1]([C@@:2]1([H:10])[N:3]([H:11])[C@:4]1([C:5](=[O:6])[H:13])[H:12])([H:7])([H:8])[H:9]>>[C:1]([C@@:2]1([H:10])[N:3]([H:11])/[C:4]1=[C:5](/[O:6][H:12])[H:13])([H:7])([H:8])[H:9]"
C       -0.95308078      -0.46599221       1.23571608
C       -0.46657446      -0.73471520      -0.16005117
N       -0.91136686       0.16590382      -1.20416349
C        0.50826328       0.14396719      -0.88484142
C        1.20135474       1.22051820      -0.29103444
O        2.41844806       0.87613522      -0.17700526
H       -1.10563982       0.60328088       1.38753451
H       -0.23738677      -0.82822208       1.97691109
H       -1.90488315      -0.97305594       1.41006625
H       -0.38222111      -1.78785954      -0.41767652
H       -1.06719954      -0.32452976      -2.07708094
H        2.01534213      -0.12341052      -0.77708115
H        0.88494429       2.22797993      -0.02129353
13
Frame=2 idx=006089 GeodesicLength=0.08553560049798012 rxn_smarts="[C:1]([C@@:2]1([H:10])[N:3]([H:11])[C@:4]1([C:5](=[O:6])[H:13])[H:12])([H:7])([H:8])[H:9]>>[C:1]([C@@:2]1([H:10])[N:3]([H:11])/[C:4]1=[C:5](/[O:6][H:12])[H:13])([H:7])([H:8])[H:9]"
C       -0.95831908      -0.47278692       1.23947936
C       -0.46599293      -0.73490936      -0.15561728
N       -0.90787348       0.17043888      -1.19858096
C        0.50875074       0.14661547      -0.87227884
C        1.20549398       1.22591985      -0.28882533
O        2.42687216       0.88610242      -0.19139843
H       -1.10665092       0.59611774       1.39756017
H       -0.24776400      -0.84326842       1.98158285
H       -1.91313634      -0.97678481       1.40580378
H       -0.38118711      -1.78683055      -0.41842754
H       -1.06060556      -0.31538234      -2.07462997
H        2.01468755      -0.13583594      -0.77257576
H        0.88572501       2.24060397      -0.05209204
13
Frame=3 idx=006089 GeodesicLength=0.1281627971174263 rxn_smarts="[C:1]([C@@:2]1([H:10])[N:3]([H:11])[C@:4]1([C:5](=[O:6])[H:13])[H:12])([H:7])([H:8])[H:9]>>[C:1]([C@@:2]1([H:10])[N:3]([H:11])/[C:4]1=[C:5](/[O:6][H:12])[H:13])([H:7])([H:8])[H:9]"
C       -0.96364207      -0.47955134       1.24324764
C       -0.46535660      -0.73501693      -0.15108509
N       -0.90429437       0.17502163      -1.19291979
C        0.50924583       0.14949844      -0.85943244
C        1.20971543       1.23154000      -0.28650008
O        2.43510867       0.89589399      -0.20619122
H       -1.10789778       0.58890819       1.40762103
H       -0.25827404      -0.85820264       1.98622109
H       -1.92137890      -0.98052110       1.40147838
H       -0.37990424      -1.78567290      -0.41907931
H       -1.05371328      -0.30617906      -2.07209666
H        2.01389488      -0.14808096      -0.76833024
H        0.88649648       2.25236270      -0.08293330
13
Frame=4 idx=006089 GeodesicLength=0.17063292644727446 rxn_smarts="[C:1]([C@@:2]1([H:10])[N:3]([H:11])[C@:4]1([C:5](=[O:6])[H:13])[H:12])([H:7])([H:8])[H:9]>>[C:1]([C@@:2]1([H:10])[N:3]([H:11])/[C:4]1=[C:5](/[O:6][H:12])[H:13])([H:7])([H:8])[H:9]"
C       -0.96899575      -0.48622391       1.24699451
C       -0.46466335      -0.73503289      -0.14648587
N       -0.90064650       0.17961752      -1.18723598
C        0.50973540       0.15259790      -0.84638035
C        1.21401089       1.23740505      -0.28424895
O        2.44306692       0.90539144      -0.22112452
H       -1.10937115       0.58171646       1.41763806
H       -0.26881375      -0.87288997       1.99079180
H       -1.92953023      -0.98423362       1.39712981
H       -0.37836614      -1.78439098      -0.41962042
H       -1.04656036      -0.29699165      -2.06951052
H        2.01295014      -0.16013705      -0.76447275
H        0.88718388       2.26317170      -0.11347481
13
Frame=5 idx=006089 GeodesicLength=0.21292004007824264 rxn_smarts="[C:1]([C@@:2]1([H:10])[N:3]([H:11])[C@:4]1([C:5](=[O:6])[H:13])[H:12])([H:7])([H:8])[H:9]>>[C:1]([C@@:2]1([H:10])[N:3]([H:11])/[C:4]1=[C:5](/[O:6][H:12])[H:13])([H:7])([H:8])[H:9]"
C       -0.97432551      -0.49274849       1.25070201
C       -0.46391320      -0.73496450      -0.14185470
N       -0.89696076       0.18419742      -1.18159809
C        0.51020609       0.15588901      -0.83319891
C        1.21836867       1.24354017      -0.28223305
O        2.45069018       0.91447908      -0.23591899
H       -1.11105563       0.57461943       1.42754838
H       -0.27927108      -0.88721459       1.99528328
H       -1.93751737      -0.98789529       1.39279434
H       -0.37657270      -1.78301761      -0.42005315
H       -1.03920655      -0.28789244      -2.06692762
H        2.01183961      -0.17200527      -0.76112600
H        0.88771824       2.27301307      -0.14341749
13
Frame=6 idx=006089 GeodesicLength=0.2549558590725424 rxn_smarts="[C:1]([C@@:2]1([H:10])[N:3]([H:11])[C@:4]1([C:5](=[O:6])[H:13])[H:12])([H:7])([H:8])[H:9]>>[C:1]([C@@:2]1([H:10])[N:3]([H:11])/[C:4]1=[C:5](/[O:6][H:12])[H:13])([H:7])([H:8])[H:9]"
C       -0.97961453      -0.49908984       1.25432059
C       -0.46310663      -0.73477753      -0.13720020
N       -0.89320973       0.18870834      -1.17598252
C        0.51064470       0.15936033      -0.81994878
C        1.22277476       1.24984047      -0.28063048
O        2.45789453       0.92316828      -0.25047882
H       -1.11298027       0.56759437       1.43723816
H       -0.28960941      -0.90103831       1.99960087
H       -1.94528465      -0.99150856       1.38850153
H       -0.37452295      -1.78145904      -0.42033273
H       -1.03162390      -0.27892573      -2.06425569
H        2.01055519      -0.18374772      -0.75838538
H        0.88808290       2.28187494      -0.17244656
13
Frame=7 idx=006089 GeodesicLength=0.29682437046984533 rxn_smarts="[C:1]([C@@:2]1([H:10])[N:3]([H:11])[C@:4]1([C:5](=[O:6])[H:13])[H:12])([H:7])([H:8])[H:9]>>[C:1]([C@@:2]1([H:10])[N:3]([H:11])/[C:4]1=[C:5](/[O:6][H:12])[H:13])([H:7])([H:8])[H:9]"
C       -0.98485293      -0.50527147       1.25790286
C       -0.46223728      -0.73452111      -0.13252579
N       -0.88942744       0.19318773      -1.17044969
C        0.51106245       0.16299921      -0.80661373
C        1.22721887       1.25642366      -0.27936258
O        2.46479089       0.93135940      -0.26460071
H       -1.11508614       0.56069955       1.44680249
H       -0.29981943      -0.91447972       2.00385896
H       -1.95286348      -0.99506822       1.38424187
H       -0.37223470      -1.77984397      -0.42050188
H       -1.02387858      -0.27008967      -2.06161690
H        2.00906599      -0.19530990      -0.75633288
H        0.88826179       2.28991451      -0.20080200
13
Frame=8 idx=006089 GeodesicLength=0.33845478399814055 rxn_smarts="[C:1]([C@@:2]1([H:10])[N:3]([H:11])[C@:4]1([C:5](=[O:6])[H:13])[H:12])([H:7])([H:8])[H:9]>>[C:1]([C@@:2]1([H:10])[N:3]([H:11])/[C:4]1=[C:5](/[O:6][H:12])[H:13])([H:7])([H:8])[H:9]"
C       -0.99002402      -0.51127759       1.26142311
C       -0.46131536      -0.73418287      -0.12784851
N       -0.88562450       0.19760809      -1.16499898
C        0.51144189       0.16679766      -0.79323324
C        1.23167982       1.26322287      -0.27852438
O        2.47134043       0.93906484      -0.27817960
H       -1.11740211       0.55393046       1.45618063
H       -0.30983907      -0.92744854       2.00801122
H       -1.96021316      -0.99860143       1.38003971
H       -0.36971263      -1.77814074      -0.42055758
H       -1.01598876      -0.26141240      -2.05898429
H        2.00736071      -0.20674387      -0.75498825
H        0.88829676       2.29718352      -0.22833985
13
Frame=9 idx=006089 GeodesicLength=0.3799555491502943 rxn_smarts="[C:1]([C@@:2]1([H:10])[N:3]([H:11])[C@:4]1([C:5](=[O:6])[H:13])[H:12])([H:7])([H:8])[H:9]>>[C:1]([C@@:2]1([H:10])[N:3]([H:11])/[C:4]1=[C:5](/[O:6][H:12])[H:13])([H:7])([H:8])[H:9]"
C       -0.99517132      -0.51713079       1.26489779
C       -0.46031781      -0.73377527      -0.12313007
N       -0.88174745       0.20196716      -1.15959953
C        0.51182128       0.17074197      -0.77975183
C        1.23618874       1.27019939      -0.27804293
O        2.47764269       0.94640484      -0.29141849
H       -1.11989650       0.54727279       1.46541910
H       -0.31979478      -0.94005693       2.01209674
H       -1.96742076      -1.00206614       1.37584303
H       -0.36695930      -1.77635492      -0.42046546
H       -1.00788109      -0.25288332      -2.05632787
H        2.00540524      -0.21807530      -0.75442005
H        0.88813106       2.30375654      -0.25510043
13
Frame=10 idx=006089 GeodesicLength=0.421269964935819 rxn_smarts="[C:1]([C@@:2]1([H:10])[N:3]([H:11])[C@:4]1([C:5](=[O:6])[H:13])[H:12])([H:7])([H:8])[H:9]>>[C:1]([C@@:2]1([H:10])[N:3]([H:11])/[C:4]1=[C:5](/[O:6][H:12])[H:13])([H:7])([H:8])[H:9]"
C       -1.00025796      -0.52282581       1.26831336
C       -0.45925827      -0.73328080      -0.11839480
N       -0.87782417       0.20626119      -1.15427772
C        0.51215320       0.17483624      -0.76620836
C        1.24067749       1.27733713      -0.27795443
O        2.48365667       0.95329001      -0.30405990
H       -1.12261064       0.54070703       1.47446393
H       -0.32957872      -0.95219953       2.01610337
H       -1.97439120      -1.00552227       1.37168865
H       -0.36397619      -1.77445997      -0.42024155
H       -0.99960858      -0.24450966      -2.05366687
H        2.00316972      -0.22932964      -0.75466401
H        0.88784865       2.30969608      -0.28110168
13
Frame=11 idx=006089 GeodesicLength=0.4624840819958521 rxn_smarts="[C:1]([C@@:2]1([H:10])[N:3]([H:11])[C@:4]1([C:5](=[O:6])[H:13])[H:12])([H:7])([H:8])[H:9]>>[C:1]([C@@:2]1([H:10])[N:3]([H:11])/[C:4]1=[C:5](/[O:6][H:12])[H:13])([H:7])([H:8])[H:9]"
C       -1.00532870      -0.52838390       1.27168633
C       -0.45812758      -0.73272528      -0.11361827
N       -0.87383633       0.21049467      -1.14900463
C        0.51248589       0.17907251      -0.75255997
C        1.24520297       1.28462141      -0.27820752
O        2.48948382       0.95984257      -0.31628730
H       -1.12553310       0.53425024       1.48336609
H       -0.33927830      -0.96397887       2.02005814
H       -1.98122917      -1.00895382       1.36754141
H       -0.36076968      -1.77250368      -0.41987489
H       -0.99114330      -0.23629228      -2.05098156
H        2.00065526      -0.24053565      -0.75573850
H        0.88741822       2.31509208      -0.30637934
13
Frame=12 idx=006089 GeodesicLength=0.503611910932334 rxn_smarts="[C:1]([C@@:2]1([H:10])[N:3]([H:11])[C@:4]1([C:5](=[O:6])[H:13])[H:12])([H:7])([H:8])[H:9]>>[C:1]([C@@:2]1([H:10])[N:3]([H:11])/[C:4]1=[C:5](/[O:6][H:12])[H:13])([H:7])([H:8])[H:9]"
C       -1.01040227      -0.53383344       1.27502892
C       -0.45691662      -0.73210300      -0.10877738
N       -0.86975945       0.21467850      -1.14375350
C        0.51282232       0.18345591      -0.73876034
C        1.24975217       1.29204272      -0.27875458
O        2.49514713       0.96611079      -0.32816641
H       -1.12865535       0.52786244       1.49216198
H       -0.34895049      -0.97547086       2.02398107
H       -1.98795978      -1.01236495       1.36337295
H       -0.35733340      -1.77046636      -0.41935708
H       -0.98244667      -0.22819743      -2.04825296
H        1.99782734      -0.25170863      -0.75763576
H        0.88687506       2.31999430      -0.33108692
13
Frame=13 idx=006089 GeodesicLength=0.5446871757345759 rxn_smarts="[C:1]([C@@:2]1([H:10])[N:3]([H:11])[C@:4]1([C:5](=[O:6])[H:13])[H:12])([H:7])([H:8])[H:9]>>[C:1]([C@@:2]1([H:10])[N:3]([H:11])/[C:4]1=[C:5](/[O:6][H:12])[H:13])([H:7])([H:8])[H:9]"
C       -1.01549994      -0.53919530       1.27835188
C       -0.45561551      -0.73141445      -0.10385026
N       -0.86557662       0.21881845      -1.13850057
C        0.51317106       0.18799478      -0.72477023
C        1.25432597       1.29959966      -0.27955802
O        2.50068095       0.97213819      -0.33975716
H       -1.13197819       0.52152268       1.50088316
H       -0.35864981      -0.98673863       2.02789172
H       -1.99461777      -1.01575860       1.35915385
H       -0.35365535      -1.76834671      -0.41867399
H       -0.97349050      -0.22021020      -2.04546172
H        1.99465885      -0.26285750      -0.76038230
H        0.88624688       2.32444762      -0.35532636
13
Frame=14 idx=006089 GeodesicLength=0.5857127553450499 rxn_smarts="[C:1]([C@@:2]1([H:10])[N:3]([H:11])[C@:4]1([C:5](=[O:6])[H:13])[H:12])([H:7])([H:8])[H:9]>>[C:1]([C@@:2]1([H:10])[N:3]([H:11])/[C:4]1=[C:5](/[O:6][H:12])[H:13])([H:7])([H:8])[H:9]"
C       -1.02064316      -0.54448644       1.28166447
C       -0.45421101      -0.73066032      -0.09881374
N       -0.86126285       0.22291652      -1.13322412
C        0.51355141       0.19268758      -0.71054927
C        1.25893876       1.30727916      -0.28059443
O        2.50610335       0.97798088      -0.35114982
H       -1.13549368       0.51521265       1.50956119
H       -0.36843704      -0.99784675       2.03180704
H       -2.00124399      -1.01911878       1.35485327
H       -0.34972362      -1.76614319      -0.41780822
H       -0.96423584      -0.21232098      -2.04259115
H        1.99111635      -0.27398786      -0.76399917
H        0.88554130       2.32848752      -0.37915605
13
Frame=15 idx=006089 GeodesicLength=0.6266639050196648 rxn_smarts="[C:1]([C@@:2]1([H:10])[N:3]([H:11])[C@:4]1([C:5](=[O:6])[H:13])[H:12])([H:7])([H:8])[H:9]>>[C:1]([C@@:2]1([H:10])[N:3]([H:11])/[C:4]1=[C:5](/[O:6][H:12])[H:13])([H:7])([H:8])[H:9]"
C       -1.02581931      -0.54969118       1.28495774
C       -0.45270289      -0.72983854      -0.09367682
N       -0.85681776       0.22697050      -1.12793722
C        0.51396005       0.19753367      -0.69611822
C        1.26357813       1.31506353      -0.28185701
O        2.51142192       0.98359280      -0.36223886
H       -1.13925748       0.50895104       1.51814638
H       -0.37825247      -1.00870107       2.03572563
H       -2.00779001      -1.02249708       1.35049242
H       -0.34554706      -1.76385740      -0.41675814
H       -0.95469823      -0.20454179      -2.03964443
H        1.98716057      -0.28510403      -0.76857106
H        0.88476455       2.33211956      -0.40252043
13
Frame=16 idx=006089 GeodesicLength=0.6675797322379483 rxn_smarts="[C:1]([C@@:2]1([H:10])[N:3]([H:11])[C@:4]1([C:5](=[O:6])[H:13])[H:12])([H:7])([H:8])[H:9]>>[C:1]([C@@:2]1([H:10])[N:3]([H:11])/[C:4]1=[C:5](/[O:6][H:12])[H:13])([H:7])([H:8])[H:9]"
C       -1.03104675      -0.55482619       1.28824162
C       -0.45107723      -0.72895002      -0.08841817
N       -0.85221858       0.23098439      -1.12261996
C        0.51441367       0.20253376      -0.68144059
C        1.26825069       1.32294733      -0.28332089
O        2.51665666       0.98902162      -0.37309028
H       -1.14325801       0.50272219       1.52667163
H       -0.38815202      -1.01936621       2.03966639
H       -2.01429179      -1.02587866       1.34604209
H       -0.34110863      -1.76148893      -0.41550889
H       -0.94484414      -0.19685843      -2.03660827
H        1.98275490      -0.29621642      -0.77412051
H        0.88392123       2.33537556      -0.42549419
