14
Frame=0 idx=006646 GeodesicLength=0.0 rxn_smarts="[C:1]1([H:8])([H:9])[N:2]([H:10])[C@:3]12[C@:4]1([H:11])[C:5]([H:12])([H:13])[C@@:6]2([H:14])[O:7]1>>[C-:1]([N:2]([C+:3]1[C@:4]2([H:11])[C:5]([H:12])([H:13])[C@@:6]1([H:14])[O:7]2)[H:10])([H:8])[H:9]"
C       -1.98680482      -1.04627064       0.26548318
N       -1.63861020       0.25487046       0.00988121
C       -0.33201689       0.15208144      -0.11821178
C        0.84749052       0.07537352       0.82842963
C        1.75979798      -0.20178271      -0.38128408
C        0.80361004       0.94629982      -0.75982491
O        1.04984081       1.52754994       0.58342618
H       -2.66041071      -1.27774850       1.08366886
H       -1.78545821      -1.78339294      -0.49189282
H       -2.23255817       1.06880976      -0.11656004
H        0.90494403      -0.28680631       1.85172070
H        1.64560736      -1.15543935      -0.89490248
H        2.79454819       0.10784168      -0.24546042
H        0.83002010       1.61861387      -1.61447324
14
Frame=1 idx=006646 GeodesicLength=0.03715775646428751 rxn_smarts="[C:1]1([H:8])([H:9])[N:2]([H:10])[C@:3]12[C@:4]1([H:11])[C:5]([H:12])([H:13])[C@@:6]2([H:14])[O:7]1>>[C-:1]([N:2]([C+:3]1[C@:4]2([H:11])[C:5]([H:12])([H:13])[C@@:6]1([H:14])[O:7]2)[H:10])([H:8])[H:9]"
C       -1.97283272      -1.04527057       0.25796630
N       -1.64735792       0.25342277      -0.03656437
C       -0.33557643       0.15470867      -0.11693914
C        0.84330198       0.07672096       0.82949957
C        1.75354298      -0.20495779      -0.38110683
C        0.80161433       0.94737003      -0.75796367
O        1.05026354       1.52713740       0.58452038
H       -2.65355836      -1.26192901       1.07407117
H       -1.76066000      -1.80410437      -0.47503114
H       -2.23454976       1.07954295      -0.07655431
H        0.89946126      -0.28549057       1.85288357
H        1.63484838      -1.15726584      -0.89645814
H        2.79004626       0.09954495      -0.24646822
H        0.83145646       1.62057040      -1.61185515
14
Frame=2 idx=006646 GeodesicLength=0.07498984411043735 rxn_smarts="[C:1]1([H:8])([H:9])[N:2]([H:10])[C@:3]12[C@:4]1([H:11])[C:5]([H:12])([H:13])[C@@:6]2([H:14])[O:7]1>>[C-:1]([N:2]([C+:3]1[C@:4]2([H:11])[C:5]([H:12])([H:13])[C@@:6]1([H:14])[O:7]2)[H:10])([H:8])[H:9]"
C       -1.95857623      -1.04314799       0.25055107
N       -1.65538784       0.25283039      -0.07960761
C       -0.33962266       0.15873074      -0.11337834
C        0.83977427       0.07862898       0.83142432
C        1.74628231      -0.20841839      -0.38107157
C        0.79907512       0.94873759      -0.75534049
O        1.05208202       1.52706735       0.58598885
H       -2.64675024      -1.24712344       1.06341307
H       -1.73647465      -1.82132023      -0.45926542
H       -2.23458649       1.08382457      -0.04222133
H        0.89580417      -0.28338109       1.85491962
H        1.62180249      -1.15931540      -0.89788735
H        2.78486154       0.09025954      -0.24889757
H        0.83171617       1.62262740      -1.60862725
14
Frame=3 idx=006646 GeodesicLength=0.11352220555063217 rxn_smarts="[C:1]1([H:8])([H:9])[N:2]([H:10])[C@:3]12[C@:4]1([H:11])[C:5]([H:12])([H:13])[C@@:6]2([H:14])[O:7]1>>[C-:1]([N:2]([C+:3]1[C@:4]2([H:11])[C:5]([H:12])([H:13])[C@@:6]1([H:14])[O:7]2)[H:10])([H:8])[H:9]"
C       -1.94375276      -1.04029507       0.24396733
N       -1.66250867       0.25325482      -0.11696986
C       -0.34401406       0.16478564      -0.10657961
C        0.83748763       0.08102745       0.83450157
C        1.73784547      -0.21234733      -0.38142183
C        0.79609440       0.95070112      -0.75146339
O        1.05638568       1.52723939       0.58827570
H       -2.64034579      -1.23431998       1.05185644
H       -1.71204094      -1.83495744      -0.44460009
H       -2.23565141       1.08290248      -0.01834055
H        0.89508540      -0.28086451       1.85799139
H        1.60566486      -1.16162114      -0.89952493
H        2.77902168       0.07928077      -0.25346820
H        0.83072852       1.62521380      -1.60422398
14
Frame=4 idx=006646 GeodesicLength=0.15247197079054498 rxn_smarts="[C:1]1([H:8])([H:9])[N:2]([H:10])[C@:3]12[C@:4]1([H:11])[C:5]([H:12])([H:13])[C@@:6]2([H:14])[O:7]1>>[C-:1]([N:2]([C+:3]1[C@:4]2([H:11])[C:5]([H:12])([H:13])[C@@:6]1([H:14])[O:7]2)[H:10])([H:8])[H:9]"
C       -1.92867711      -1.03704426       0.23809195
N       -1.66864974       0.25410683      -0.14991929
C       -0.34857197       0.17195118      -0.09744398
C        0.83620059       0.08365564       0.83841098
C        1.72868442      -0.21650828      -0.38201262
C        0.79271679       0.95297924      -0.74665081
O        1.06232704       1.52747855       0.59115978
H       -2.63426574      -1.22311598       1.03980055
H       -1.68799225      -1.84602715      -0.43086479
H       -2.23746222       1.07913779      -0.00262178
H        0.89676143      -0.27814096       1.86180751
H        1.58760266      -1.16398351      -0.90127139
H        2.77271697       0.06741564      -0.25956411
H        0.82860912       1.62809528      -1.59892200
14
Frame=5 idx=006646 GeodesicLength=0.1919110003552597 rxn_smarts="[C:1]1([H:8])([H:9])[N:2]([H:10])[C@:3]12[C@:4]1([H:11])[C:5]([H:12])([H:13])[C@@:6]2([H:14])[O:7]1>>[C-:1]([N:2]([C+:3]1[C@:4]2([H:11])[C:5]([H:12])([H:13])[C@@:6]1([H:14])[O:7]2)[H:10])([H:8])[H:9]"
C       -1.91322999      -1.03361266       0.23238421
N       -1.67392767       0.25528834      -0.17946431
C       -0.35331453       0.18030961      -0.08640820
C        0.83562313       0.08680362       0.84302924
C        1.71878960      -0.22100555      -0.38262189
C        0.78909888       0.95539087      -0.74129979
O        1.06973118       1.52797930       0.59410340
H       -2.62809085      -1.21375198       1.02699551
H       -1.66403639      -1.85489665      -0.41866765
H       -2.24029694       1.07347864       0.00830786
H        0.90020720      -0.27463904       1.86635463
H        1.56772221      -1.16666121      -0.90259539
H        2.76588852       0.05452764      -0.26676535
H        0.82583565       1.63078908      -1.59335228
14
Frame=6 idx=006646 GeodesicLength=0.23171134911096303 rxn_smarts="[C:1]1([H:8])([H:9])[N:2]([H:10])[C@:3]12[C@:4]1([H:11])[C:5]([H:12])([H:13])[C@@:6]2([H:14])[O:7]1>>[C-:1]([N:2]([C+:3]1[C@:4]2([H:11])[C:5]([H:12])([H:13])[C@@:6]1([H:14])[O:7]2)[H:10])([H:8])[H:9]"
C       -1.89756608      -1.03000953       0.22693221
N       -1.67835970       0.25656351      -0.20656916
C       -0.35819630       0.18947378      -0.07404649
C        0.83553516       0.09018971       0.84810590
C        1.70834158      -0.22568094      -0.38326676
C        0.78528632       0.95794148      -0.73549604
O        1.07812575       1.52853871       0.59718069
H       -2.62179796      -1.20560209       1.01383964
H       -1.64018338      -1.86223523      -0.40727580
H       -2.24385706       1.06659115       0.01520337
H        0.90494178      -0.27084233       1.87131487
H        1.54656004      -1.16940394      -0.90372969
H        2.75858711       0.04099099      -0.27474194
H        0.82258276       1.63348473      -1.58745079
14
Frame=7 idx=006646 GeodesicLength=0.27182587316969603 rxn_smarts="[C:1]1([H:8])([H:9])[N:2]([H:10])[C@:3]12[C@:4]1([H:11])[C:5]([H:12])([H:13])[C@@:6]2([H:14])[O:7]1>>[C-:1]([N:2]([C+:3]1[C@:4]2([H:11])[C:5]([H:12])([H:13])[C@@:6]1([H:14])[O:7]2)[H:10])([H:8])[H:9]"
C       -1.88173513      -1.02625005       0.22172757
N       -1.68196835       0.25781899      -0.23183026
C       -0.36319911       0.19925713      -0.06072211
C        0.83577749       0.09370345       0.85349050
C        1.69742854      -0.23046155      -0.38392952
C        0.78132111       0.96061527      -0.72933487
O        1.08723422       1.52907399       0.60036357
H       -2.61531501      -1.19834948       1.00051345
H       -1.61642493      -1.86839299      -0.39638658
H       -2.24797869       1.05882616       0.01885810
H        0.91062080      -0.26694332       1.87651051
H        1.52440875      -1.17210833      -0.90473284
H        2.75082579       0.02698666      -0.28326454
H        0.81900452       1.63622408      -1.58126298
14
Frame=8 idx=006646 GeodesicLength=0.31228009267402906 rxn_smarts="[C:1]1([H:8])([H:9])[N:2]([H:10])[C@:3]12[C@:4]1([H:11])[C:5]([H:12])([H:13])[C@@:6]2([H:14])[O:7]1>>[C-:1]([N:2]([C+:3]1[C@:4]2([H:11])[C:5]([H:12])([H:13])[C@@:6]1([H:14])[O:7]2)[H:10])([H:8])[H:9]"
C       -1.86575025      -1.02233300       0.21677662
N       -1.68477624       0.25897466      -0.25570476
C       -0.36832380       0.20957842      -0.04667808
C        0.83622852       0.09726050       0.85907509
C        1.68607566      -0.23530683      -0.38461947
C        0.77723566       0.96343127      -0.72286602
O        1.09689130       1.52951716       0.60365846
H       -2.60864163      -1.19174141       0.98709246
H       -1.59259428      -1.87364696      -0.38563800
H       -2.25254882       1.05038266       0.01977049
H        0.91699412      -0.26310717       1.88180518
H        1.50139543      -1.17469521      -0.90568502
H        2.74258801       0.01259048      -0.29220678
H        0.81522632       1.63909541      -1.57478018
14
Frame=9 idx=006646 GeodesicLength=0.3530249602882578 rxn_smarts="[C:1]1([H:8])([H:9])[N:2]([H:10])[C@:3]12[C@:4]1([H:11])[C:5]([H:12])([H:13])[C@@:6]2([H:14])[O:7]1>>[C-:1]([N:2]([C+:3]1[C@:4]2([H:11])[C:5]([H:12])([H:13])[C@@:6]1([H:14])[O:7]2)[H:10])([H:8])[H:9]"
C       -1.84965620      -1.01827184       0.21207789
N       -1.68679471       0.25999149      -0.27842445
C       -0.37354549       0.22026461      -0.03214916
C        0.83680184       0.10080801       0.86477098
C        1.67437048      -0.24016309      -0.38531282
C        0.77305026       0.96634896      -0.71616984
O        1.10689761       1.52983465       0.60701383
H       -2.60179034      -1.18563674       0.97363856
H       -1.56881056      -1.87813924      -0.37495062
H       -2.25736668       1.04143613       0.01848209
H        0.92386619      -0.25939327       1.88710880
H        1.47776500      -1.17710994      -0.90659329
H        2.73390984      -0.00203793      -0.30141852
H        0.81130275       1.64206822      -1.56807344
14
Frame=10 idx=006646 GeodesicLength=0.3940756325050072 rxn_smarts="[C:1]1([H:8])([H:9])[N:2]([H:10])[C@:3]12[C@:4]1([H:11])[C:5]([H:12])([H:13])[C@@:6]2([H:14])[O:7]1>>[C-:1]([N:2]([C+:3]1[C@:4]2([H:11])[C:5]([H:12])([H:13])[C@@:6]1([H:14])[O:7]2)[H:10])([H:8])[H:9]"
C       -1.83347829      -1.01406154       0.20763892
N       -1.68804498       0.26083509      -0.30022481
C       -0.37885945       0.23123023      -0.01731814
C        0.83741518       0.10428847       0.87050312
C        1.66235052      -0.24499524      -0.38601576
C        0.76878761       0.96937246      -0.70928840
O        1.11712191       1.52998475       0.61043026
H       -2.59475965      -1.17987829       0.96021713
H       -1.54502910      -1.88201670      -0.36410885
H       -2.26231367       1.03208288       0.01530422
H        0.93106087      -0.25591254       1.89232893
H        1.45364359      -1.17929855      -0.90751331
H        2.72480066      -0.01682168      -0.31080531
H        0.80730480       1.64519066      -1.56114799
14
Frame=11 idx=006646 GeodesicLength=0.43544176851111444 rxn_smarts="[C:1]1([H:8])([H:9])[N:2]([H:10])[C@:3]12[C@:4]1([H:11])[C:5]([H:12])([H:13])[C@@:6]2([H:14])[O:7]1>>[C-:1]([N:2]([C+:3]1[C@:4]2([H:11])[C:5]([H:12])([H:13])[C@@:6]1([H:14])[O:7]2)[H:10])([H:8])[H:9]"
C       -1.81724915      -1.00970277       0.20345550
N       -1.68854831       0.26148416      -0.32127114
C       -0.38425819       0.24238506      -0.00233774
C        0.83800330       0.10765773       0.87621350
C        1.65005659      -0.24977221      -0.38672999
C        0.76446531       0.97249775      -0.70225901
O        1.12744733       1.52993791       0.61390491
H       -2.58754093      -1.17435140       0.94688983
H       -1.52125234      -1.88538467      -0.35296822
H       -2.26727078       1.02240357       0.01049511
H        0.93843926      -0.25273930       1.89739833
H        1.42914814      -1.18121837      -0.90848513
H        2.71527863      -0.03168562      -0.32028959
H        0.80328115       1.64848815      -1.55401636
14
Frame=12 idx=006646 GeodesicLength=0.47713907495358543 rxn_smarts="[C:1]1([H:8])([H:9])[N:2]([H:10])[C@:3]12[C@:4]1([H:11])[C:5]([H:12])([H:13])[C@@:6]2([H:14])[O:7]1>>[C-:1]([N:2]([C+:3]1[C@:4]2([H:11])[C:5]([H:12])([H:13])[C@@:6]1([H:14])[O:7]2)[H:10])([H:8])[H:9]"
C       -1.80098521      -1.00520843       0.19947716
N       -1.68834166       0.26196112      -0.34163277
C       -0.38973478       0.25366080       0.01267263
C        0.83851380       0.11092120       0.88186795
C        1.63752235      -0.25448392      -0.38743332
C        0.76010009       0.97569615      -0.69513762
O        1.13778590       1.52970010       0.61738819
H       -2.58009454      -1.16904035       0.93367243
H       -1.49752475      -1.88827862      -0.34157195
H       -2.27213952       1.01245879       0.00442004
H        0.94589024      -0.24984469       1.90229269
H        1.40437367      -1.18287639      -0.90947368
H        2.70536210      -0.04658229      -0.32979631
H        0.79927232       1.65191653      -1.54674544
14
Frame=13 idx=006646 GeodesicLength=0.5191696935507587 rxn_smarts="[C:1]1([H:8])([H:9])[N:2]([H:10])[C@:3]12[C@:4]1([H:11])[C:5]([H:12])([H:13])[C@@:6]2([H:14])[O:7]1>>[C-:1]([N:2]([C+:3]1[C@:4]2([H:11])[C:5]([H:12])([H:13])[C@@:6]1([H:14])[O:7]2)[H:10])([H:8])[H:9]"
C       -1.78472536      -1.00057962       0.19571828
N       -1.68744980       0.26224590      -0.36142137
C       -0.39527746       0.26496945       0.02759466
C        0.83890747       0.11403389       0.88742173
C        1.62479607      -0.25909925      -0.38813898
C        0.75570653       0.97896797      -0.68794664
O        1.14804611       1.52924521       0.62089530
H       -2.57245118      -1.16384103       0.92061592
H       -1.47386955      -1.89078305      -0.32976803
H       -2.27682529       1.00230051      -0.00279045
H        0.95332135      -0.24730386       1.90695893
H        1.37943055      -1.18423150      -0.91053393
H        2.69508569      -0.06143776      -0.33927791
H        0.79530486       1.65551313      -1.53932750
14
Frame=14 idx=006646 GeodesicLength=0.5614683908294924 rxn_smarts="[C:1]1([H:8])([H:9])[N:2]([H:10])[C@:3]12[C@:4]1([H:11])[C:5]([H:12])([H:13])[C@@:6]2([H:14])[O:7]1>>[C-:1]([N:2]([C+:3]1[C@:4]2([H:11])[C:5]([H:12])([H:13])[C@@:6]1([H:14])[O:7]2)[H:10])([H:8])[H:9]"
C       -1.76851636      -0.99584212       0.19211337
N       -1.68594058       0.26239861      -0.38059357
C       -0.40086077       0.27618127       0.04229475
C        0.83915198       0.11702123       0.89284802
C        1.61196830      -0.26360187      -0.38880149
C        0.75130047       0.98224423      -0.68076975
O        1.15810796       1.52860698       0.62434104
H       -2.56455383      -1.15879089       0.90777314
H       -1.45052478      -1.89287935      -0.31781760
H       -2.28122030       0.99200507      -0.01069722
H        0.96064686      -0.24503115       1.91139515
H        1.35452216      -1.18532410      -0.91157406
H        2.68452192      -0.07614310      -0.34862346
H        0.79139698       1.65915520      -1.53188831
14
Frame=15 idx=006646 GeodesicLength=0.6040366178549046 rxn_smarts="[C:1]1([H:8])([H:9])[N:2]([H:10])[C@:3]12[C@:4]1([H:11])[C:5]([H:12])([H:13])[C@@:6]2([H:14])[O:7]1>>[C-:1]([N:2]([C+:3]1[C@:4]2([H:11])[C:5]([H:12])([H:13])[C@@:6]1([H:14])[O:7]2)[H:10])([H:8])[H:9]"
C       -1.75238950      -0.99099988       0.18867445
N       -1.68385097       0.26241016      -0.39922668
C       -0.40647324       0.28723762       0.05670412
C        0.83923302       0.11985475       0.89812192
C        1.59907916      -0.26797384      -0.38943667
C        0.74689409       0.98552676      -0.67361905
O        1.16792200       1.52777304       0.62774277
H       -2.55646132      -1.15381706       0.89515558
H       -1.42748843      -1.89463486      -0.30559517
H       -2.28527369       0.98160496      -0.01921814
H        0.96781668      -0.24307052       1.91557384
H        1.32972301      -1.18613047      -0.91264533
H        2.67370961      -0.09065396      -0.35781478
H        0.78755957       1.66287330      -1.52441687
14
Frame=16 idx=006646 GeodesicLength=0.6468059946383772 rxn_smarts="[C:1]1([H:8])([H:9])[N:2]([H:10])[C@:3]12[C@:4]1([H:11])[C:5]([H:12])([H:13])[C@@:6]2([H:14])[O:7]1>>[C-:1]([N:2]([C+:3]1[C@:4]2([H:11])[C:5]([H:12])([H:13])[C@@:6]1([H:14])[O:7]2)[H:10])([H:8])[H:9]"
C       -1.73638142      -0.98608127       0.18532825
N       -1.68126683       0.26235602      -0.41725441
C       -0.41208993       0.29803861       0.07073642
C        0.83914093       0.12257496       0.90323606
C        1.58620882      -0.27221347      -0.38999936
C        0.74250002       0.98874898      -0.66656692
O        1.17740844       1.52678915       0.63101891
H       -2.54812815      -1.14898195       0.88278972
H       -1.40496664      -1.89602688      -0.29339992
H       -2.28892400       0.97116601      -0.02796066
H        0.97478205      -0.24130464       1.91951923
H        1.30519660      -1.18670930      -0.91365059
H        2.66272317      -0.10489715      -0.36676365
H        0.78379695       1.66654093      -1.51703309
