14
Frame=0 idx=007754 GeodesicLength=0.0 rxn_smarts="[C:1]([C:2]1=[C:3]([H:11])/[C:4](=[N:5]/[H:12])[O:6][C:7]1([H:13])[H:14])([H:8])([H:9])[H:10]>>[C:1]([C:7]([C:2]1=[C:3]([H:11])/[C:4](=[N:5]/[H:12])[O:6]1)([H:13])[H:14])([H:8])([H:9])[H:10]"
C       -2.01049744       0.00879073      -0.35352680
C       -0.31290024      -0.00691556      -0.05786708
C        0.65750158      -0.80279914      -0.37407293
C        2.02898769      -0.27529113       0.14186110
N        2.96469776      -1.08559503      -0.24531662
O        1.99039481       0.77742071       0.81063424
C       -0.82056416       1.08389335       0.55934745
H       -2.78290134       0.32944365       0.34643292
H       -2.18190591       0.40887032      -1.34496678
H       -2.03217608      -1.08007058      -0.31467658
H        0.59829189      -1.72733532      -0.92776086
H        3.85184975      -0.72756843       0.10693680
H       -1.05328095       1.06692891       1.61875099
H       -0.89749737       2.03022755       0.03422418
14
Frame=1 idx=007754 GeodesicLength=0.11785088905253539 rxn_smarts="[C:1]([C:2]1=[C:3]([H:11])/[C:4](=[N:5]/[H:12])[O:6][C:7]1([H:13])[H:14])([H:8])([H:9])[H:10]>>[C:1]([C:7]([C:2]1=[C:3]([H:11])/[C:4](=[N:5]/[H:12])[O:6]1)([H:13])[H:14])([H:8])([H:9])[H:10]"
C       -2.00998962       0.01064169      -0.34081207
C       -0.30497585      -0.03171929      -0.04499759
C        0.66031570      -0.80753633      -0.42477671
C        2.01997891      -0.25771150       0.08220824
N        2.97545636      -1.07298179      -0.22793485
O        1.92216340       0.76960385       0.79911100
C       -0.79455590       1.07925450       0.56166099
H       -2.78046814       0.33589448       0.35926187
H       -2.18071927       0.41698353      -1.33041645
H       -2.05081813      -1.07821231      -0.31511026
H        0.59272178      -1.75346147      -0.93920219
H        3.84084003      -0.70388906       0.16825407
H       -1.02774798       1.06951791       1.62153278
H       -0.86220126       2.02361577       0.03122117
14
Frame=2 idx=007754 GeodesicLength=0.23605418878740708 rxn_smarts="[C:1]([C:2]1=[C:3]([H:11])/[C:4](=[N:5]/[H:12])[O:6][C:7]1([H:13])[H:14])([H:8])([H:9])[H:10]>>[C:1]([C:7]([C:2]1=[C:3]([H:11])/[C:4](=[N:5]/[H:12])[O:6]1)([H:13])[H:14])([H:8])([H:9])[H:10]"
C       -2.00825542       0.01183275      -0.32878697
C       -0.29646536      -0.05686636      -0.02994304
C        0.66172335      -0.81225050      -0.46897908
C        2.00876653      -0.25227807       0.04379412
N        2.98278634      -1.06066851      -0.20726336
O        1.85777059       0.75750185       0.79151735
C       -0.76893946       1.07515855       0.56258326
H       -2.77808905       0.34323682       0.36913615
H       -2.17654285       0.42225792      -1.31772871
H       -2.06868320      -1.07635926      -0.31375012
H        0.58791773      -1.77165542      -0.95627859
H        3.82860315      -0.67144583       0.20839410
H       -1.00429003       1.07527278       1.62251465
H       -0.82630232       2.01626328       0.02479023
14
Frame=3 idx=007754 GeodesicLength=0.35403687739659667 rxn_smarts="[C:1]([C:2]1=[C:3]([H:11])/[C:4](=[N:5]/[H:12])[O:6][C:7]1([H:13])[H:14])([H:8])([H:9])[H:10]>>[C:1]([C:7]([C:2]1=[C:3]([H:11])/[C:4](=[N:5]/[H:12])[O:6]1)([H:13])[H:14])([H:8])([H:9])[H:10]"
C       -2.00616303       0.01254165      -0.31720774
C       -0.28803640      -0.08239090      -0.01257528
C        0.66148975      -0.81992343      -0.50280322
C        1.99698078      -0.25200735       0.01533815
N        2.98962274      -1.04490717      -0.19306495
O        1.79720093       0.74137872       0.78856646
C       -0.74410014       1.07153412       0.56266007
H       -2.77668750       0.35214502       0.37608924
H       -2.16999787       0.42468396      -1.30677747
H       -2.08686110      -1.07450738      -0.31015854
H        0.58301986      -1.78438281      -0.97895033
H        3.81658270      -0.63641892       0.24109600
H       -0.98325050       1.08405543       1.62214176
H       -0.78980023       2.00819908       0.01564586
14
Frame=4 idx=007754 GeodesicLength=0.47204395750825556 rxn_smarts="[C:1]([C:2]1=[C:3]([H:11])/[C:4](=[N:5]/[H:12])[O:6][C:7]1([H:13])[H:14])([H:8])([H:9])[H:10]>>[C:1]([C:7]([C:2]1=[C:3]([H:11])/[C:4](=[N:5]/[H:12])[O:6]1)([H:13])[H:14])([H:8])([H:9])[H:10]"
C       -2.00392827       0.01227058      -0.30509848
C       -0.27927608      -0.10673368       0.00451367
C        0.66062499      -0.82752763      -0.53185376
C        1.98534694      -0.25442063      -0.00778550
N        2.99574701      -1.02816771      -0.18095736
O        1.74088883       0.72574357       0.78449662
C       -0.71989025       1.06845440       0.56171605
H       -2.77544492       0.36020361       0.38306122
H       -2.16387711       0.42474045      -1.29578415
H       -2.10406258      -1.07329244      -0.30454036
H        0.57796035      -1.79141061      -1.00820097
H        3.80307056      -0.60407939       0.27481598
H       -0.96225974       1.09416198       1.62071605
H       -0.75489974       2.00005749       0.00490100
14
Frame=5 idx=007754 GeodesicLength=0.5899962802205827 rxn_smarts="[C:1]([C:2]1=[C:3]([H:11])/[C:4](=[N:5]/[H:12])[O:6][C:7]1([H:13])[H:14])([H:8])([H:9])[H:10]>>[C:1]([C:7]([C:2]1=[C:3]([H:11])/[C:4](=[N:5]/[H:12])[O:6]1)([H:13])[H:14])([H:8])([H:9])[H:10]"
C       -2.00156571       0.01184170      -0.29351575
C       -0.27044007      -0.13014109       0.02140905
C        0.65917922      -0.83567857      -0.55623524
C        1.97382191      -0.25899057      -0.02666608
N        3.00161965      -1.01046796      -0.17060072
O        1.68804239       0.70917875       0.78150777
C       -0.69640663       1.06544968       0.56041451
H       -2.77469828       0.36811214       0.38866942
H       -2.15726799       0.42407356      -1.28559689
H       -2.12085867      -1.07187747      -0.29881767
H        0.57212567      -1.79633052      -1.03798824
H        3.78932997      -0.57129733       0.30479429
H       -0.94211862       1.10433325       1.61872621
H       -0.72076283       1.99179443      -0.00610066
14
Frame=6 idx=007754 GeodesicLength=0.7079195440874789 rxn_smarts="[C:1]([C:2]1=[C:3]([H:11])/[C:4](=[N:5]/[H:12])[O:6][C:7]1([H:13])[H:14])([H:8])([H:9])[H:10]>>[C:1]([C:7]([C:2]1=[C:3]([H:11])/[C:4](=[N:5]/[H:12])[O:6]1)([H:13])[H:14])([H:8])([H:9])[H:10]"
C       -1.99914191       0.01146531      -0.28264819
C       -0.26162741      -0.15270340       0.03804832
C        0.65732487      -0.84437143      -0.57670258
C        1.96244266      -0.26537019      -0.04211522
N        3.00733348      -0.99213892      -0.16099068
O        1.63825379       0.69166036       0.77981002
C       -0.67363718       1.06237729       0.55898816
H       -2.77450680       0.37595216       0.39277722
H       -2.15012159       0.42321999      -1.27627831
H       -2.13740747      -1.07005616      -0.29358587
H        0.56548411      -1.80014058      -1.06684579
H        3.77563483      -0.53742796       0.33002705
H       -0.92286107       1.11411771       1.61640461
H       -0.68717031       1.98341584      -0.01688874
14
Frame=7 idx=007754 GeodesicLength=0.8257648252793531 rxn_smarts="[C:1]([C:2]1=[C:3]([H:11])/[C:4](=[N:5]/[H:12])[O:6][C:7]1([H:13])[H:14])([H:8])([H:9])[H:10]>>[C:1]([C:7]([C:2]1=[C:3]([H:11])/[C:4](=[N:5]/[H:12])[O:6]1)([H:13])[H:14])([H:8])([H:9])[H:10]"
C       -1.99673732       0.01090923      -0.27201184
C       -0.25270389      -0.17422885       0.05395211
C        0.65525629      -0.85298609      -0.59486325
C        1.95144799      -0.27289387      -0.05560008
N        3.01285650      -0.97324687      -0.15261250
O        1.59144155       0.67422958       0.77785662
C       -0.65146892       1.05936782       0.55726872
H       -2.77464312       0.38321316       0.39636183
H       -2.14320090       0.42200761      -1.26721916
H       -2.15345679      -1.06813555      -0.28845620
H        0.55804562      -1.80260637      -1.09554202
H        3.76151204      -0.50422286       0.35469988
H       -0.90380242       1.12350121       1.61374513
H       -0.65454663       1.97509185      -0.02757923
14
Frame=8 idx=007754 GeodesicLength=0.9435531358555512 rxn_smarts="[C:1]([C:2]1=[C:3]([H:11])/[C:4](=[N:5]/[H:12])[O:6][C:7]1([H:13])[H:14])([H:8])([H:9])[H:10]>>[C:1]([C:7]([C:2]1=[C:3]([H:11])/[C:4](=[N:5]/[H:12])[O:6]1)([H:13])[H:14])([H:8])([H:9])[H:10]"
C       -1.99438456       0.01026188      -0.26168310
C       -0.24373943      -0.19492349       0.06931923
C        0.65302792      -0.86163303      -0.61090713
C        1.94081127      -0.28157179      -0.06725175
N        3.01827981      -0.95385042      -0.14497353
O        1.54729687       0.65675617       0.77602270
C       -0.62986950       1.05634835       0.55535988
H       -2.77517619       0.39005860       0.39926097
H       -2.13634600       0.42060052      -1.25849682
H       -2.16918776      -1.06602500      -0.28361118
H        0.54984212      -1.80400216      -1.12369184
H        3.74709761      -0.47120297       0.37791403
H       -0.88504393       1.13242932       1.61083716
H       -0.62260824       1.96675403      -0.03809863
14
Frame=9 idx=007754 GeodesicLength=1.0612596310266047 rxn_smarts="[C:1]([C:2]1=[C:3]([H:11])/[C:4](=[N:5]/[H:12])[O:6][C:7]1([H:13])[H:14])([H:8])([H:9])[H:10]>>[C:1]([C:7]([C:2]1=[C:3]([H:11])/[C:4](=[N:5]/[H:12])[O:6]1)([H:13])[H:14])([H:8])([H:9])[H:10]"
C       -1.99210014       0.00964818      -0.25176353
C       -0.23483071      -0.21502634       0.08437283
C        0.65062984      -0.87055422      -0.62487397
C        1.93045820      -0.29140665      -0.07717791
N        3.02368739      -0.93374373      -0.13823238
O        1.50550757       0.63891900       0.77473670
C       -0.60878620       1.05321637       0.55338610
H       -2.77615454       0.39673757       0.40125399
H       -2.12933027       0.41918618      -1.25021797
H       -2.18479770      -1.06357944      -0.27926122
H        0.54085867      -1.80478108      -1.15079524
H        3.73254507      -0.43775636       0.39914045
H       -0.86669475       1.14084954       1.60777505
H       -0.59099243       1.95829096      -0.04834291
14
Frame=10 idx=007754 GeodesicLength=1.1789317205056724 rxn_smarts="[C:1]([C:2]1=[C:3]([H:11])/[C:4](=[N:5]/[H:12])[O:6][C:7]1([H:13])[H:14])([H:8])([H:9])[H:10]>>[C:1]([C:7]([C:2]1=[C:3]([H:11])/[C:4](=[N:5]/[H:12])[O:6]1)([H:13])[H:14])([H:8])([H:9])[H:10]"
C       -1.98990462       0.00901006      -0.24214233
C       -0.22595888      -0.23457549       0.09909300
C        0.64813228      -0.87959151      -0.63718809
C        1.92043556      -0.30254405      -0.08541191
N        3.02888541      -0.91351351      -0.13137152
O        1.46589970       0.62104821       0.77371081
C       -0.58817375       1.04999231       0.55131922
H       -2.77753278       0.40316463       0.40253040
H       -2.12227809       0.41771341      -1.24225444
H       -2.20026802      -1.06087279      -0.27532828
H        0.53112677      -1.80461577      -1.17739651
H        3.71798534      -0.40372148       0.41823561
H       -0.84861798       1.14879325       1.60456844
H       -0.55973093       1.94971274      -0.05836440
14
Frame=11 idx=007754 GeodesicLength=1.2965543482388453 rxn_smarts="[C:1]([C:2]1=[C:3]([H:11])/[C:4](=[N:5]/[H:12])[O:6][C:7]1([H:13])[H:14])([H:8])([H:9])[H:10]>>[C:1]([C:7]([C:2]1=[C:3]([H:11])/[C:4](=[N:5]/[H:12])[O:6]1)([H:13])[H:14])([H:8])([H:9])[H:10]"
C       -1.98780207       0.00830925      -0.23270716
C       -0.21710251      -0.25364086       0.11351909
C        0.64556576      -0.88871608      -0.64811972
C        1.91076797      -0.31481915      -0.09228019
N        3.03401048      -0.89269317      -0.12510806
O        1.42832140       0.60325558       0.77278316
C       -0.56797054       1.04668473       0.54911727
H       -2.77926393       0.40933534       0.40323269
H       -2.11524871       0.41611060      -1.23449487
H       -2.21559925      -1.05794936      -0.27168572
H        0.52068186      -1.80353829      -1.20352323
H        3.70310585      -0.36966714       0.43634505
H       -0.83070138       1.15634598       1.60119084
H       -0.52876493       1.94098256      -0.06826916
14
Frame=12 idx=007754 GeodesicLength=1.4141376640784362 rxn_smarts="[C:1]([C:2]1=[C:3]([H:11])/[C:4](=[N:5]/[H:12])[O:6][C:7]1([H:13])[H:14])([H:8])([H:9])[H:10]>>[C:1]([C:7]([C:2]1=[C:3]([H:11])/[C:4](=[N:5]/[H:12])[O:6]1)([H:13])[H:14])([H:8])([H:9])[H:10]"
C       -1.98579965       0.00760373      -0.22350815
C       -0.20831624      -0.27236834       0.12778538
C        0.64292353      -0.89805209      -0.65767423
C        1.90141215      -0.32843503      -0.09762789
N        3.03901749      -0.87135707      -0.11919932
O        1.39256590       0.58539942       0.77218075
C       -0.54813069       1.04323163       0.54684344
H       -2.78136134       0.41538991       0.40323462
H       -2.10811433       0.41445393      -1.22700005
H       -2.23089773      -1.05473539      -0.26843462
H        0.50951722      -1.80160280      -1.22913109
H        3.68806136      -0.33503951       0.45285027
H       -0.81298921       1.16348947       1.59769014
H       -0.49788846       1.93202215      -0.07800926
14
Frame=13 idx=007754 GeodesicLength=1.5316859536475156 rxn_smarts="[C:1]([C:2]1=[C:3]([H:11])/[C:4](=[N:5]/[H:12])[O:6][C:7]1([H:13])[H:14])([H:8])([H:9])[H:10]>>[C:1]([C:7]([C:2]1=[C:3]([H:11])/[C:4](=[N:5]/[H:12])[O:6]1)([H:13])[H:14])([H:8])([H:9])[H:10]"
C       -1.98389930       0.00695953      -0.21459984
C       -0.19966112      -0.29090447       0.14202297
C        0.64019018      -0.90774628      -0.66582602
C        1.89232070      -0.34359981      -0.10129248
N        3.04389037      -0.84942302      -0.11365876
O        1.35844039       0.56730389       0.77212050
C       -0.52860178       1.03955985       0.54456546
H       -2.78382767       0.42148320       0.40239984
H       -2.10073581       0.41282418      -1.21983204
H       -2.24626342      -1.05113922      -0.26568468
H        0.49762929      -1.79890846      -1.25411167
H        3.67292161      -0.29934273       0.46730477
H       -0.79551984       1.17019621       1.59411417
H       -0.46688361       1.92273712      -0.08752221
14
Frame=14 idx=007754 GeodesicLength=1.6492112608299638 rxn_smarts="[C:1]([C:2]1=[C:3]([H:11])/[C:4](=[N:5]/[H:12])[O:6][C:7]1([H:13])[H:14])([H:8])([H:9])[H:10]>>[C:1]([C:7]([C:2]1=[C:3]([H:11])/[C:4](=[N:5]/[H:12])[O:6]1)([H:13])[H:14])([H:8])([H:9])[H:10]"
C       -1.98209824       0.00642711      -0.20601922
C       -0.19118940      -0.30937628       0.15633814
C        0.63735693      -0.91791620      -0.67256516
C        1.88345856      -0.36057150      -0.10306909
N        3.04858681      -0.82680687      -0.10850503
O        1.32577918       0.54883943       0.77274843
C       -0.50932465       1.03560257       0.54233571
H       -2.78664556       0.42774523       0.40062410
H       -2.09300076       0.41127453      -1.21303305
H       -2.26176873      -1.04708303      -0.26351706
H        0.48502244      -1.79547788      -1.27843489
H        3.65768628      -0.26213638       0.47935495
H       -0.77830034       1.17644458       1.59049889
H       -0.43556252       1.91303469      -0.09675672
14
Frame=15 idx=007754 GeodesicLength=1.7667248931495434 rxn_smarts="[C:1]([C:2]1=[C:3]([H:11])/[C:4](=[N:5]/[H:12])[O:6][C:7]1([H:13])[H:14])([H:8])([H:9])[H:10]>>[C:1]([C:7]([C:2]1=[C:3]([H:11])/[C:4](=[N:5]/[H:12])[O:6]1)([H:13])[H:14])([H:8])([H:9])[H:10]"
C       -1.98038782       0.00616771      -0.19794733
C       -0.18304627      -0.32802462       0.17094642
C        0.63437365      -0.92887477      -0.67765212
C        1.87472176      -0.37989180      -0.10241266
N        3.05302506      -0.80345988      -0.10364955
O        1.29435462       0.52954940       0.77456650
C       -0.49022296       1.03119155       0.54032852
H       -2.78982493       0.43449222       0.39755110
H       -2.08459294       0.41001539      -1.20678819
H       -2.27758885      -1.04233460      -0.26223992
H        0.47167973      -1.79152736      -1.30183185
H        3.64248538      -0.22213498       0.48764952
H       -0.76145388       1.18210041       1.58696666
H       -0.40352254       1.90273135      -0.10548711
14
Frame=16 idx=007754 GeodesicLength=1.8842477971746794 rxn_smarts="[C:1]([C:2]1=[C:3]([H:11])/[C:4](=[N:5]/[H:12])[O:6][C:7]1([H:13])[H:14])([H:8])([H:9])[H:10]>>[C:1]([C:7]([C:2]1=[C:3]([H:11])/[C:4](=[N:5]/[H:12])[O:6]1)([H:13])[H:14])([H:8])([H:9])[H:10]"
C       -1.97874039       0.00634467      -0.19056368
C       -0.17538175      -0.34710041       0.18606017
C        0.63119961      -0.94093682      -0.68084535
C        1.86601311      -0.40223766      -0.09866159
N        3.05710375      -0.77917022      -0.09921524
O        1.26396092       0.50898017       0.77803540
C       -0.47118770       1.02614186       0.53872465
H       -2.79333236       0.44205062       0.39282803
H       -2.07517994       0.40925105      -1.20127419
H       -2.29387187      -1.03664441      -0.26216808
H        0.45760892      -1.78725741      -1.32404751
H        3.62719968      -0.17805859       0.49095006
H       -0.74505953       1.18702053       1.58364462
H       -0.37033246       1.89161664      -0.11346729
