15
Frame=0 idx=008848 GeodesicLength=0.0 rxn_smarts="[C:1]([C@@:2]1([C:3]([C:4]#[N:5])([H:11])[H:12])[C:6]([H:13])([H:14])[N:7]1[H:15])([H:8])([H:9])[H:10]>>[C:1](/[C:2]([C:6]([N:5]=[C:4]=[C:3]([H:11])[H:12])([H:13])[H:14])=[N:7]\[H:15])([H:8])([H:9])[H:10]"
C       -0.99638546       1.06409709      -0.27083294
C       -0.30914418      -0.28560098      -0.11835995
C        1.28709968      -0.04222171      -0.91603244
C        1.90188225       0.26403304       0.31227078
N        1.73336986       0.21928183       1.47818127
C        0.06375201      -0.64977566       1.28023656
N       -0.97592754      -1.40817386      -0.43555320
H       -0.36231339       1.89241113       0.05007452
H       -1.27381138       1.22322069      -1.31436665
H       -1.90720885       1.07790614       0.33200031
H        1.21164477       0.75759133      -1.64625209
H        1.63090703      -0.97826347      -1.34976573
H       -0.58324711      -0.29232313       2.07658576
H        0.44230313      -1.65334025       1.41211151
H       -1.86292081      -1.18884214      -0.89029766
15
Frame=1 idx=008848 GeodesicLength=0.08451456228049851 rxn_smarts="[C:1]([C@@:2]1([C:3]([C:4]#[N:5])([H:11])[H:12])[C:6]([H:13])([H:14])[N:7]1[H:15])([H:8])([H:9])[H:10]>>[C:1](/[C:2]([C:6]([N:5]=[C:4]=[C:3]([H:11])[H:12])([H:13])[H:14])=[N:7]\[H:15])([H:8])([H:9])[H:10]"
C       -1.00167897       1.06692744      -0.27050112
C       -0.31379542      -0.28131011      -0.12158176
C        1.30491841      -0.03941891      -0.92284011
C        1.91027571       0.27077590       0.30896598
N        1.73748046       0.22410288       1.47476154
C        0.05114332      -0.65920666       1.27506850
N       -0.97825747      -1.40920537      -0.42667414
H       -0.36311261       1.89363664       0.04725001
H       -1.28714049       1.22360619      -1.31277850
H       -1.90841228       1.08637853       0.33942970
H        1.23544317       0.75949808      -1.65556200
H        1.65044883      -0.97710660      -1.35217336
H       -0.59594484      -0.30275808       2.07157155
H        0.43271394      -1.66100155       1.41248136
H       -1.87408176      -1.19491838      -0.86741766
15
Frame=2 idx=008848 GeodesicLength=0.16834602700958315 rxn_smarts="[C:1]([C@@:2]1([C:3]([C:4]#[N:5])([H:11])[H:12])[C:6]([H:13])([H:14])[N:7]1[H:15])([H:8])([H:9])[H:10]>>[C:1](/[C:2]([C:6]([N:5]=[C:4]=[C:3]([H:11])[H:12])([H:13])[H:14])=[N:7]\[H:15])([H:8])([H:9])[H:10]"
C       -1.00718181       1.06965631      -0.27002007
C       -0.31866430      -0.27719739      -0.12477457
C        1.32279708      -0.03671939      -0.92958144
C        1.91868468       0.27759811       0.30551114
N        1.74175376       0.22909148       1.47118625
C        0.03851708      -0.66862708       1.26975412
N       -0.98091067      -1.41013524      -0.41795028
H       -0.36401582       1.89472827       0.04438544
H       -1.30069355       1.22405304      -1.31095239
H       -1.90961102       1.09464548       0.34703518
H        1.25958047       0.76124279      -1.66478717
H        1.67008176      -0.97606424      -1.35435292
H       -0.60845934      -0.31297634       2.06653330
H        0.42303180      -1.66856960       1.41285499
H       -1.88491012      -1.20072620      -0.84484159
15
Frame=3 idx=008848 GeodesicLength=0.2515452185094373 rxn_smarts="[C:1]([C@@:2]1([C:3]([C:4]#[N:5])([H:11])[H:12])[C:6]([H:13])([H:14])[N:7]1[H:15])([H:8])([H:9])[H:10]>>[C:1](/[C:2]([C:6]([N:5]=[C:4]=[C:3]([H:11])[H:12])([H:13])[H:14])=[N:7]\[H:15])([H:8])([H:9])[H:10]"
C       -1.01281494       1.07227743      -0.26951767
C       -0.32376996      -0.27327647      -0.12805406
C        1.34077772      -0.03407928      -0.93630917
C        1.92708269       0.28459762       0.30192554
N        1.74607762       0.23413761       1.46743239
C        0.02584550      -0.67803123       1.26430557
N       -0.98376699      -1.41103971      -0.40932728
H       -0.36498196       1.89567411       0.04132179
H       -1.31450729       1.22453395      -1.30875488
H       -1.91074789       1.10283143       0.35484512
H        1.28416136       0.76290567      -1.67390024
H        1.68997074      -0.97500991      -1.35624833
H       -0.62083481      -0.32300590       2.06141283
H        0.41323554      -1.67617210       1.41316833
H       -1.89572732      -1.20634322      -0.82229994
15
Frame=4 idx=008848 GeodesicLength=0.3339868294125804 rxn_smarts="[C:1]([C@@:2]1([C:3]([C:4]#[N:5])([H:11])[H:12])[C:6]([H:13])([H:14])[N:7]1[H:15])([H:8])([H:9])[H:10]>>[C:1](/[C:2]([C:6]([N:5]=[C:4]=[C:3]([H:11])[H:12])([H:13])[H:14])=[N:7]\[H:15])([H:8])([H:9])[H:10]"
C       -1.01860642       1.07482726      -0.26888495
C       -0.32907314      -0.26951360      -0.13131692
C        1.35887712      -0.03150085      -0.94294219
C        1.93544343       0.29167443       0.29820295
N        1.75046491       0.23934160       1.46352554
C        0.01318188      -0.68744131       1.25862531
N       -0.98693236      -1.41188601      -0.40090372
H       -0.36603427       1.89645716       0.03809154
H       -1.32861288       1.22506178      -1.30630187
H       -1.91182703       1.11090791       0.36284004
H        1.30912053       0.76443720      -1.68284874
H        1.71007104      -0.97403516      -1.35787047
H       -0.63302293      -0.33285767       2.05623445
H        0.40336558      -1.68371245       1.41338219
H       -1.90641547      -1.21176030      -0.79983316
15
Frame=5 idx=008848 GeodesicLength=0.4162006354939225 rxn_smarts="[C:1]([C@@:2]1([C:3]([C:4]#[N:5])([H:11])[H:12])[C:6]([H:13])([H:14])[N:7]1[H:15])([H:8])([H:9])[H:10]>>[C:1](/[C:2]([C:6]([N:5]=[C:4]=[C:3]([H:11])[H:12])([H:13])[H:14])=[N:7]\[H:15])([H:8])([H:9])[H:10]"
C       -1.02465815       1.07731956      -0.26808923
C       -0.33467466      -0.26590935      -0.13472782
C        1.37723308      -0.02899137      -0.94950195
C        1.94375821       0.29900943       0.29425936
N        1.75492505       0.24474795       1.45941374
C        0.00051332      -0.69689184       1.25267721
N       -0.99052452      -1.41266513      -0.39262016
H       -0.36722057       1.89708249       0.03457666
H       -1.34319377       1.22564573      -1.30346002
H       -1.91267305       1.11888102       0.37109265
H        1.33476009       0.76578762      -1.69174965
H        1.73060489      -0.97307640      -1.35902825
H       -0.64507607      -0.34261135       2.05097618
H        0.39326586      -1.69137267       1.41340944
H       -1.91703971      -1.21695569      -0.77722815
15
Frame=6 idx=008848 GeodesicLength=0.49768847703071795 rxn_smarts="[C:1]([C@@:2]1([C:3]([C:4]#[N:5])([H:11])[H:12])[C:6]([H:13])([H:14])[N:7]1[H:15])([H:8])([H:9])[H:10]>>[C:1](/[C:2]([C:6]([N:5]=[C:4]=[C:3]([H:11])[H:12])([H:13])[H:14])=[N:7]\[H:15])([H:8])([H:9])[H:10]"
C       -1.03086726       1.07972218      -0.26715703
C       -0.34048034      -0.26248131      -0.13812669
C        1.39567932      -0.02654452      -0.95599703
C        1.95208002       0.30649040       0.29018662
N        1.75948102       0.25033856       1.45514803
C       -0.01215578      -0.70627104       1.24655915
N       -0.99433560      -1.41338917      -0.38455931
H       -0.36848001       1.89757299       0.03094250
H       -1.35807415       1.22629467      -1.30032968
H       -1.91347979       1.12670762       0.37952073
H        1.36084881       0.76695924      -1.70051529
H        1.75122939      -0.97223716      -1.35995386
H       -0.65693616      -0.35225006       2.04570381
H        0.38305797      -1.69895016       1.41338923
H       -1.92756744      -1.22196225      -0.75481118
15
Frame=7 idx=008848 GeodesicLength=0.5786654192366584 rxn_smarts="[C:1]([C@@:2]1([C:3]([C:4]#[N:5])([H:11])[H:12])[C:6]([H:13])([H:14])[N:7]1[H:15])([H:8])([H:9])[H:10]>>[C:1](/[C:2]([C:6]([N:5]=[C:4]=[C:3]([H:11])[H:12])([H:13])[H:14])=[N:7]\[H:15])([H:8])([H:9])[H:10]"
C       -1.03729387       1.08208110      -0.26606641
C       -0.34654931      -0.25920312      -0.14161370
C        1.41430683      -0.02418012      -0.96237969
C        1.96037841       0.31421185       0.28594455
N        1.76407498       0.25608593       1.45065684
C       -0.02481987      -0.71564509       1.24025305
N       -0.99840720      -1.41401639      -0.37669702
H       -0.36983036       1.89790921       0.02703242
H       -1.37335522       1.22696697      -1.29684877
H       -1.91416980       1.13448500       0.38818553
H        1.38753938       0.76792925      -1.70912109
H        1.77214451      -0.97146403      -1.36058729
H       -0.66869921      -0.36181210       2.04036743
H        0.37274790      -1.70656007       1.41320414
H       -1.93806717      -1.22678837      -0.73232999
15
Frame=8 idx=008848 GeodesicLength=0.6590748740147822 rxn_smarts="[C:1]([C@@:2]1([C:3]([C:4]#[N:5])([H:11])[H:12])[C:6]([H:13])([H:14])[N:7]1[H:15])([H:8])([H:9])[H:10]>>[C:1](/[C:2]([C:6]([N:5]=[C:4]=[C:3]([H:11])[H:12])([H:13])[H:14])=[N:7]\[H:15])([H:8])([H:9])[H:10]"
C       -1.04390887       1.08434003      -0.26486450
C       -0.35283134      -0.25608718      -0.14510476
C        1.43307593      -0.02189314      -0.96867807
C        1.96865479       0.32206984       0.28152216
N        1.76877483       0.26202896       1.44596273
C       -0.03749139      -0.72498797       1.23379775
N       -1.00278646      -1.41461779      -0.36893241
H       -0.37131121       1.89805988       0.02298625
H       -1.38888618       1.22773922      -1.29306099
H       -1.91475369       1.14215804       0.39706856
H        1.41460112       0.76874609      -1.71762881
H        1.79321784      -0.97076608      -1.36092117
H       -0.68027911      -0.37120855       2.03503244
H        0.36230601      -1.71416115       1.41293812
H       -1.94838226      -1.23142020      -0.71011730
15
Frame=9 idx=008848 GeodesicLength=0.7394387223611534 rxn_smarts="[C:1]([C@@:2]1([C:3]([C:4]#[N:5])([H:11])[H:12])[C:6]([H:13])([H:14])[N:7]1[H:15])([H:8])([H:9])[H:10]>>[C:1](/[C:2]([C:6]([N:5]=[C:4]=[C:3]([H:11])[H:12])([H:13])[H:14])=[N:7]\[H:15])([H:8])([H:9])[H:10]"
C       -1.05076019       1.08655711      -0.26344474
C       -0.35942771      -0.25309950      -0.14867114
C        1.45201164      -0.01969154      -0.97513703
C        1.97686849       0.33037869       0.27682459
N        1.77338853       0.26836942       1.44100625
C       -0.05018099      -0.73441548       1.22711440
N       -1.00767339      -1.41517981      -0.36126560
H       -0.37289648       1.89799622       0.01840211
H       -1.40506243       1.22861663      -1.28869914
H       -1.91505574       1.14985490       0.40650078
H        1.44259384       0.76914704      -1.72605217
H        1.81490173      -0.97011055      -1.36058328
H       -0.69169255      -0.38062765       2.02967163
H        0.35161920      -1.72196980       1.41233582
H       -1.95863396      -1.23582567      -0.68800248
15
Frame=10 idx=008848 GeodesicLength=0.8192959782457986 rxn_smarts="[C:1]([C@@:2]1([C:3]([C:4]#[N:5])([H:11])[H:12])[C:6]([H:13])([H:14])[N:7]1[H:15])([H:8])([H:9])[H:10]>>[C:1](/[C:2]([C:6]([N:5]=[C:4]=[C:3]([H:11])[H:12])([H:13])[H:14])=[N:7]\[H:15])([H:8])([H:9])[H:10]"
C       -1.05779019       1.08871748      -0.26189003
C       -0.36624742      -0.25025391      -0.15226035
C        1.47110816      -0.01755967      -0.98151387
C        1.98506163       0.33884642       0.27193822
N        1.77808079       0.27488827       1.43586702
C       -0.06287967      -0.74382550       1.22024107
N       -1.01291324      -1.41570463      -0.35370531
H       -0.37463980       1.89771440       0.01359665
H       -1.42157484       1.22967259      -1.28382257
H       -1.91519574       1.15737208       0.41602209
H        1.47106829       0.76934661      -1.73435617
H        1.83677319      -0.96951522      -1.35988676
H       -0.70292694      -0.38985257       2.02422828
H        0.34085676      -1.72975595       1.41159144
H       -1.96878097      -1.24009040      -0.66604969
15
Frame=11 idx=008848 GeodesicLength=0.8986835237080106 rxn_smarts="[C:1]([C@@:2]1([C:3]([C:4]#[N:5])([H:11])[H:12])[C:6]([H:13])([H:14])[N:7]1[H:15])([H:8])([H:9])[H:10]>>[C:1](/[C:2]([C:6]([N:5]=[C:4]=[C:3]([H:11])[H:12])([H:13])[H:14])=[N:7]\[H:15])([H:8])([H:9])[H:10]"
C       -1.06501756       1.09077680      -0.26028027
C       -0.37333155      -0.24758670      -0.15584485
C        1.49038939      -0.01549867      -0.98786322
C        1.99327708       0.34744086       0.26687180
N        1.78283638       0.28155813       1.43051190
C       -0.07558902      -0.75314049       1.21321947
N       -1.01842888      -1.41622367      -0.34624671
H       -0.37648016       1.89730810       0.00859495
H       -1.43848136       1.23081726      -1.27857134
H       -1.91525851       1.16477551       0.42578859
H        1.50010754       0.76940563      -1.74244080
H        1.85877872      -0.96902908      -1.35898066
H       -0.71401078      -0.39898135       2.01879401
H        0.33003189      -1.73744797       1.41080078
H       -1.97882318      -1.24417436      -0.64435365
15
Frame=12 idx=008848 GeodesicLength=0.9779360646136159 rxn_smarts="[C:1]([C@@:2]1([C:3]([C:4]#[N:5])([H:11])[H:12])[C:6]([H:13])([H:14])[N:7]1[H:15])([H:8])([H:9])[H:10]>>[C:1](/[C:2]([C:6]([N:5]=[C:4]=[C:3]([H:11])[H:12])([H:13])[H:14])=[N:7]\[H:15])([H:8])([H:9])[H:10]"
C       -1.07251192       1.09276009      -0.25848605
C       -0.38068498      -0.24507966      -0.15961394
C        1.50996650      -0.01350112      -0.99410099
C        2.00138745       0.35638553       0.26155971
N        1.78759580       0.28863854       1.42492250
C       -0.08834383      -0.76252771       1.20590082
N       -1.02428064      -1.41663868      -0.33906966
H       -0.37839197       1.89670584       0.00320921
H       -1.45590230       1.23202253      -1.27287177
H       -1.91507663       1.17214743       0.43590231
H        1.53000509       0.76912924      -1.75038867
H        1.88117239      -0.96856555      -1.35754794
H       -0.72496406      -0.40815364       2.01325112
H        0.31906402      -1.74527241       1.40966039
H       -1.98903493      -1.24805043      -0.62232703
15
Frame=13 idx=008848 GeodesicLength=1.0568596698046917 rxn_smarts="[C:1]([C@@:2]1([C:3]([C:4]#[N:5])([H:11])[H:12])[C:6]([H:13])([H:14])[N:7]1[H:15])([H:8])([H:9])[H:10]>>[C:1](/[C:2]([C:6]([N:5]=[C:4]=[C:3]([H:11])[H:12])([H:13])[H:14])=[N:7]\[H:15])([H:8])([H:9])[H:10]"
C       -1.08014129       1.09473302      -0.25653299
C       -0.38831422      -0.24269400      -0.16347856
C        1.52971708      -0.01158784      -1.00037380
C        2.00938203       0.36548529       0.25592273
N        1.79230967       0.29601153       1.41911469
C       -0.10112430      -0.77192045       1.19840028
N       -1.03048847      -1.41704750      -0.33196323
H       -0.38046708       1.89585147      -0.00261646
H       -1.47384828       1.23334361      -1.26666591
H       -1.91457330       1.17950876       0.44629171
H        1.56053640       0.76870793      -1.75807884
H        1.90407421      -0.96817496      -1.35556753
H       -0.73576188      -0.41727578       2.00767633
H        0.30807735      -1.75318778       1.40824958
H       -1.99937792      -1.25175329      -0.60037799
15
Frame=14 idx=008848 GeodesicLength=1.1353314111708817 rxn_smarts="[C:1]([C@@:2]1([C:3]([C:4]#[N:5])([H:11])[H:12])[C:6]([H:13])([H:14])[N:7]1[H:15])([H:8])([H:9])[H:10]>>[C:1](/[C:2]([C:6]([N:5]=[C:4]=[C:3]([H:11])[H:12])([H:13])[H:14])=[N:7]\[H:15])([H:8])([H:9])[H:10]"
C       -1.08803611       1.09661954      -0.25435611
C       -0.39625537      -0.24045755      -0.16732981
C        1.54954523      -0.00972671      -1.00669756
C        2.01735241       0.37476992       0.25006682
N        1.79713832       0.30357721       1.41301753
C       -0.11386614      -0.78124537       1.19081840
N       -1.03704152      -1.41744894      -0.32494317
H       -0.38268486       1.89479266      -0.00864557
H       -1.49212397       1.23479824      -1.26001955
H       -1.91389530       1.18665863       0.45680675
H        1.59177390       0.76801125      -1.76551255
H        1.92699752      -0.96780516      -1.35331501
H       -0.74639016      -0.42624173       2.00215151
H        0.29696946      -1.76101510       1.40676322
H       -2.00948340      -1.25528688      -0.57880490
15
Frame=15 idx=008848 GeodesicLength=1.2135120654673606 rxn_smarts="[C:1]([C@@:2]1([C:3]([C:4]#[N:5])([H:11])[H:12])[C:6]([H:13])([H:14])[N:7]1[H:15])([H:8])([H:9])[H:10]>>[C:1](/[C:2]([C:6]([N:5]=[C:4]=[C:3]([H:11])[H:12])([H:13])[H:14])=[N:7]\[H:15])([H:8])([H:9])[H:10]"
C       -1.09610144       1.09849865      -0.25199736
C       -0.40447617      -0.23831461      -0.17137260
C        1.56956747      -0.00795262      -1.01293305
C        2.02524549       0.38434170       0.24391773
N        1.80194666       0.31148240       1.40664687
C       -0.12661621      -0.79055794       1.18292688
N       -1.04390330      -1.41775880      -0.31815719
H       -0.38509575       1.89354665      -0.01509839
H       -1.51090152       1.23640064      -1.25274687
H       -1.91308423       1.19371470       0.46769673
H        1.62380382       0.76694872      -1.77276942
H        1.95031504      -0.96755994      -1.35049351
H       -0.75680614      -0.43516479       1.99657480
H        0.28569898      -1.76893590       1.40496466
H       -2.01959270      -1.25868887      -0.55715930
15
Frame=16 idx=008848 GeodesicLength=1.2914707996586612 rxn_smarts="[C:1]([C@@:2]1([C:3]([C:4]#[N:5])([H:11])[H:12])[C:6]([H:13])([H:14])[N:7]1[H:15])([H:8])([H:9])[H:10]>>[C:1](/[C:2]([C:6]([N:5]=[C:4]=[C:3]([H:11])[H:12])([H:13])[H:14])=[N:7]\[H:15])([H:8])([H:9])[H:10]"
C       -1.10440806       1.10029299      -0.24950706
C       -0.41294529      -0.23629710      -0.17548794
C        1.58982992      -0.00627248      -1.01916301
C        2.03309459       0.39404983       0.23752000
N        1.80676973       0.31959664       1.40003599
C       -0.13937494      -0.79981532       1.17484788
N       -1.05111222      -1.41806250      -0.31138243
H       -0.38767084       1.89206495      -0.02189297
H       -1.53021310       1.23815376      -1.24487394
H       -1.91195101       1.20067945       0.47874856
H        1.65642792       0.76564070      -1.77966204
H        1.97370334      -0.96733260      -1.34733247
H       -0.76702959      -0.44391352       1.99096299
H        0.27434864      -1.77682873       1.40301719
H       -2.02946906      -1.26195607      -0.53583075
