14
Frame=0 idx=004950 GeodesicLength=0.0 rxn_smarts="[O:1]=[C:2]1[C:3]([H:7])([H:8])[C:4]([H:9])([H:10])[C:5]([H:11])([H:12])[C:6]1([H:13])[H:14]>>[O:1]=[C:2]1[C:3]([H:7])([H:8])[C:4]([H:9])([H:10])[C@:5]1([C:6]([H:11])([H:13])[H:14])[H:12]"
O       -0.19991257       1.81510874       1.38157788
C       -0.16428120       0.90763241       0.54094581
C       -1.34113460       0.15508131      -0.12251190
C       -0.53955108      -1.16413305      -0.14084634
C        0.63544528      -0.51777834       0.55149182
C        1.07765448       0.78012020      -0.45642668
H       -2.18789586       0.11571691       0.55985264
H       -1.67254612       0.56108841      -1.07906245
H       -0.97206333      -1.93042396       0.50085490
H       -0.33994927      -1.60980441      -1.11931248
H        1.62075156      -0.32608561      -0.29560694
H        1.31180397      -0.89840492       1.30676852
H        1.84304918       1.45539999      -0.10248428
H        0.92862958       0.65648238      -1.52524045
14
Frame=1 idx=004950 GeodesicLength=0.09262650831919218 rxn_smarts="[O:1]=[C:2]1[C:3]([H:7])([H:8])[C:4]([H:9])([H:10])[C:5]([H:11])([H:12])[C:6]1([H:13])[H:14]>>[O:1]=[C:2]1[C:3]([H:7])([H:8])[C:4]([H:9])([H:10])[C@:5]1([C:6]([H:11])([H:13])[H:14])[H:12]"
O       -0.21579309       1.84121304       1.35251405
C       -0.17400160       0.91731320       0.53372177
C       -1.35041597       0.15084477      -0.11093390
C       -0.53939520      -1.16153638      -0.14635786
C        0.64043163      -0.51522418       0.53962737
C        1.09669459       0.77001586      -0.45285583
H       -2.18557245       0.09956991       0.58539897
H       -1.70196024       0.55714837      -1.06001567
H       -0.96128868      -1.94075563       0.48671889
H       -0.34659934      -1.59024069      -1.13357168
H        1.64402628      -0.34858839      -0.30229249
H        1.28915932      -0.88694478       1.32294853
H        1.86173405       1.44263555      -0.09188365
H        0.94298070       0.66454935      -1.52301849
14
Frame=2 idx=004950 GeodesicLength=0.18523586551166132 rxn_smarts="[O:1]=[C:2]1[C:3]([H:7])([H:8])[C:4]([H:9])([H:10])[C:5]([H:11])([H:12])[C:6]1([H:13])[H:14]>>[O:1]=[C:2]1[C:3]([H:7])([H:8])[C:4]([H:9])([H:10])[C@:5]1([C:6]([H:11])([H:13])[H:14])[H:12]"
O       -0.23181960       1.86789944       1.32142798
C       -0.18387418       0.92718359       0.52586374
C       -1.35976355       0.14639072      -0.09881174
C       -0.53921271      -1.15875211      -0.15217688
C        0.64539533      -0.51274450       0.52783626
C        1.11600114       0.75981326      -0.44902862
H       -2.18223874       0.08325687       0.61210032
H       -1.73240895       0.55238952      -1.03982080
H       -0.95040330      -1.95112540       0.47152318
H       -0.35332707      -1.56987673      -1.14800559
H        1.66719258      -0.37151990      -0.30829567
H        1.26566616      -0.87512075       1.33818481
H        1.88044046       1.42966096      -0.08046188
H        0.95835243       0.67254503      -1.52033510
14
Frame=3 idx=004950 GeodesicLength=0.2778270914712712 rxn_smarts="[O:1]=[C:2]1[C:3]([H:7])([H:8])[C:4]([H:9])([H:10])[C:5]([H:11])([H:12])[C:6]1([H:13])[H:14]>>[O:1]=[C:2]1[C:3]([H:7])([H:8])[C:4]([H:9])([H:10])[C@:5]1([C:6]([H:11])([H:13])[H:14])[H:12]"
O       -0.24802701       1.89513145       1.28816607
C       -0.19391831       0.93724597       0.51731982
C       -1.36916123       0.14171160      -0.08611723
C       -0.53901584      -1.15576045      -0.15831529
C        0.65033578      -0.51034267       0.51612884
C        1.13558031       0.74951133      -0.44491711
H       -2.17778468       0.06680079       0.64000757
H       -1.76391267       0.54675155      -1.01837304
H       -0.93942251      -1.96149465       0.45521102
H       -0.36014346      -1.54865276      -1.16261306
H        1.69023561      -0.39490323      -0.31357869
H        1.24132326      -0.86294932       1.35240318
H        1.89912760       1.41648292      -0.06815113
H        0.97478316       0.68046746      -1.51717096
14
Frame=4 idx=004950 GeodesicLength=0.3704007801157969 rxn_smarts="[O:1]=[C:2]1[C:3]([H:7])([H:8])[C:4]([H:9])([H:10])[C:5]([H:11])([H:12])[C:6]1([H:13])[H:14]>>[O:1]=[C:2]1[C:3]([H:7])([H:8])[C:4]([H:9])([H:10])[C@:5]1([C:6]([H:11])([H:13])[H:14])[H:12]"
O       -0.26445940       1.92284330       1.25255329
C       -0.20416021       0.94750152       0.50803440
C       -1.37859220       0.13680191      -0.07281976
C       -0.53882442      -1.15253935      -0.16478351
C        0.65524578      -0.50802430       0.50451198
C        1.15543522       0.73910895      -0.44048427
H       -2.17208235       0.05023997       0.66915934
H       -1.79648074       0.54016778      -0.99556000
H       -0.92837069      -1.97181206       0.43772675
H       -0.36707251      -1.52650186      -1.17738673
H        1.71313757      -0.41876050      -0.31810435
H        1.21616851      -0.85045216       1.36552223
H        1.91773974       1.40311591      -0.05486920
H        0.99231570       0.68831089      -1.51350017
14
Frame=5 idx=004950 GeodesicLength=0.4629400074158254 rxn_smarts="[O:1]=[C:2]1[C:3]([H:7])([H:8])[C:4]([H:9])([H:10])[C:5]([H:11])([H:12])[C:6]1([H:13])[H:14]>>[O:1]=[C:2]1[C:3]([H:7])([H:8])[C:4]([H:9])([H:10])[C@:5]1([C:6]([H:11])([H:13])[H:14])[H:12]"
O       -0.28116038       1.95096447       1.21445362
C       -0.21463013       0.95794470       0.49794547
C       -1.38803841       0.13165851      -0.05889575
C       -0.53866207      -1.14907169      -0.17159270
C        0.66011714      -0.50579797       0.49298936
C        1.17556160       0.72860631      -0.43569565
H       -2.16501133       0.03362645       0.69957182
H       -1.83010031       0.53258678      -0.97128641
H       -0.91728809      -1.98202897       0.41902949
H       -0.37413910      -1.50337306      -1.19231169
H        1.73587777      -0.44310948      -0.32183606
H        1.19028361      -0.83766105       1.37746739
H        1.93620759       1.38958329      -0.04054251
H        1.01098210       0.69607171      -1.50929639
14
Frame=6 idx=004950 GeodesicLength=0.5554491101269274 rxn_smarts="[O:1]=[C:2]1[C:3]([H:7])([H:8])[C:4]([H:9])([H:10])[C:5]([H:11])([H:12])[C:6]1([H:13])[H:14]>>[O:1]=[C:2]1[C:3]([H:7])([H:8])[C:4]([H:9])([H:10])[C@:5]1([C:6]([H:11])([H:13])[H:14])[H:12]"
O       -0.29818537       1.97935700       1.17366300
C       -0.22535579       0.96856487       0.48699736
C       -1.39746875       0.12628632      -0.04432400
C       -0.53855670      -1.14533195      -0.17875355
C        0.66494726      -0.50367678       0.48155106
C        1.19595178       0.71800593      -0.43050580
H       -2.15642321       0.01703002       0.73125894
H       -1.86475137       0.52393809      -0.94541661
H       -0.90622067      -1.99207121       0.39906734
H       -0.38138253      -1.47919348      -1.20736917
H        1.75843555      -0.46796742      -0.32475080
H        1.16374552      -0.82460805       1.38818787
H        1.95444355       1.37591822      -0.02508107
H        1.03082073       0.70374843      -1.50452457
14
Frame=7 idx=004950 GeodesicLength=0.6479213603353006 rxn_smarts="[O:1]=[C:2]1[C:3]([H:7])([H:8])[C:4]([H:9])([H:10])[C:5]([H:11])([H:12])[C:6]1([H:13])[H:14]>>[O:1]=[C:2]1[C:3]([H:7])([H:8])[C:4]([H:9])([H:10])[C@:5]1([C:6]([H:11])([H:13])[H:14])[H:12]"
O       -0.31559192       2.00786006       1.13001853
C       -0.23636920       0.97934130       0.47513452
C       -1.40684634       0.12069093      -0.02908641
C       -0.53853735      -1.14129749      -0.18627030
C        0.66973617      -0.50167827       0.47018522
C        1.21659266       0.70731521      -0.42486856
H       -2.14618031       0.00054529       0.76418946
H       -1.90037824       0.51416601      -0.91783119
H       -0.89522706      -2.00186011       0.37782135
H       -0.38884254      -1.45390778      -1.22252584
H        1.78078539      -0.49334562      -0.32683410
H        1.13666239      -0.81133956       1.39761553
H        1.97234328       1.36216667      -0.00840145
H        1.05185309       0.71134336      -1.49914677
14
Frame=8 idx=004950 GeodesicLength=0.740347771857894 rxn_smarts="[O:1]=[C:2]1[C:3]([H:7])([H:8])[C:4]([H:9])([H:10])[C:5]([H:11])([H:12])[C:6]1([H:13])[H:14]>>[O:1]=[C:2]1[C:3]([H:7])([H:8])[C:4]([H:9])([H:10])[C@:5]1([C:6]([H:11])([H:13])[H:14])[H:12]"
O       -0.33339665       2.03634214       1.08352446
C       -0.24769897       0.99025647       0.46232003
C       -1.41613982       0.11488568      -0.01319548
C       -0.53862614      -1.13695810      -0.19413819
C        0.67448752      -0.49980934       0.45887816
C        1.23745599       0.69654372      -0.41876106
H       -2.13424481      -0.01574615       0.79828013
H       -1.93688362       0.50324996      -0.88847563
H       -0.88436904      -2.01134272       0.35529851
H       -0.39653261      -1.42750849      -1.23773724
H        1.80290392      -0.51925322      -0.32809917
H        1.10916668      -0.79788603       1.40572952
H        1.98982045       1.34836841       0.00951382
H        1.07405711       0.71885766      -1.49313786
14
Frame=9 idx=004950 GeodesicLength=0.8326521893926009 rxn_smarts="[O:1]=[C:2]1[C:3]([H:7])([H:8])[C:4]([H:9])([H:10])[C:5]([H:11])([H:12])[C:6]1([H:13])[H:14]>>[O:1]=[C:2]1[C:3]([H:7])([H:8])[C:4]([H:9])([H:10])[C@:5]1([C:6]([H:11])([H:13])[H:14])[H:12]"
O       -0.35159575       2.06443364       1.03424704
C       -0.25935631       1.00129641       0.44846110
C       -1.42528303       0.10891087       0.00334224
C       -0.53886415      -1.13228660      -0.20235607
C        0.67920026      -0.49807825       0.44757638
C        1.25849660       0.68573095      -0.41216829
H       -2.12057717      -0.03172074       0.83326668
H       -1.97410983       0.49114215      -0.85720529
H       -0.87377578      -2.02040228       0.33156473
H       -0.40449074      -1.39998104      -1.25294684
H        1.82476302      -0.54565557      -0.32865661
H        1.08145224      -0.78427191       1.41270973
H        2.00671928       1.33461572       0.02865517
H        1.09742135       0.72626665      -1.48648997
14
Frame=10 idx=004950 GeodesicLength=0.9249015701511503 rxn_smarts="[O:1]=[C:2]1[C:3]([H:7])([H:8])[C:4]([H:9])([H:10])[C:5]([H:11])([H:12])[C:6]1([H:13])[H:14]>>[O:1]=[C:2]1[C:3]([H:7])([H:8])[C:4]([H:9])([H:10])[C@:5]1([C:6]([H:11])([H:13])[H:14])[H:12]"
O       -0.37033070       2.09207533       0.98183329
C       -0.27138486       1.01237343       0.43361719
C       -1.43421198       0.10276792       0.02053148
C       -0.53927446      -1.12728197      -0.21089396
C        0.68390653      -0.49654190       0.43628313
C        1.27968955       0.67486803      -0.40500210
H       -2.10496468      -0.04724780       0.86920530
H       -2.01189913       0.47785622      -0.82394964
H       -0.86348149      -2.02897615       0.30659870
H       -0.41276494      -1.37130158      -1.26808059
H        1.84632244      -0.57257963      -0.32848152
H        1.05356747      -0.77060838       1.41826494
H        2.02291494       1.32093800       0.04917659
H        1.12191132       0.73365849      -1.47910281
14
Frame=11 idx=004950 GeodesicLength=1.0170891375707423 rxn_smarts="[O:1]=[C:2]1[C:3]([H:7])([H:8])[C:4]([H:9])([H:10])[C:5]([H:11])([H:12])[C:6]1([H:13])[H:14]>>[O:1]=[C:2]1[C:3]([H:7])([H:8])[C:4]([H:9])([H:10])[C@:5]1([C:6]([H:11])([H:13])[H:14])[H:12]"
O       -0.38963527       2.11909954       0.92626911
C       -0.28381103       1.02342980       0.41782676
C       -1.44287184       0.09648658       0.03833641
C       -0.53988478      -1.12194662      -0.21971884
C        0.68862244      -0.49522793       0.42497095
C        1.30097548       0.66396994      -0.39722788
H       -2.08735910      -0.06222910       0.90593381
H       -2.05001388       0.46343949      -0.78869646
H       -0.85356979      -2.03700074       0.28046797
H       -0.42137671      -1.34150532      -1.28304830
H        1.86754302      -0.60001368      -0.32765897
H        1.02566733      -0.75696569       1.42236835
H        2.03827311       1.30738482       0.07109656
H        1.14744102       0.74107892      -1.47091946
14
Frame=12 idx=004950 GeodesicLength=1.1092262333045277 rxn_smarts="[O:1]=[C:2]1[C:3]([H:7])([H:8])[C:4]([H:9])([H:10])[C:5]([H:11])([H:12])[C:6]1([H:13])[H:14]>>[O:1]=[C:2]1[C:3]([H:7])([H:8])[C:4]([H:9])([H:10])[C@:5]1([C:6]([H:11])([H:13])[H:14])[H:12]"
O       -0.40956755       2.14524663       0.86750713
C       -0.29665078       1.03439557       0.40118698
C       -1.45117779       0.09010978       0.05671733
C       -0.54072241      -1.11627849      -0.22877602
C        0.69337983      -0.49417557       0.41361247
C        1.32229185       0.65306416      -0.38880767
H       -2.06774569      -0.07653651       0.94323967
H       -2.08816971       0.44796791      -0.75145706
H       -0.84414404      -2.04438513       0.25328195
H       -0.43035163      -1.31064213      -1.29774322
H        1.88838703      -0.62793463      -0.32630249
H        0.99793716      -0.74344923       1.42499157
H        2.05264243       1.29402229       0.09442575
H        1.17389129       0.74859537      -1.46187641
14
Frame=13 idx=004950 GeodesicLength=1.2012979987625947 rxn_smarts="[O:1]=[C:2]1[C:3]([H:7])([H:8])[C:4]([H:9])([H:10])[C:5]([H:11])([H:12])[C:6]1([H:13])[H:14]>>[O:1]=[C:2]1[C:3]([H:7])([H:8])[C:4]([H:9])([H:10])[C@:5]1([C:6]([H:11])([H:13])[H:14])[H:12]"
O       -0.43016028       2.17030314       0.80563115
C       -0.30991599       1.04520118       0.38380627
C       -1.45905316       0.08368288       0.07560297
C       -0.54180586      -1.11028888      -0.23801472
C        0.69820927      -0.49341716       0.40217535
C        1.34356707       0.64217440      -0.37972238
H       -2.04616510      -0.09005581       0.98086490
H       -2.12605746       0.43154509      -0.71228006
H       -0.83531493      -2.05105785       0.22517706
H       -0.43969128      -1.27880725      -1.31204663
H        1.90882654      -0.65631007      -0.32455066
H        0.97056297      -0.73015020       1.42614863
H        2.06588457       1.28090647       0.11913089
H        1.20111364       0.75627406      -1.45192276
14
Frame=14 idx=004950 GeodesicLength=1.2933404120863705 rxn_smarts="[O:1]=[C:2]1[C:3]([H:7])([H:8])[C:4]([H:9])([H:10])[C:5]([H:11])([H:12])[C:6]1([H:13])[H:14]>>[O:1]=[C:2]1[C:3]([H:7])([H:8])[C:4]([H:9])([H:10])[C@:5]1([C:6]([H:11])([H:13])[H:14])[H:12]"
O       -0.45145006       2.19398990       0.74065763
C       -0.32360467       1.05579323       0.36589591
C       -1.46642498       0.07726899       0.09493322
C       -0.54314564      -1.10398485      -0.24735595
C        0.70314855      -0.49298187       0.39064565
C        1.36472777       0.63132744      -0.36995843
H       -2.02272806      -0.10267797       1.01855508
H       -2.16333585       0.41432251      -0.67128350
H       -0.82716320      -2.05695708       0.19629832
H       -0.44938657      -1.24609820      -1.32583287
H        1.92883160      -0.68510506      -0.32255489
H        0.94373300      -0.71719266       1.42584792
H        2.07788769       1.26808610       0.14514918
H        1.22891041       0.76420952      -1.44099728
14
Frame=15 idx=004950 GeodesicLength=1.3853651837385113 rxn_smarts="[O:1]=[C:2]1[C:3]([H:7])([H:8])[C:4]([H:9])([H:10])[C:5]([H:11])([H:12])[C:6]1([H:13])[H:14]>>[O:1]=[C:2]1[C:3]([H:7])([H:8])[C:4]([H:9])([H:10])[C@:5]1([C:6]([H:11])([H:13])[H:14])[H:12]"
O       -0.47344957       2.21602914       0.67272955
C       -0.33771312       1.06613174       0.34766656
C       -1.47322618       0.07093223       0.11462498
C       -0.54474314      -1.09737794      -0.25672344
C        0.70823225      -0.49288466       0.37900737
C        1.38570432       0.62054860      -0.35952525
H       -1.99759281      -0.11430879       1.05602585
H       -2.19966973       0.39646906      -0.62862243
H       -0.81977055      -2.06202597       0.16682165
H       -0.45940710      -1.21265146      -1.33897726
H        1.94838133      -0.71427820      -0.32047888
H        0.91761990      -0.70467069       1.42412896
H        2.08856186       1.25559672       0.17238161
H        1.25707255       0.77249023      -1.42905927
14
Frame=16 idx=004950 GeodesicLength=1.4773994245518534 rxn_smarts="[O:1]=[C:2]1[C:3]([H:7])([H:8])[C:4]([H:9])([H:10])[C:5]([H:11])([H:12])[C:6]1([H:13])[H:14]>>[O:1]=[C:2]1[C:3]([H:7])([H:8])[C:4]([H:9])([H:10])[C@:5]1([C:6]([H:11])([H:13])[H:14])[H:12]"
O       -0.49618649       2.23611458       0.60191525
C       -0.35222774       1.07619395       0.32937176
C       -1.47939702       0.06474712       0.13460356
C       -0.54659438      -1.09047529      -0.26604813
C        0.71349430      -0.49313985       0.36725186
C        1.40643977       0.60986379      -0.34842958
H       -1.97092014      -0.12486201       1.09302382
H       -2.23474683       0.37817168      -0.58445405
H       -0.81320950      -2.06622872       0.13690996
H       -0.46972197      -1.17858878      -1.35137441
H        1.96746139      -0.74378735      -0.31848299
H        0.89237742      -0.69269467       1.42104805
H        2.09784261       1.24346749       0.20073131
H        1.28538858       0.78121805      -1.41606641
