16
Frame=0 idx=004314 GeodesicLength=0.0 rxn_smarts="[O:1]([C:2]([C:3]([C:4]1([H:12])[C:5]([H:13])([H:14])[C:6]1([H:15])[H:16])([H:10])[H:11])([H:8])[H:9])[H:7]>>[C:3]([C:4]1([H:12])[C:5]([H:13])([H:14])[C:6]1([H:15])[H:16])([H:9])([H:10])[H:11].[O:1]([C:2][H:8])[H:7]"
O        2.01982695       1.19081825       0.40211157
C        2.33174678      -0.07291090       0.07693176
C        0.42788135      -0.96688674      -0.60025382
C       -0.53313117      -0.28508328       0.30633336
C       -1.97468975      -0.12213698      -0.10540408
C       -1.07772411       1.07167971      -0.05192042
H        1.52102446       1.25578831       1.22528136
H        2.24731552      -0.76613919       0.92459748
H        1.66416414      -0.52355783      -0.85411324
H        0.57692458      -2.02165405      -0.37376459
H        0.14672446      -0.85031691      -1.65112540
H       -0.37810560      -0.47311045       1.36456523
H       -2.26228435      -0.50554401      -1.07583008
H       -2.73291952      -0.22825305       0.65915818
H       -0.74135212       1.50395642      -0.98530755
H       -1.23540164       1.79335072       0.73874031
16
Frame=1 idx=004314 GeodesicLength=0.07348808602052322 rxn_smarts="[O:1]([C:2]([C:3]([C:4]1([H:12])[C:5]([H:13])([H:14])[C:6]1([H:15])[H:16])([H:10])[H:11])([H:8])[H:9])[H:7]>>[C:3]([C:4]1([H:12])[C:5]([H:13])([H:14])[C:6]1([H:15])[H:16])([H:9])([H:10])[H:11].[O:1]([C:2][H:8])[H:7]"
O        2.03668498       1.19017352       0.37606537
C        2.33881188      -0.08826983       0.10096825
C        0.43130939      -0.96331752      -0.60545886
C       -0.53171006      -0.28791983       0.30576870
C       -1.97315355      -0.12345169      -0.10321222
C       -1.07791014       1.07163772      -0.04013742
H        1.49879362       1.28177720       1.17193309
H        2.23510958      -0.75101240       0.97124538
H        1.68493455      -0.55088975      -0.85975715
H        0.55922053      -2.02463108      -0.39495500
H        0.15043933      -0.83079986      -1.65468160
H       -0.37881061      -0.48720880       1.36233422
H       -2.26100767      -0.49780085      -1.07713314
H       -2.73116665      -0.23614847       0.66064812
H       -0.74541834       1.51217501      -0.97114555
H       -1.23612684       1.78568663       0.75751784
16
Frame=2 idx=004314 GeodesicLength=0.14693475761341052 rxn_smarts="[O:1]([C:2]([C:3]([C:4]1([H:12])[C:5]([H:13])([H:14])[C:6]1([H:15])[H:16])([H:10])[H:11])([H:8])[H:9])[H:7]>>[C:3]([C:4]1([H:12])[C:5]([H:13])([H:14])[C:6]1([H:15])[H:16])([H:9])([H:10])[H:11].[O:1]([C:2][H:8])[H:7]"
O        2.05402880       1.18837431       0.35107109
C        2.34493416      -0.10286763       0.12553720
C        0.43480928      -0.95958685      -0.61043986
C       -0.53045502      -0.29071218       0.30525771
C       -1.97175062      -0.12486373      -0.10109296
C       -1.07833754       1.07148876      -0.02837691
H        1.47810762       1.30575526       1.11668702
H        2.22280290      -0.73390646       1.01740435
H        1.70523574      -0.57862588      -0.86465855
H        0.54151768      -2.02685687      -0.41644620
H        0.15468710      -0.81079041      -1.65784303
H       -0.37967430      -0.50108749       1.36006587
H       -2.25969570      -0.49025106      -1.07842728
H       -2.72959757      -0.24414269       0.66195692
H       -0.74986715       1.52024819      -0.95698104
H       -1.23674538       1.77782473       0.77628566
16
Frame=3 idx=004314 GeodesicLength=0.2203227218754438 rxn_smarts="[O:1]([C:2]([C:3]([C:4]1([H:12])[C:5]([H:13])([H:14])[C:6]1([H:15])[H:16])([H:10])[H:11])([H:8])[H:9])[H:7]>>[C:3]([C:4]1([H:12])[C:5]([H:13])([H:14])[C:6]1([H:15])[H:16])([H:9])([H:10])[H:11].[O:1]([C:2][H:8])[H:7]"
O        2.07165155       1.18554789       0.32712508
C        2.35006834      -0.11661782       0.15060146
C        0.43837092      -0.95577350      -0.61521399
C       -0.52936998      -0.29354732       0.30479514
C       -1.97046722      -0.12632707      -0.09905385
C       -1.07889947       1.07120588      -0.01659516
H        1.45887841       1.32769859       1.05956025
H        2.21039472      -0.71471881       1.06305258
H        1.72499991      -0.60671771      -0.86886536
H        0.52387766      -2.02838203      -0.43823814
H        0.15942293      -0.79040258      -1.66060583
H       -0.38071553      -0.51488764       1.35775091
H       -2.25835179      -0.48279887      -1.07973695
H       -2.72821155      -0.25215694       0.66306994
H       -0.75458737       1.52815821      -0.94276414
H       -1.23706152       1.76971971       0.79511807
16
Frame=4 idx=004314 GeodesicLength=0.2936331467659873 rxn_smarts="[O:1]([C:2]([C:3]([C:4]1([H:12])[C:5]([H:13])([H:14])[C:6]1([H:15])[H:16])([H:10])[H:11])([H:8])[H:9])[H:7]>>[C:3]([C:4]1([H:12])[C:5]([H:13])([H:14])[C:6]1([H:15])[H:16])([H:9])([H:10])[H:11].[O:1]([C:2][H:8])[H:7]"
O        2.08932741       1.18183098       0.30422360
C        2.35416911      -0.12941969       0.17612688
C        0.44198491      -0.95195946      -0.61979905
C       -0.52845847      -0.29651510       0.30437366
C       -1.96928887      -0.12779182      -0.09710055
C       -1.07948096       1.07076151      -0.00475214
H        1.44101080       1.34755839       1.00059290
H        2.19787897      -0.69334465       1.10815357
H        1.74417018      -0.63510813      -0.87242780
H        0.50636357      -2.02926554      -0.46032365
H        0.16459845      -0.76975976      -1.66296804
H       -0.38195400      -0.52875283       1.35537589
H       -2.25697991      -0.47534407      -1.08108154
H       -2.72700846      -0.26010366       0.66397569
H       -0.75945968       1.53588604      -0.92844955
H       -1.23687305       1.76132779       0.81408013
16
Frame=5 idx=004314 GeodesicLength=0.36684042549146206 rxn_smarts="[O:1]([C:2]([C:3]([C:4]1([H:12])[C:5]([H:13])([H:14])[C:6]1([H:15])[H:16])([H:10])[H:11])([H:8])[H:9])[H:7]>>[C:3]([C:4]1([H:12])[C:5]([H:13])([H:14])[C:6]1([H:15])[H:16])([H:9])([H:10])[H:11].[O:1]([C:2][H:8])[H:7]"
O        2.10681348       1.17736554       0.28238070
C        2.35717704      -0.14115751       0.20208024
C        0.44563557      -0.94823178      -0.62421873
C       -0.52772035      -0.29970403       0.30398009
C       -1.96819343      -0.12920516      -0.09524066
C       -1.07995213       1.07012283       0.00718938
H        1.42440450       1.36528231       0.93987012
H        2.18523329      -0.66968612       1.15264293
H        1.76268968      -0.66371702      -0.87541080
H        0.48904130      -2.02956816      -0.48267673
H        0.17014712      -0.74901401      -1.66493441
H       -0.38340514      -0.54281422       1.35291833
H       -2.25558126      -0.46778926      -1.08247942
H       -2.72597652      -0.26788626       0.66466080
H       -0.76435103       1.54339844      -0.91399238
H       -1.23596214       1.75260443       0.83323055
16
Frame=6 idx=004314 GeodesicLength=0.43991548936438174 rxn_smarts="[O:1]([C:2]([C:3]([C:4]1([H:12])[C:5]([H:13])([H:14])[C:6]1([H:15])[H:16])([H:10])[H:11])([H:8])[H:9])[H:7]>>[C:3]([C:4]1([H:12])[C:5]([H:13])([H:14])[C:6]1([H:15])[H:16])([H:9])([H:10])[H:11].[O:1]([C:2][H:8])[H:7]"
O        2.12381990       1.17231956       0.26159915
C        2.35905031      -0.15169308       0.22841181
C        0.44931779      -0.94468006      -0.62848719
C       -0.52715875      -0.30321025       0.30360358
C       -1.96716356      -0.13050407      -0.09347449
C       -1.08018022       1.06926183       0.01924957
H        1.40893264       1.38074382       0.87754134
H        2.17246222      -0.64365950       1.19643271
H        1.78051954      -0.69245507      -0.87787999
H        0.47199296      -2.02936862      -0.50526072
H        0.17600564      -0.72832188      -1.66650712
H       -0.38508531      -0.55721534       1.35035982
H       -2.25416194      -0.46002213      -1.08393546
H       -2.72511455      -0.27538006       0.66512552
H       -0.76911999       1.55066980      -0.89937236
H       -1.23411669       1.74351505       0.85259383
16
Frame=7 idx=004314 GeodesicLength=0.5128516421424288 rxn_smarts="[O:1]([C:2]([C:3]([C:4]1([H:12])[C:5]([H:13])([H:14])[C:6]1([H:15])[H:16])([H:10])[H:11])([H:8])[H:9])[H:7]>>[C:3]([C:4]1([H:12])[C:5]([H:13])([H:14])[C:6]1([H:15])[H:16])([H:9])([H:10])[H:11].[O:1]([C:2][H:8])[H:7]"
O        2.14007509       1.16686339       0.24188886
C        2.35974392      -0.16089062       0.25507932
C        0.45302039      -0.94139816      -0.63263104
C       -0.52677343      -0.30712169       0.30322540
C       -1.96618144      -0.13162813      -0.09180562
C       -1.08002801       1.06814918       0.03145067
H        1.39447997       1.39385976       0.81380232
H        2.15954536      -0.61520164       1.23942321
H        1.79763694      -0.72122452      -0.87991879
H        0.45529272      -2.02875149      -0.52802750
H        0.18209490      -0.70786413      -1.66770501
H       -0.38700706      -0.57207663       1.34767276
H       -2.25273213      -0.45194189      -1.08545852
H       -2.72441854      -0.28246779       0.66536784
H       -0.77361997       1.55766707      -0.88456298
H       -1.23112871       1.73402728       0.87219908
16
Frame=8 idx=004314 GeodesicLength=0.5856757957215553 rxn_smarts="[O:1]([C:2]([C:3]([C:4]1([H:12])[C:5]([H:13])([H:14])[C:6]1([H:15])[H:16])([H:10])[H:11])([H:8])[H:9])[H:7]>>[C:3]([C:4]1([H:12])[C:5]([H:13])([H:14])[C:6]1([H:15])[H:16])([H:9])([H:10])[H:11].[O:1]([C:2][H:8])[H:7]"
O        2.15530825       1.16118881       0.22320344
C        2.35923648      -0.16861240       0.28204069
C        0.45674338      -0.93848623      -0.63667615
C       -0.52656825      -0.31152932       0.30282673
C       -1.96523907      -0.13251778      -0.09023410
C       -1.07936383       1.06676730       0.04382124
H        1.38093634       1.40454527       0.74887758
H        2.14644839      -0.58423439       1.28152156
H        1.81405782      -0.74997253      -0.88159428
H        0.43899736      -2.02783054      -0.55095127
H        0.18835987      -0.68781110      -1.66855162
H       -0.38919305      -0.58752802       1.34482734
H       -2.25130470      -0.44344267      -1.08705479
H       -2.72390613      -0.28903867       0.66538923
H       -0.77769764       1.56438427      -0.86952656
H       -1.22681523       1.72411800       0.89208096
16
Frame=9 idx=004314 GeodesicLength=0.6583254988544911 rxn_smarts="[O:1]([C:2]([C:3]([C:4]1([H:12])[C:5]([H:13])([H:14])[C:6]1([H:15])[H:16])([H:10])[H:11])([H:8])[H:9])[H:7]>>[C:3]([C:4]1([H:12])[C:5]([H:13])([H:14])[C:6]1([H:15])[H:16])([H:9])([H:10])[H:11].[O:1]([C:2][H:8])[H:7]"
O        2.16919972       1.15543231       0.20555345
C        2.35741545      -0.17472841       0.30925131
C        0.46045165      -0.93600200      -0.64064403
C       -0.52651542      -0.31649677       0.30238068
C       -1.96425565      -0.13310764      -0.08876412
C       -1.07802410       1.06505456       0.05635057
H        1.36815329       1.41272791       0.68307279
H        2.13308575      -0.55077677       1.32260351
H        1.82972652      -0.77854139      -0.88301963
H        0.42317193      -2.02663518      -0.57391273
H        0.19466411      -0.66833398      -1.66907076
H       -0.39160996      -0.60364384       1.34178823
H       -2.24983636      -0.43441538      -1.08871933
H       -2.72346910      -0.29497485       0.66519128
H       -0.78120217       1.57073904      -0.85427199
H       -1.22095565       1.71370240       0.91221078
16
Frame=10 idx=004314 GeodesicLength=0.7309149219046738 rxn_smarts="[O:1]([C:2]([C:3]([C:4]1([H:12])[C:5]([H:13])([H:14])[C:6]1([H:15])[H:16])([H:10])[H:11])([H:8])[H:9])[H:7]>>[C:3]([C:4]1([H:12])[C:5]([H:13])([H:14])[C:6]1([H:15])[H:16])([H:9])([H:10])[H:11].[O:1]([C:2][H:8])[H:7]"
O        2.18153617       1.14981675       0.18886650
C        2.35432970      -0.17910771       0.33665106
C        0.46416745      -0.93405923      -0.64456634
C       -0.52663183      -0.32210584       0.30186349
C       -1.96326199      -0.13334652      -0.08738617
C       -1.07590670       1.06302078       0.06905839
H        1.35602589       1.41834259       0.61674124
H        2.11943460      -0.51479206       1.36255147
H        1.84473170      -0.80691150      -0.88427629
H        0.40786987      -2.02533377      -0.59690522
H        0.20098127      -0.64961921      -1.66930705
H       -0.39429564      -0.62052800       1.33852316
H       -2.24837495      -0.42478257      -1.09044634
H       -2.72318692      -0.30016006       0.66479573
H       -0.78398079       1.57675982      -0.83876842
H       -1.21343783       1.70280653       0.93260479
16
Frame=11 idx=004314 GeodesicLength=0.8034721786116543 rxn_smarts="[O:1]([C:2]([C:3]([C:4]1([H:12])[C:5]([H:13])([H:14])[C:6]1([H:15])[H:16])([H:10])[H:11])([H:8])[H:9])[H:7]>>[C:3]([C:4]1([H:12])[C:5]([H:13])([H:14])[C:6]1([H:15])[H:16])([H:9])([H:10])[H:11].[O:1]([C:2][H:8])[H:7]"
O        2.19208942       1.14449092       0.17310084
C        2.34993424      -0.18164999       0.36419281
C        0.46788057      -0.93271732      -0.64846832
C       -0.52690055      -0.32840492       0.30124417
C       -1.96221211      -0.13318246      -0.08609476
C       -1.07289096       1.06063479       0.08193362
H        1.34441923       1.42136037       0.55025388
H        2.10539514      -0.47633023       1.40124533
H        1.85909541      -0.83498926      -0.88547116
H        0.39314086      -2.02400135      -0.61984321
H        0.20721631      -0.63182315      -1.66930155
H       -0.39722956      -0.63822781       1.33499362
H       -2.24690318      -0.41446327      -1.09221956
H       -2.72300419      -0.30449550       0.66422116
H       -0.78590308       1.58241288      -0.82301741
H       -1.20412758       1.69138628       0.95323053
16
Frame=12 idx=004314 GeodesicLength=0.8760851149729263 rxn_smarts="[O:1]([C:2]([C:3]([C:4]1([H:12])[C:5]([H:13])([H:14])[C:6]1([H:15])[H:16])([H:10])[H:11])([H:8])[H:9])[H:7]>>[C:3]([C:4]1([H:12])[C:5]([H:13])([H:14])[C:6]1([H:15])[H:16])([H:9])([H:10])[H:11].[O:1]([C:2][H:8])[H:7]"
O        2.20068950       1.13959315       0.15815892
C        2.34422028      -0.18227156       0.39183744
C        0.47159468      -0.93203286      -0.65237049
C       -0.52731308      -0.33543554       0.30049551
C       -1.96108093      -0.13257581      -0.08488254
C       -1.06888411       1.05787549       0.09497395
H        1.33322448       1.42177597       0.48397989
H        2.09087713      -0.43540595       1.43859592
H        1.87287173      -0.86275113      -0.88668577
H        0.37899615      -2.02272522      -0.64269707
H        0.21331349      -0.61506521      -1.66909620
H       -0.40040096      -0.65678422       1.33116822
H       -2.24541587      -0.40338646      -1.09402733
H       -2.72289995      -0.30790280       0.66348796
H       -0.78685170       1.58768910      -0.80700839
H       -1.19294085       1.67940305       0.97406999
16
Frame=13 idx=004314 GeodesicLength=0.9488085785345254 rxn_smarts="[O:1]([C:2]([C:3]([C:4]1([H:12])[C:5]([H:13])([H:14])[C:6]1([H:15])[H:16])([H:10])[H:11])([H:8])[H:9])[H:7]>>[C:3]([C:4]1([H:12])[C:5]([H:13])([H:14])[C:6]1([H:15])[H:16])([H:9])([H:10])[H:11].[O:1]([C:2][H:8])[H:7]"
O        2.20718643       1.13522065       0.14399652
C        2.33713709      -0.18092234       0.41953152
C        0.47529992      -0.93203647      -0.65630197
C       -0.52784798      -0.34320669       0.29958554
C       -1.95981217      -0.13149331      -0.08373445
C       -1.06379441       1.05471471       0.10814775
H        1.32232970       1.41965440       0.41836421
H        2.07573627      -0.39215730       1.47448629
H        1.88609349      -0.89009820      -0.88807296
H        0.36547363      -2.02156091      -0.66536228
H        0.21918305      -0.59947983      -1.66874917
H       -0.40378268      -0.67617052       1.32701654
H       -2.24387652      -0.39152282      -1.09583736
H       -2.72279774      -0.31031231       0.66263634
H       -0.78671280       1.59254556      -0.79076515
H       -1.17981530       1.66682538       0.99505865
16
Frame=14 idx=004314 GeodesicLength=1.0217818770671632 rxn_smarts="[O:1]([C:2]([C:3]([C:4]1([H:12])[C:5]([H:13])([H:14])[C:6]1([H:15])[H:16])([H:10])[H:11])([H:8])[H:9])[H:7]>>[C:3]([C:4]1([H:12])[C:5]([H:13])([H:14])[C:6]1([H:15])[H:16])([H:9])([H:10])[H:11].[O:1]([C:2][H:8])[H:7]"
O        2.21154407       1.13146989       0.13049057
C        2.32872519      -0.17757273       0.44724145
C        0.47901697      -0.93277074      -0.66027474
C       -0.52850574      -0.35173578       0.29848981
C       -1.95840946      -0.12991703      -0.08263914
C       -1.05758838       1.05115333       0.12145066
H        1.31166145       1.41507225       0.35376760
H        2.05988269      -0.34663031       1.50884633
H        1.89885614      -0.91705705      -0.88971935
H        0.35257059      -2.02060678      -0.68782805
H        0.22480302      -0.58514257      -1.66829918
H       -0.40736859      -0.69639521       1.32251346
H       -2.24229837      -0.37883125      -1.09763337
H       -2.72271492      -0.31168510       0.66169054
H       -0.78541174       1.59701151      -0.77427136
H       -1.16476291       1.65363759       1.01617477
16
Frame=15 idx=004314 GeodesicLength=1.0951037260746668 rxn_smarts="[O:1]([C:2]([C:3]([C:4]1([H:12])[C:5]([H:13])([H:14])[C:6]1([H:15])[H:16])([H:10])[H:11])([H:8])[H:9])[H:7]>>[C:3]([C:4]1([H:12])[C:5]([H:13])([H:14])[C:6]1([H:15])[H:16])([H:9])([H:10])[H:11].[O:1]([C:2][H:8])[H:7]"
O        2.21373880       1.12837651       0.11755884
C        2.31896409      -0.17222234       0.47493735
C        0.48274941      -0.93423910      -0.66430144
C       -0.52927077      -0.36100895       0.29718358
C       -1.95683183      -0.12783615      -0.08158053
C       -1.05022871       1.04717118       0.13485786
H        1.30113956       1.40814324       0.29054768
H        2.04316892      -0.29894133       1.54160541
H        1.91121048      -0.94360004      -0.89175336
H        0.34028969      -2.01990045      -0.71003524
H        0.23012438      -0.57211320      -1.66779019
H       -0.41113070      -0.71740796       1.31763974
H       -2.24064897      -0.36529965      -1.09938602
H       -2.72259300      -0.31199351       0.66068687
H       -0.78288455       1.60107022      -0.75753657
H       -1.14779680       1.63980155       1.03736603
16
Frame=16 idx=004314 GeodesicLength=1.1688982686833618 rxn_smarts="[O:1]([C:2]([C:3]([C:4]1([H:12])[C:5]([H:13])([H:14])[C:6]1([H:15])[H:16])([H:10])[H:11])([H:8])[H:9])[H:7]>>[C:3]([C:4]1([H:12])[C:5]([H:13])([H:14])[C:6]1([H:15])[H:16])([H:9])([H:10])[H:11].[O:1]([C:2][H:8])[H:7]"
O        2.21380154       1.12594396       0.10510512
C        2.30783586      -0.16489048       0.50260230
C        0.48650681      -0.93643808      -0.66838852
C       -0.53013124      -0.37100375       0.29564712
C       -1.95504332      -0.12525019      -0.08054217
C       -1.04169998       1.04275220       0.14835570
H        1.29070393       1.39900858       0.22900035
H        2.02544483      -0.24917597       1.57271654
H        1.92321110      -0.96973860      -0.89429674
H        0.32861404      -2.01947444      -0.73195455
H        0.23512352      -0.56042045      -1.66725711
H       -0.41504782      -0.73915184       1.31238142
H       -2.23889092      -0.35092421      -1.10106956
H       -2.72238312      -0.31123077       0.65965732
H       -0.77908483       1.60471504      -0.74055505
H       -1.12896039       1.62527899       1.05859783
