15
Frame=0 idx=005822 GeodesicLength=0.0 rxn_smarts="[C:1]([C:2]([N:3]([C:4]([H:12])([H:13])[H:14])[C:5](=[O:6])[H:15])([H:10])[H:11])([H:7])([H:8])[H:9]>>[C-:5]#[O+:6].[C:1](/[C:2](=[N:3]\[C:4]([H:12])([H:13])[H:14])[H:11])([H:7])([H:8])[H:9].[H:10][H:15]"
C        1.66416862      -0.47911031      -0.39697592
C        0.70765751       0.59947190       0.03372401
N       -0.41263621       0.38350733       0.69813910
C       -0.86908645      -0.99546563       0.84425563
C       -1.75065983       1.20054347      -0.15384051
O       -2.58956167       1.74593606       0.41082834
H        2.41607498      -0.07239633      -1.07183087
H        1.16014759      -1.30208292      -0.90283640
H        2.18302716      -0.89053761       0.47384835
H        0.10176147       1.07085299      -1.41974972
H        1.13534254       1.59146202       0.16620466
H       -0.16152110      -1.55527277       1.45796937
H       -0.99094851      -1.52475084      -0.10713919
H       -1.83038648      -0.98837024       1.35859008
H       -0.76337961       1.21621285      -1.39118689
15
Frame=1 idx=005822 GeodesicLength=0.09380163807405842 rxn_smarts="[C:1]([C:2]([N:3]([C:4]([H:12])([H:13])[H:14])[C:5](=[O:6])[H:15])([H:10])[H:11])([H:7])([H:8])[H:9]>>[C-:5]#[O+:6].[C:1](/[C:2](=[N:3]\[C:4]([H:12])([H:13])[H:14])[H:11])([H:7])([H:8])[H:9].[H:10][H:15]"
C        1.68247909      -0.47469442      -0.38408729
C        0.70203221       0.59435435       0.01533395
N       -0.41377973       0.37222448       0.69003001
C       -0.87245216      -1.00595829       0.82784705
C       -1.76513014       1.22159127      -0.12714444
O       -2.54224868       1.82631238       0.46669838
H        2.44273235      -0.06502336      -1.04784645
H        1.20094482      -1.30917136      -0.89329249
H        2.18930791      -0.87099549       0.50054471
H        0.07069694       1.03559571      -1.44224786
H        1.11812983       1.59280857       0.13875173
H       -0.17673533      -1.56410524       1.45661136
H       -0.97625188      -1.53937560      -0.12326031
H       -1.84445535      -1.00384502       1.32164370
H       -0.81526989       1.19028203      -1.39958204
15
Frame=2 idx=005822 GeodesicLength=0.187285406275293 rxn_smarts="[C:1]([C:2]([N:3]([C:4]([H:12])([H:13])[H:14])[C:5](=[O:6])[H:15])([H:10])[H:11])([H:7])([H:8])[H:9]>>[C-:5]#[O+:6].[C:1](/[C:2](=[N:3]\[C:4]([H:12])([H:13])[H:14])[H:11])([H:7])([H:8])[H:9].[H:10][H:15]"
C        1.70009317      -0.46982960      -0.37147234
C        0.69636661       0.58880211      -0.00326276
N       -0.41488402       0.36102507       0.68194506
C       -0.87580916      -1.01633620       0.81174570
C       -1.77852690       1.24277668      -0.09945532
O       -2.49080829       1.90318401       0.51780113
H        2.46834356      -0.05669552      -1.02391537
H        1.24118126      -1.31534737      -0.88364533
H        2.19452936      -0.85134247       0.52639477
H        0.03890188       1.00012941      -1.46359570
H        1.10127300       1.59327713       0.11143024
H       -0.19242293      -1.57266179       1.45563268
H       -0.96132040      -1.55433229      -0.13848695
H       -1.85836233      -1.01855416       1.28415279
H       -0.86855481       1.16590498      -1.40526862
15
Frame=3 idx=005822 GeodesicLength=0.2804947747792845 rxn_smarts="[C:1]([C:2]([N:3]([C:4]([H:12])([H:13])[H:14])[C:5](=[O:6])[H:15])([H:10])[H:11])([H:7])([H:8])[H:9]>>[C-:5]#[O+:6].[C:1](/[C:2](=[N:3]\[C:4]([H:12])([H:13])[H:14])[H:11])([H:7])([H:8])[H:9].[H:10][H:15]"
C        1.71704569      -0.46452561      -0.35912222
C        0.69067501       0.58280641      -0.02206411
N       -0.41593749       0.34988662       0.67386951
C       -0.87914994      -1.02662129       0.79592042
C       -1.79079590       1.26407679      -0.07073548
O       -2.43564700       1.97673196       0.56412538
H        2.49295714      -0.04741241      -0.99999359
H        1.28089659      -1.32059573      -0.87394635
H        2.19872291      -0.83161886       0.55141815
H        0.00647857       0.96460861      -1.48376436
H        1.08478050       1.59288485       0.08429374
H       -0.20860204      -1.58095220       1.45499881
H       -0.94613974      -1.56963149      -0.15283135
H       -1.87204815      -1.03256216       1.24609818
H       -0.92323616       1.14292450      -1.40826673
15
Frame=4 idx=005822 GeodesicLength=0.3735713905030983 rxn_smarts="[C:1]([C:2]([N:3]([C:4]([H:12])([H:13])[H:14])[C:5](=[O:6])[H:15])([H:10])[H:11])([H:7])([H:8])[H:9]>>[C-:5]#[O+:6].[C:1](/[C:2](=[N:3]\[C:4]([H:12])([H:13])[H:14])[H:11])([H:7])([H:8])[H:9].[H:10][H:15]"
C        1.73339420      -0.45882240      -0.34704158
C        0.68498243       0.57637357      -0.04106279
N       -0.41693372       0.33880769       0.66582032
C       -0.88246921      -1.03684840       0.78037025
C       -1.80187785       1.28554753      -0.04093234
O       -2.37730649       2.04710891       0.60563338
H        2.51665141      -0.03719990      -0.97607341
H        1.32016612      -1.32494853      -0.86426994
H        2.20194453      -0.81192768       0.57564062
H       -0.02644279       0.92922898      -1.50278635
H        1.06866045       1.59168781       0.05738855
H       -0.22529007      -1.58904016       1.45470890
H       -0.93069627      -1.58529229      -0.16630988
H       -1.88546670      -1.04592621       1.20750960
H       -0.97931602       1.12125107      -1.40859532
15
Frame=5 idx=005822 GeodesicLength=0.46637799380934114 rxn_smarts="[C:1]([C:2]([N:3]([C:4]([H:12])([H:13])[H:14])[C:5](=[O:6])[H:15])([H:10])[H:11])([H:7])([H:8])[H:9]>>[C-:5]#[O+:6].[C:1](/[C:2](=[N:3]\[C:4]([H:12])([H:13])[H:14])[H:11])([H:7])([H:8])[H:9].[H:10][H:15]"
C        1.74915844      -0.45267953      -0.33513310
C        0.67927428       0.56944738      -0.06037461
N       -0.41783254       0.32772942       0.65765541
C       -0.88578262      -1.04698882       0.76493309
C       -1.81169014       1.30714020      -0.00996747
O       -2.31568293       2.11431436       0.64265938
H        2.53943668      -0.02605339      -0.95199207
H        1.35907277      -1.32839449      -0.85446398
H        2.20417493      -0.79205881       0.59920126
H       -0.05991950       0.89385343      -1.52068181
H        1.05288401       1.58962944       0.03054227
H       -0.24260166      -1.59679445       1.45465871
H       -0.91495888      -1.60126893      -0.17900369
H       -1.89861536      -1.05865031       1.16807104
H       -1.03691746       1.10077451      -1.40610443
15
Frame=6 idx=005822 GeodesicLength=0.5591308325104071 rxn_smarts="[C:1]([C:2]([N:3]([C:4]([H:12])([H:13])[H:14])[C:5](=[O:6])[H:15])([H:10])[H:11])([H:7])([H:8])[H:9]>>[C-:5]#[O+:6].[C:1](/[C:2](=[N:3]\[C:4]([H:12])([H:13])[H:14])[H:11])([H:7])([H:8])[H:9].[H:10][H:15]"
C        1.76438959      -0.44618045      -0.32347094
C        0.67362135       0.56206824      -0.07988949
N       -0.41863271       0.31669473       0.64948918
C       -0.88907324      -1.05709146       0.74971753
C       -1.82014250       1.32892586       0.02218402
O       -2.25170404       2.17846074       0.67483778
H        2.56137171      -0.01401645      -0.92786003
H        1.39762594      -1.33096978      -0.84473114
H        2.20550498      -0.77231771       0.62201192
H       -0.09364533       0.85885871      -1.53749579
H        1.03751311       1.58681830       0.00395301
H       -0.26049354      -1.60438090       1.45488042
H       -0.89897339      -1.61757583      -0.19086966
H       -1.91140459      -1.07076220       1.12803913
H       -1.09595733       1.08146820      -1.40079593
15
Frame=7 idx=005822 GeodesicLength=0.6517296432440194 rxn_smarts="[C:1]([C:2]([N:3]([C:4]([H:12])([H:13])[H:14])[C:5](=[O:6])[H:15])([H:10])[H:11])([H:7])([H:8])[H:9]>>[C-:5]#[O+:6].[C:1](/[C:2](=[N:3]\[C:4]([H:12])([H:13])[H:14])[H:11])([H:7])([H:8])[H:9].[H:10][H:15]"
C        1.77910965      -0.43931447      -0.31200977
C        0.66804495       0.55419808      -0.09964871
N       -0.41929254       0.30566948       0.64125467
C       -0.89235253      -1.06713015       0.73463006
C       -1.82711051       1.35085796       0.05561912
O       -2.18557618       2.23954774       0.70223135
H        2.58246433      -0.00109704      -0.90359423
H        1.43587307      -1.33265979      -0.83500059
H        2.20595646      -0.75263257       0.64411814
H       -0.12755770       0.82421928      -1.55324646
H        1.02255640       1.58321769      -0.02246212
H       -0.27904178      -1.61173581       1.45527087
H       -0.88275290      -1.63414901      -0.20194901
H       -1.92380734      -1.08223473       1.08724721
H       -1.15651338       1.06324334      -1.39246051
15
Frame=8 idx=005822 GeodesicLength=0.7442617627774143 rxn_smarts="[C:1]([C:2]([N:3]([C:4]([H:12])([H:13])[H:14])[C:5](=[O:6])[H:15])([H:10])[H:11])([H:7])([H:8])[H:9]>>[C-:5]#[O+:6].[C:1](/[C:2](=[N:3]\[C:4]([H:12])([H:13])[H:14])[H:11])([H:7])([H:8])[H:9].[H:10][H:15]"
C        1.79336190      -0.43212395      -0.30073909
C        0.66258470       0.54584454      -0.11965233
N       -0.41978628       0.29466165       0.63295166
C       -0.89562335      -1.07713226       0.71964717
C       -1.83246441       1.37298902       0.09040772
O       -2.11780724       2.29765768       0.72483638
H        2.60274788       0.01267098      -0.87919087
H        1.47388264      -1.33353840      -0.82527982
H        2.20559010      -0.73306187       0.66557169
H       -0.16150631       0.79002365      -1.56804928
H        1.00802046       1.57889501      -0.04872634
H       -0.29828603      -1.61891942       1.45580616
H       -0.86631862      -1.65099613      -0.21228871
H       -1.93577516      -1.09307630       1.04568010
H       -1.21862026       1.04610579      -1.38097445
15
Frame=9 idx=005822 GeodesicLength=0.8366942763821466 rxn_smarts="[C:1]([C:2]([N:3]([C:4]([H:12])([H:13])[H:14])[C:5](=[O:6])[H:15])([H:10])[H:11])([H:7])([H:8])[H:9]>>[C-:5]#[O+:6].[C:1](/[C:2](=[N:3]\[C:4]([H:12])([H:13])[H:14])[H:11])([H:7])([H:8])[H:9].[H:10][H:15]"
C        1.80720685      -0.42457063      -0.28954429
C        0.65724064       0.53691487      -0.14006764
N       -0.42010183       0.28360919       0.62438024
C       -0.89894380      -1.08703814       0.70460768
C       -1.83608023       1.39532834       0.12659492
O       -2.04835994       2.35253747       0.74313691
H        2.62226344       0.02725863      -0.85453291
H        1.51182752      -1.33361312      -0.81530443
H        2.20440695      -0.71334433       0.68651725
H       -0.19549895       0.75603130      -1.58202103
H        0.99385208       1.57375373      -0.07517525
H       -0.31840799      -1.62577718       1.45636039
H       -0.84965036      -1.66804731      -0.22193934
H       -1.94734963      -1.10316220       1.00303466
H       -1.28240475       1.03011941      -1.36604716
15
Frame=10 idx=005822 GeodesicLength=0.9291347912955928 rxn_smarts="[C:1]([C:2]([N:3]([C:4]([H:12])([H:13])[H:14])[C:5](=[O:6])[H:15])([H:10])[H:11])([H:7])([H:8])[H:9]>>[C-:5]#[O+:6].[C:1](/[C:2](=[N:3]\[C:4]([H:12])([H:13])[H:14])[H:11])([H:7])([H:8])[H:9].[H:10][H:15]"
C        1.82065309      -0.41673063      -0.27848349
C        0.65209788       0.52748515      -0.16074125
N       -0.42021773       0.27256890       0.61565428
C       -0.90228687      -1.09691576       0.68959041
C       -1.83780608       1.41788866       0.16418273
O       -1.97810239       2.40442795       0.75676603
H        2.64099347       0.04263964      -0.82971525
H        1.54963972      -1.33294811      -0.80525805
H        2.20249334      -0.69376455       0.70690749
H       -0.22917085       0.72250480      -1.59529529
H        0.98011365       1.56795675      -0.10157425
H       -0.33932353      -1.63250907       1.45692074
H       -0.83288040      -1.68531537      -0.23094183
H       -1.95839256      -1.11254301       0.95957894
H       -1.34781075       1.01525464      -1.34759120
15
Frame=11 idx=005822 GeodesicLength=1.021467529362725 rxn_smarts="[C:1]([C:2]([N:3]([C:4]([H:12])([H:13])[H:14])[C:5](=[O:6])[H:15])([H:10])[H:11])([H:7])([H:8])[H:9]>>[C-:5]#[O+:6].[C:1](/[C:2](=[N:3]\[C:4]([H:12])([H:13])[H:14])[H:11])([H:7])([H:8])[H:9].[H:10][H:15]"
C        1.83373413      -0.40858307      -0.26750558
C        0.64719316       0.51749233      -0.18172330
N       -0.42012057       0.26150001       0.60665443
C       -0.90570169      -1.10670030       0.67447468
C       -1.83746071       1.44059424       0.20325299
O       -1.90726950       2.45320231       0.76582657
H        2.65894963       0.05879123      -0.80468203
H        1.58740173      -1.33151546      -0.79497998
H        2.19987526      -0.67418893       0.72676761
H       -0.26237174       0.68930018      -1.60793274
H        0.96679701       1.56141337      -0.12808693
H       -0.36114714      -1.63900903       1.45730691
H       -0.81606712      -1.70268073      -0.23934394
H       -1.96889832      -1.12110806       0.91518172
H       -1.41491414       1.00149191      -1.32521040
15
Frame=12 idx=005822 GeodesicLength=1.1138772050280916 rxn_smarts="[C:1]([C:2]([N:3]([C:4]([H:12])([H:13])[H:14])[C:5](=[O:6])[H:15])([H:10])[H:11])([H:7])([H:8])[H:9]>>[C-:5]#[O+:6].[C:1](/[C:2](=[N:3]\[C:4]([H:12])([H:13])[H:14])[H:11])([H:7])([H:8])[H:9].[H:10][H:15]"
C        1.84649899      -0.40016004      -0.25656803
C        0.64257822       0.50695786      -0.20301173
N       -0.41978634       0.25040398       0.59734420
C       -0.90920378      -1.11647049       0.65920435
C       -1.83486846       1.46351832       0.24386294
O       -1.83627757       2.49906593       0.77032528
H        2.67614419       0.07570971      -0.77942270
H        1.62517010      -1.32943693      -0.78439714
H        2.19666135      -0.65461567       0.74621490
H       -0.29494465       0.65638776      -1.62017052
H        0.95390015       1.55424306      -0.15477978
H       -0.38389660      -1.64539365       1.45748183
H       -0.79929196      -1.72022366      -0.24724745
H       -1.97882572      -1.12891430       0.86981313
H       -1.48385792       0.98892812      -1.29864927
15
Frame=13 idx=005822 GeodesicLength=1.2061252971168683 rxn_smarts="[C:1]([C:2]([N:3]([C:4]([H:12])([H:13])[H:14])[C:5](=[O:6])[H:15])([H:10])[H:11])([H:7])([H:8])[H:9]>>[C-:5]#[O+:6].[C:1](/[C:2](=[N:3]\[C:4]([H:12])([H:13])[H:14])[H:11])([H:7])([H:8])[H:9].[H:10][H:15]"
C        1.85896373      -0.39137751      -0.24555894
C        0.63824179       0.49572184      -0.22482428
N       -0.41930693       0.23921164       0.58741383
C       -0.91290608      -1.12606788       0.64359179
C       -1.82981732       1.48658874       0.28596155
O       -1.76509075       2.54145528       0.77098636
H        2.69257703       0.09334507      -0.75388296
H        1.66319190      -1.32663601      -0.77312597
H        2.19268611      -0.63463051       0.76534299
H       -0.32663505       0.62339948      -1.63220133
H        0.94128158       1.54619865      -0.18213285
H       -0.40782914      -1.65137336       1.45717672
H       -0.78255512      -1.73776386      -0.25469526
H       -1.98819854      -1.13567332       0.82336049
H       -1.55460321       0.97760174      -1.26741213
15
Frame=14 idx=005822 GeodesicLength=1.2985364744187422 rxn_smarts="[C:1]([C:2]([N:3]([C:4]([H:12])([H:13])[H:14])[C:5](=[O:6])[H:15])([H:10])[H:11])([H:7])([H:8])[H:9]>>[C-:5]#[O+:6].[C:1](/[C:2](=[N:3]\[C:4]([H:12])([H:13])[H:14])[H:11])([H:7])([H:8])[H:9].[H:10][H:15]"
C        1.87116733      -0.38232866      -0.23449665
C        0.63431831       0.48395754      -0.24691602
N       -0.41863001       0.22800152       0.57698179
C       -0.91676823      -1.13567743       0.62769062
C       -1.82215044       1.50989014       0.32951163
O       -1.69454017       2.58100395       0.76718402
H        2.70824786       0.11172006      -0.72809428
H        1.70126353      -1.32324170      -0.76138342
H        2.18819955      -0.61462385       0.78419272
H       -0.35709298       0.59052491      -1.64432406
H        0.92910211       1.53762620      -0.20973582
H       -0.43267666      -1.65731743       1.45638584
H       -0.76615468      -1.75543465      -0.26184872
H       -1.99691118      -1.14163785       0.77612560
H       -1.62737434       0.96753722      -1.23127326
15
Frame=15 idx=005822 GeodesicLength=1.3908084495225794 rxn_smarts="[C:1]([C:2]([N:3]([C:4]([H:12])([H:13])[H:14])[C:5](=[O:6])[H:15])([H:10])[H:11])([H:7])([H:8])[H:9]>>[C-:5]#[O+:6].[C:1](/[C:2](=[N:3]\[C:4]([H:12])([H:13])[H:14])[H:11])([H:7])([H:8])[H:9].[H:10][H:15]"
C        1.88309297      -0.37295806      -0.22334324
C        0.63085360       0.47156389      -0.26934818
N       -0.41783088       0.21672575       0.56583633
C       -0.92087709      -1.14513686       0.61132636
C       -1.81155889       1.53325208       0.37459188
O       -1.62490021       2.61739056       0.75900253
H        2.72312981       0.13078826      -0.70204053
H        1.73948930      -1.31913813      -0.74893461
H        2.18305602      -0.59435789       0.80273505
H       -0.38587124       0.55746346      -1.65667651
H        0.91731368       1.52830788      -0.23779174
H       -0.45861491      -1.66298308       1.45479508
H       -0.75015399      -1.77297611      -0.26880819
H       -2.00496927      -1.14661532       0.72810230
H       -1.70215890       0.95867360      -1.18944651
15
Frame=16 idx=005822 GeodesicLength=1.482978354860926 rxn_smarts="[C:1]([C:2]([N:3]([C:4]([H:12])([H:13])[H:14])[C:5](=[O:6])[H:15])([H:10])[H:11])([H:7])([H:8])[H:9]>>[C-:5]#[O+:6].[C:1](/[C:2](=[N:3]\[C:4]([H:12])([H:13])[H:14])[H:11])([H:7])([H:8])[H:9].[H:10][H:15]"
C        1.89474618      -0.36325081      -0.21202635
C        0.62790779       0.45852037      -0.29215546
N       -0.41696283       0.20537486       0.55380437
C       -0.92527811      -1.15444218       0.59434879
C       -1.79773218       1.55668635       0.42125544
O       -1.55649863       2.65067300       0.74641920
H        2.73719995       0.15053955      -0.67567898
H        1.77793074      -1.31435135      -0.73559600
H        2.17720784      -0.57370210       0.82108076
H       -0.41258744       0.52398445      -1.66961483
H        0.90589425       1.51824098      -0.26642285
H       -0.48567951      -1.66835326       1.45221418
H       -0.73465612      -1.79036229      -0.27575836
H       -2.01236210      -1.15060672       0.67930796
H       -1.77912983       0.95104916      -1.14117787
