15
Frame=0 idx=010854 GeodesicLength=0.0 rxn_smarts="[C:1]([C@@:2]12[C:3]([H:11])([H:12])[C@:4]1([O:5][H:13])[C:6]([H:14])([H:15])[O:7]2)([H:8])([H:9])[H:10]>>[C:1]([C@@:2]12[C:3]([H:11])([H:12])[C@:4]1([O:5][H:13])[C-:6]=[O+:7]2)([H:8])([H:9])[H:10].[H:14][H:15]"
C        1.90921983      -0.23930602       0.64061778
C        0.64592894       0.11083275      -0.05337512
C       -0.16544540      -0.67910990      -1.00261940
C       -0.81042710      -0.14644653       0.27021025
O       -1.35523239      -0.96479812       1.22763850
C       -0.90673581       1.34875283       0.26961659
O        0.35612261       1.50957260      -0.25811197
H        2.76881629      -0.03955268      -0.00152372
H        1.90707439      -1.29838451       0.89910862
H        2.00866072       0.34521883       1.55535016
H       -0.44826167      -0.27178144      -1.96802005
H        0.02274595      -1.74596042      -0.96699510
H       -2.11641293      -1.41521322       0.85600259
H       -1.95705814       1.52429022      -1.12166145
H       -1.85899522       1.96188556      -0.34623768
15
Frame=1 idx=010854 GeodesicLength=0.05466050786466703 rxn_smarts="[C:1]([C@@:2]12[C:3]([H:11])([H:12])[C@:4]1([O:5][H:13])[C:6]([H:14])([H:15])[O:7]2)([H:8])([H:9])[H:10]>>[C:1]([C@@:2]12[C:3]([H:11])([H:12])[C@:4]1([O:5][H:13])[C-:6]=[O+:7]2)([H:8])([H:9])[H:10].[H:14][H:15]"
C        1.91416774      -0.24208615       0.64317703
C        0.65252252       0.10803228      -0.05393766
C       -0.15695088      -0.68354810      -1.00476119
C       -0.80393518      -0.14619116       0.26494505
O       -1.35822182      -0.95915581       1.22127257
C       -0.90229909       1.34907808       0.25193686
O        0.36443578       1.50641008      -0.26693269
H        2.77507908      -0.04559795       0.00178194
H        1.91000322      -1.30042868       0.90467014
H        2.01341240       0.34487898       1.55639478
H       -0.43373616      -0.27790125      -1.97254074
H        0.02809162      -1.75084382      -0.96546919
H       -2.12812775      -1.39506316       0.85013078
H       -1.98103804       1.52768293      -1.10823616
H       -1.89340343       1.96473373      -0.32243154
15
Frame=2 idx=010854 GeodesicLength=0.10930118137242048 rxn_smarts="[C:1]([C@@:2]12[C:3]([H:11])([H:12])[C@:4]1([O:5][H:13])[C:6]([H:14])([H:15])[O:7]2)([H:8])([H:9])[H:10]>>[C:1]([C@@:2]12[C:3]([H:11])([H:12])[C@:4]1([O:5][H:13])[C-:6]=[O+:7]2)([H:8])([H:9])[H:10].[H:14][H:15]"
C        1.91900311      -0.24485757       0.64586246
C        0.65918633       0.10522606      -0.05469536
C       -0.14827955      -0.68815017      -1.00705752
C       -0.79743694      -0.14569742       0.25925570
O       -1.36126701      -0.95295392       1.21460653
C       -0.89786381       1.34957156       0.23281582
O        0.37312198       1.50318967      -0.27621837
H        2.78137661      -0.05185601       0.00536508
H        1.91265818      -1.30240374       0.91054499
H        2.01794513       0.34467881       1.55748266
H       -0.41880190      -0.28443630      -1.97734015
H        0.03346859      -1.75588148      -0.96380905
H       -2.13954804      -1.37435762       0.84400294
H       -2.00562193       1.53177932      -1.09406701
H       -1.92794076       1.96614881      -0.29674870
15
Frame=3 idx=010854 GeodesicLength=0.16390168751968903 rxn_smarts="[C:1]([C@@:2]12[C:3]([H:11])([H:12])[C@:4]1([O:5][H:13])[C:6]([H:14])([H:15])[O:7]2)([H:8])([H:9])[H:10]>>[C:1]([C@@:2]12[C:3]([H:11])([H:12])[C@:4]1([O:5][H:13])[C-:6]=[O+:7]2)([H:8])([H:9])[H:10].[H:14][H:15]"
C        1.92369149      -0.24759199       0.64867923
C        0.66588434       0.10241824      -0.05564962
C       -0.13944242      -0.69293760      -1.00951027
C       -0.79096955      -0.14497079       0.25311395
O       -1.36436695      -0.94618850       1.20763727
C       -0.89348304       1.35020124       0.21216270
O        0.38214071       1.49990833      -0.28596632
H        2.78767304      -0.05826844       0.00924315
H        1.91502708      -1.30428439       0.91672038
H        2.02220318       0.34463550       1.55862798
H       -0.40345716      -0.29143137      -1.98242690
H        0.03886926      -1.76109022      -0.96200074
H       -2.15062897      -1.35319138       0.83760600
H       -2.03090007       1.53656708      -1.07903390
H       -1.96224094       1.96622430      -0.26920290
15
Frame=4 idx=010854 GeodesicLength=0.21841668534444297 rxn_smarts="[C:1]([C@@:2]12[C:3]([H:11])([H:12])[C@:4]1([O:5][H:13])[C:6]([H:14])([H:15])[O:7]2)([H:8])([H:9])[H:10]>>[C:1]([C@@:2]12[C:3]([H:11])([H:12])[C@:4]1([O:5][H:13])[C-:6]=[O+:7]2)([H:8])([H:9])[H:10].[H:14][H:15]"
C        1.92820002      -0.25025473       0.65162747
C        0.67257923       0.09961649      -0.05680112
C       -0.13044658      -0.69793032      -1.01211751
C       -0.78457152      -0.14402863       0.24649639
O       -1.36752605      -0.93888383       1.20035905
C       -0.88921926       1.35091662       0.18989426
O        0.39143709       1.49656460      -0.29617001
H        2.79393470      -0.06476154       0.01342547
H        1.91710499      -1.30604067       0.92317613
H        2.02613001       0.34476512       1.55984103
H       -0.38769311      -0.29892632      -1.98780519
H        0.04429309      -1.76648349      -0.96002729
H       -2.16136769      -1.33163877       0.83093200
H       -2.05694357       1.54201024      -1.06300853
H       -1.99591134       1.96507524      -0.23982217
15
Frame=5 idx=010854 GeodesicLength=0.27282848535127374 rxn_smarts="[C:1]([C@@:2]12[C:3]([H:11])([H:12])[C@:4]1([O:5][H:13])[C:6]([H:14])([H:15])[O:7]2)([H:8])([H:9])[H:10]>>[C:1]([C@@:2]12[C:3]([H:11])([H:12])[C@:4]1([O:5][H:13])[C-:6]=[O+:7]2)([H:8])([H:9])[H:10].[H:14][H:15]"
C        1.93246658      -0.25280128       0.65470547
C        0.67920932       0.09681945      -0.05814433
C       -0.12130978      -0.70316266      -1.01487719
C       -0.77828610      -0.14289933       0.23937750
O       -1.37073197      -0.93104898       1.19277164
C       -0.88513779       1.35163948       0.16594759
O        0.40092347       1.49313487      -0.30680626
H        2.80008166      -0.07124544       0.01792097
H        1.91887419      -1.30762509       0.92987764
H        2.02963724       0.34509684       1.56113422
H       -0.37151320      -0.30698703      -1.99347419
H        0.04973765      -1.77207958      -0.95787927
H       -2.17168156      -1.30985789       0.82395774
H       -2.08377887       1.54805040      -1.04583455
H       -2.02849085       1.96296622      -0.20867696
15
Frame=6 idx=010854 GeodesicLength=0.3271407955852471 rxn_smarts="[C:1]([C@@:2]12[C:3]([H:11])([H:12])[C@:4]1([O:5][H:13])[C:6]([H:14])([H:15])[O:7]2)([H:8])([H:9])[H:10]>>[C:1]([C@@:2]12[C:3]([H:11])([H:12])[C@:4]1([O:5][H:13])[C-:6]=[O+:7]2)([H:8])([H:9])[H:10].[H:14][H:15]"
C        1.93647170      -0.25518180       0.65791988
C        0.68574357       0.09402838      -0.05969626
C       -0.11202828      -0.70868326      -1.01779783
C       -0.77215462      -0.14162934       0.23171431
O       -1.37401106      -0.92275578       1.18483551
C       -0.88130492       1.35229142       0.14023843
O        0.41052059       1.48961429      -0.31791182
H        2.80610503      -0.07764633       0.02274626
H        1.92034257      -1.30899209       0.93685078
H        2.03267546       0.34569577       1.56250472
H       -0.35489733      -0.31568764      -1.99945367
H        0.05523287      -1.77792456      -0.95553806
H       -2.18163761      -1.28791270       0.81664235
H       -2.11147681       1.55465983      -1.02731152
H       -2.05958114       1.96012381      -0.17574307
15
Frame=7 idx=010854 GeodesicLength=0.38133824756854534 rxn_smarts="[C:1]([C@@:2]12[C:3]([H:11])([H:12])[C@:4]1([O:5][H:13])[C:6]([H:14])([H:15])[O:7]2)([H:8])([H:9])[H:10]>>[C:1]([C@@:2]12[C:3]([H:11])([H:12])[C@:4]1([O:5][H:13])[C-:6]=[O+:7]2)([H:8])([H:9])[H:10].[H:14][H:15]"
C        1.94016222      -0.25733416       0.66127301
C        0.69213167       0.09123837      -0.06147514
C       -0.10259936      -0.71455123      -1.02088827
C       -0.76621738      -0.14027256       0.22345888
O       -1.37737951      -0.91406149       1.17650692
C       -0.87778527       1.35276615       0.11268807
O        0.42012443       1.48597394      -0.32952309
H        2.81194978      -0.08387933       0.02791536
H        1.92149294      -1.31007091       0.94411433
H        2.03515455       0.34664369       1.56394336
H       -0.33782257      -0.32512725      -2.00575965
H        0.06081330      -1.78406247      -0.95298724
H       -2.19124715      -1.26590729       0.80892617
H       -2.14003919       1.56180851      -1.00720608
H       -2.08873847       1.95683603      -0.14098664
15
Frame=8 idx=010854 GeodesicLength=0.4354652464482857 rxn_smarts="[C:1]([C@@:2]12[C:3]([H:11])([H:12])[C@:4]1([O:5][H:13])[C:6]([H:14])([H:15])[O:7]2)([H:8])([H:9])[H:10]>>[C:1]([C@@:2]12[C:3]([H:11])([H:12])[C@:4]1([O:5][H:13])[C-:6]=[O+:7]2)([H:8])([H:9])[H:10].[H:14][H:15]"
C        1.94351761      -0.25918717       0.66476910
C        0.69833678       0.08844598      -0.06350124
C       -0.09301231      -0.72084931      -1.02416453
C       -0.76052784      -0.13889596       0.21455872
O       -1.38088805      -0.90505731       1.16772146
C       -0.87466300       1.35295865       0.08321949
O        0.42963087       1.48220387      -0.34167326
H        2.81761220      -0.08985273       0.03344415
H        1.92234007      -1.31079397       0.95169178
H        2.03701421       0.34805043       1.56544359
H       -0.32025621      -0.33543063      -2.01241552
H        0.06652621      -1.79057510      -0.95022014
H       -2.20061517      -1.24390622       0.80074057
H       -2.16945575       1.56949903      -0.98527696
H       -2.11555962       1.95339043      -0.10433722
15
Frame=9 idx=010854 GeodesicLength=0.48944748334469945 rxn_smarts="[C:1]([C@@:2]12[C:3]([H:11])([H:12])[C@:4]1([O:5][H:13])[C:6]([H:14])([H:15])[O:7]2)([H:8])([H:9])[H:10]>>[C:1]([C@@:2]12[C:3]([H:11])([H:12])[C@:4]1([O:5][H:13])[C-:6]=[O+:7]2)([H:8])([H:9])[H:10].[H:14][H:15]"
C        1.94641548      -0.26065598       0.66842177
C        0.70426337       0.08562605      -0.06581288
C       -0.08327918      -0.72764662      -1.02763273
C       -0.75511879      -0.13759713       0.20493344
O       -1.38450174      -0.89583633       1.15842602
C       -0.87200344       1.35268688       0.05169922
O        0.43886730       1.47821969      -0.35447944
H        2.82293486      -0.09542392       0.03937360
H        1.92283367      -1.31105020       0.95964226
H        2.03807082       0.35000871       1.56698610
H       -0.30220854      -0.34671058      -2.01944001
H        0.07241931      -1.79749125      -0.94718196
H       -2.20962199      -1.22214322       0.79200002
H       -2.19959804       1.57779713      -0.96120522
H       -2.13947310       1.95021675      -0.06573021
15
Frame=10 idx=010854 GeodesicLength=0.5432866654917202 rxn_smarts="[C:1]([C@@:2]12[C:3]([H:11])([H:12])[C@:4]1([O:5][H:13])[C:6]([H:14])([H:15])[O:7]2)([H:8])([H:9])[H:10]>>[C:1]([C@@:2]12[C:3]([H:11])([H:12])[C@:4]1([O:5][H:13])[C-:6]=[O+:7]2)([H:8])([H:9])[H:10].[H:14][H:15]"
C        1.94883571      -0.26164677       0.67221490
C        0.70989204       0.08280165      -0.06844199
C       -0.07334622      -0.73502361      -1.03131719
C       -0.75005094      -0.13643448       0.19452588
O       -1.38833770      -0.88649663       1.14850657
C       -0.86991663       1.35183186       0.01805379
O        0.44773151       1.47403317      -0.36795724
H        2.82794660      -0.10056478       0.04568100
H        1.92293017      -1.31072698       0.96801692
H        2.03827851       0.35269839       1.56851491
H       -0.28355665      -0.35910703      -2.02685594
H        0.07857211      -1.80488831      -0.94388758
H       -2.21853234      -1.20051427       0.78261391
H       -2.23036020       1.58668184      -0.93470747
H       -2.16008597       1.94735595      -0.02496048
15
Frame=11 idx=010854 GeodesicLength=0.5968653723342012 rxn_smarts="[C:1]([C@@:2]12[C:3]([H:11])([H:12])[C@:4]1([O:5][H:13])[C:6]([H:14])([H:15])[O:7]2)([H:8])([H:9])[H:10]>>[C:1]([C@@:2]12[C:3]([H:11])([H:12])[C@:4]1([O:5][H:13])[C-:6]=[O+:7]2)([H:8])([H:9])[H:10].[H:14][H:15]"
C        1.95059286      -0.26203683       0.67613922
C        0.71505748       0.07993044      -0.07140398
C       -0.06326840      -0.74306686      -1.03520084
C       -0.74539890      -0.13554636       0.18329148
O       -1.39237942      -0.87712534       1.13798454
C       -0.86850754       1.35013805      -0.01776142
O        0.45596747       1.46950773      -0.38218394
H        2.83239635      -0.10497490       0.05238121
H        1.92260771      -1.30968025       0.97675582
H        2.03734486       0.35618498       1.57003884
H       -0.26436483      -0.37275921      -2.03465038
H        0.08501564      -1.81278588      -0.94027337
H       -2.22709831      -1.17953134       0.77251132
H       -2.26128556       1.59635859      -0.90552687
H       -2.17667941       1.94538721       0.01789836
15
Frame=12 idx=010854 GeodesicLength=0.6503485766556263 rxn_smarts="[C:1]([C@@:2]12[C:3]([H:11])([H:12])[C@:4]1([O:5][H:13])[C:6]([H:14])([H:15])[O:7]2)([H:8])([H:9])[H:10]>>[C:1]([C@@:2]12[C:3]([H:11])([H:12])[C@:4]1([O:5][H:13])[C-:6]=[O+:7]2)([H:8])([H:9])[H:10].[H:14][H:15]"
C        1.95173627      -0.26172156       0.68022107
C        0.71973766       0.07702780      -0.07473843
C       -0.05303313      -0.75191276      -1.03931320
C       -0.74126168      -0.13504413       0.17113670
O       -1.39676170      -0.86792880       1.12670778
C       -0.86795845       1.34750854      -0.05584908
O        0.46341177       1.46470941      -0.39723587
H        2.83639479      -0.10855895       0.05952630
H        1.92194021      -1.30784375       0.98596564
H        2.03528613       0.36068378       1.57153820
H       -0.24461360      -0.38783934      -2.04285705
H        0.09182867      -1.82136739      -0.93633142
H       -2.23562603      -1.15923500       0.76154993
H       -2.29225906       1.60702582      -0.87334192
H       -2.18882186       1.94449635       0.06302133
15
Frame=13 idx=010854 GeodesicLength=0.703794206944299 rxn_smarts="[C:1]([C@@:2]12[C:3]([H:11])([H:12])[C@:4]1([O:5][H:13])[C:6]([H:14])([H:15])[O:7]2)([H:8])([H:9])[H:10]>>[C:1]([C@@:2]12[C:3]([H:11])([H:12])[C@:4]1([O:5][H:13])[C-:6]=[O+:7]2)([H:8])([H:9])[H:10].[H:14][H:15]"
C        1.95212894      -0.26052928       0.68446925
C        0.72382387       0.07407039      -0.07851279
C       -0.04261647      -0.76171188      -1.04368868
C       -0.73772924      -0.13508582       0.15794437
O       -1.40158827      -0.85907711       1.11453481
C       -0.86841877       1.34369337      -0.09631972
O        0.46982863       1.45954221      -0.41327753
H        2.83982253      -0.11113648       0.06715091
H        1.92084630      -1.30500235       0.99575727
H        2.03186547       0.36647027       1.57295279
H       -0.22425748      -0.40458200      -2.05151041
H        0.09913279      -1.83074460      -0.93203812
H       -2.24418731      -1.13988193       0.74953507
H       -2.32289585       1.61896472      -0.83763680
H       -2.19575513       1.94501047       0.11063959
15
Frame=14 idx=010854 GeodesicLength=0.7570030089876308 rxn_smarts="[C:1]([C@@:2]12[C:3]([H:11])([H:12])[C@:4]1([O:5][H:13])[C:6]([H:14])([H:15])[O:7]2)([H:8])([H:9])[H:10]>>[C:1]([C@@:2]12[C:3]([H:11])([H:12])[C@:4]1([O:5][H:13])[C-:6]=[O+:7]2)([H:8])([H:9])[H:10].[H:14][H:15]"
C        1.95154002      -0.25827862       0.68886490
C        0.72715960       0.07106274      -0.08279297
C       -0.03200562      -0.77252089      -1.04832368
C       -0.73485597      -0.13583907       0.14362461
O       -1.40689161      -0.85080639       1.10132022
C       -0.87003771       1.33838981      -0.13925424
O        0.47490832       1.45390247      -0.43046855
H        2.84240983      -0.11247951       0.07525746
H        1.91917116      -1.30090940       1.00621622
H        2.02675851       0.37374815       1.57418229
H       -0.20325818      -0.42308723      -2.06059475
H        0.10703132      -1.84090215      -0.92732116
H       -2.25284723      -1.12154871       0.73633512
H       -2.35255050       1.63237660      -0.79795139
H       -2.19653193       1.94689220       0.16090592
15
Frame=15 idx=010854 GeodesicLength=0.810021385209285 rxn_smarts="[C:1]([C@@:2]12[C:3]([H:11])([H:12])[C@:4]1([O:5][H:13])[C:6]([H:14])([H:15])[O:7]2)([H:8])([H:9])[H:10]>>[C:1]([C@@:2]12[C:3]([H:11])([H:12])[C@:4]1([O:5][H:13])[C-:6]=[O+:7]2)([H:8])([H:9])[H:10].[H:14][H:15]"
C        1.94985782      -0.25479902       0.69338699
C        0.72956556       0.06799391      -0.08756163
C       -0.02130977      -0.78443198      -1.05318701
C       -0.73280559      -0.13749106       0.12820929
O       -1.41279204      -0.84332266       1.08710069
C       -0.87308305       1.33136531      -0.18440921
O        0.47829430       1.44773004      -0.44880049
H        2.84402344      -0.11217644       0.08384261
H        1.91699988      -1.29542679       1.01720616
H        2.01973510       0.38264016       1.57525762
H       -0.18180795      -0.44345551      -2.07003916
H        0.11554180      -1.85190943      -0.92218208
H       -2.26156970      -1.10489247       0.72186245
H       -2.38030084       1.64769870      -0.75422090
H       -2.19034896       1.95047723       0.21353468
15
Frame=16 idx=010854 GeodesicLength=0.8629591658449088 rxn_smarts="[C:1]([C@@:2]12[C:3]([H:11])([H:12])[C@:4]1([O:5][H:13])[C:6]([H:14])([H:15])[O:7]2)([H:8])([H:9])[H:10]>>[C:1]([C@@:2]12[C:3]([H:11])([H:12])[C@:4]1([O:5][H:13])[C-:6]=[O+:7]2)([H:8])([H:9])[H:10].[H:14][H:15]"
C        1.94700529      -0.24992743       0.69800481
C        0.73092098       0.06489769      -0.09282603
C       -0.01058562      -0.79748160      -1.05825747
C       -0.73170010      -0.14021170       0.11172604
O       -1.41944354      -0.83693574       1.07180079
C       -0.87779532       1.32246170      -0.23149392
O        0.47967471       1.44104238      -0.46828164
H        2.84459347      -0.11002041       0.09286140
H        1.91431608      -1.28839390       1.02875135
H        2.01067957       0.39337004       1.57609607
H       -0.15999630      -0.46568274      -2.07976913
H        0.12471417      -1.86380740      -0.91663463
H       -2.27060242      -1.09010933       0.70603372
H       -2.40524453       1.66523871      -0.70635843
H       -2.17653644       1.95555972       0.26834707
