17
Frame=0 idx=008928 GeodesicLength=0.0 rxn_smarts="[C:1]([O:2][C:3]([C@@:4]([O:5][H:14])([C:6]([O:7][H:17])([H:15])[H:16])[H:13])([H:11])[H:12])([H:8])([H:9])[H:10]>>[C:1]([O:2][C:3]([C:4](=[O:5])[C:6]([O:7][H:17])([H:15])[H:16])([H:12])[H:13])([H:8])([H:9])[H:10].[H:11][H:14]"
C        2.77758371       0.17018539      -0.15084760
O        1.54935485      -0.01789754       0.55699519
C        0.46819020      -0.18236266      -0.11687286
C       -0.80465241      -0.48278500       0.60027977
O       -1.06161842       0.32473839       1.61172945
C       -1.99297582      -0.70073877      -0.36716458
O       -2.68891976       0.49746762      -0.55906552
H        3.57347865      -0.12497312       0.52644243
H        2.87369549       1.22620087      -0.40444560
H        2.79691993      -0.44270552      -1.05383975
H       -0.14072293       1.72535974      -0.06005315
H        0.59160657      -0.40631094      -1.18344945
H       -0.48504597      -1.52200236       0.91310108
H       -0.49418691       1.53847950       0.65031185
H       -2.64191917      -1.46608981       0.07771783
H       -1.66552541      -1.06980290      -1.34593478
H       -2.65526265       0.93323710       0.30509577
17
Frame=1 idx=008928 GeodesicLength=0.1075783045843534 rxn_smarts="[C:1]([O:2][C:3]([C@@:4]([O:5][H:14])([C:6]([O:7][H:17])([H:15])[H:16])[H:13])([H:11])[H:12])([H:8])([H:9])[H:10]>>[C:1]([O:2][C:3]([C:4](=[O:5])[C:6]([O:7][H:17])([H:15])[H:16])([H:12])[H:13])([H:8])([H:9])[H:10].[H:11][H:14]"
C        2.77592556       0.16565308      -0.14273353
O        1.54665776      -0.01449612       0.56199979
C        0.46477520      -0.18031108      -0.12284385
C       -0.81060827      -0.47713251       0.59328121
O       -1.05936565       0.33246756       1.60382227
C       -2.00168541      -0.69837849      -0.36601587
O       -2.70958971       0.49449932      -0.54691052
H        3.57126221      -0.09730392       0.54859631
H        2.86398634       1.21368753      -0.43173666
H        2.81069675      -0.47608213      -1.02538650
H       -0.11720474       1.71872078      -0.06378730
H        0.58514158      -0.40024582      -1.19014799
H       -0.44278001      -1.52630581       0.87171189
H       -0.48527720       1.54852971       0.66342181
H       -2.63844320      -1.47368741       0.07913573
H       -1.67998025      -1.05866723      -1.34988768
H       -2.67351095       0.92905254       0.31748089
17
Frame=2 idx=008928 GeodesicLength=0.2150038327676826 rxn_smarts="[C:1]([O:2][C:3]([C@@:4]([O:5][H:14])([C:6]([O:7][H:17])([H:15])[H:16])[H:13])([H:11])[H:12])([H:8])([H:9])[H:10]>>[C:1]([O:2][C:3]([C:4](=[O:5])[C:6]([O:7][H:17])([H:15])[H:16])([H:12])[H:13])([H:8])([H:9])[H:10].[H:11][H:14]"
C        2.77431940       0.16107185      -0.13455136
O        1.54407697      -0.01124133       0.56708334
C        0.46147813      -0.17798599      -0.12886294
C       -0.81622485      -0.47173355       0.58663267
O       -1.05721007       0.34080161       1.59554718
C       -2.01007096      -0.69623027      -0.36464278
O       -2.73021823       0.49089491      -0.53452373
H        3.56875589      -0.07023906       0.56926898
H        2.85509674       1.20006165      -0.45788034
H        2.82401529      -0.50794575      -0.99637256
H       -0.09377397       1.71212476      -0.06809531
H        0.57871701      -0.39385514      -1.19689593
H       -0.40228322      -1.52926124       0.82982722
H       -0.47597536       1.55862791       0.67637254
H       -2.63451721      -1.48148459       0.08044127
H       -1.69417364      -1.04773597      -1.35350270
H       -2.69201193       0.92413019       0.33015445
17
Frame=3 idx=008928 GeodesicLength=0.3224078935903901 rxn_smarts="[C:1]([O:2][C:3]([C@@:4]([O:5][H:14])([C:6]([O:7][H:17])([H:15])[H:16])[H:13])([H:11])[H:12])([H:8])([H:9])[H:10]>>[C:1]([O:2][C:3]([C:4](=[O:5])[C:6]([O:7][H:17])([H:15])[H:16])([H:12])[H:13])([H:8])([H:9])[H:10].[H:11][H:14]"
C        2.77276760       0.15641062      -0.12628875
O        1.54158815      -0.00811081       0.57222581
C        0.45829475      -0.17534794      -0.13497813
C       -0.82151852      -0.46650216       0.58025126
O       -1.05515420       0.34969725       1.58690635
C       -2.01815069      -0.69427662      -0.36307389
O       -2.75084141       0.48665643      -0.52186982
H        3.56598131      -0.04371540       0.58863450
H        2.84697413       1.18536322      -0.48300201
H        2.83691510      -0.53852847      -0.96677724
H       -0.07043059       1.70560549      -0.07302615
H        0.57233251      -0.38707591      -1.20374215
H       -0.36345186      -1.53099958       0.78750797
H       -0.46628100       1.56881286       0.68927276
H       -2.63010919      -1.48948486       0.08162192
H       -1.70813764      -1.03695248      -1.35682676
H       -2.71077845       0.91844835       0.34316432
17
Frame=4 idx=008928 GeodesicLength=0.42982301728600397 rxn_smarts="[C:1]([O:2][C:3]([C@@:4]([O:5][H:14])([C:6]([O:7][H:17])([H:15])[H:16])[H:13])([H:11])[H:12])([H:8])([H:9])[H:10]>>[C:1]([O:2][C:3]([C:4](=[O:5])[C:6]([O:7][H:17])([H:15])[H:16])([H:12])[H:13])([H:8])([H:9])[H:10].[H:11][H:14]"
C        2.77126342       0.15166096      -0.11792864
O        1.53917475      -0.00512389       0.57742445
C        0.45522199      -0.17239491      -0.14121489
C       -0.82651052      -0.46135684       0.57408153
O       -1.05321285       0.35916430       1.57788377
C       -2.02594674      -0.69251998      -0.36131991
O       -2.77147867       0.48176949      -0.50895222
H        3.56295834      -0.01782576       0.60678843
H        2.83958901       1.16968946      -0.50704559
H        2.84938959      -0.56785693      -0.93670414
H       -0.04715021       1.69918344      -0.07865595
H        0.56598160      -0.37988491      -1.21071545
H       -0.32619265      -1.53160890       0.74483893
H       -0.45616677       1.57911388       0.70218276
H       -2.62520805      -1.49768541       0.08270443
H       -1.72190261      -1.02632696      -1.35986954
H       -2.72980961       0.91200298       0.35650201
17
Frame=5 idx=008928 GeodesicLength=0.5373585398814741 rxn_smarts="[C:1]([O:2][C:3]([C@@:4]([O:5][H:14])([C:6]([O:7][H:17])([H:15])[H:16])[H:13])([H:11])[H:12])([H:8])([H:9])[H:10]>>[C:1]([O:2][C:3]([C:4](=[O:5])[C:6]([O:7][H:17])([H:15])[H:16])([H:12])[H:13])([H:8])([H:9])[H:10].[H:11][H:14]"
C        2.76979770       0.14680620      -0.10946279
O        1.53681104      -0.00226306       0.58266209
C        0.45225170      -0.16910362      -0.14760865
C       -0.83122165      -0.45622118       0.56806064
O       -1.05139568       0.36918032       1.56847572
C       -2.03347513      -0.69094904      -0.35940236
O       -2.79215595       0.47622403      -0.49574521
H        3.55968834       0.00745253       0.62385734
H        2.83291453       1.15306757      -0.53007609
H        2.86145075      -0.59607500      -0.90614467
H       -0.02391806       1.69287449      -0.08506446
H        0.55965993      -0.37224331      -1.21785078
H       -0.29039823      -1.53116655       0.70185983
H       -0.44561731       1.58955658       0.71521789
H       -2.61978650      -1.50608585       0.08368354
H       -1.73549727      -1.01582629      -1.36266129
H       -2.74910821       0.90477219       0.37019923
17
Frame=6 idx=008928 GeodesicLength=0.644985534495347 rxn_smarts="[C:1]([O:2][C:3]([C@@:4]([O:5][H:14])([C:6]([O:7][H:17])([H:15])[H:16])[H:13])([H:11])[H:12])([H:8])([H:9])[H:10]>>[C:1]([O:2][C:3]([C:4](=[O:5])[C:6]([O:7][H:17])([H:15])[H:16])([H:12])[H:13])([H:8])([H:9])[H:10].[H:11][H:14]"
C        2.76835254       0.14183344      -0.10088157
O        1.53447559       0.00044845       0.58793969
C        0.44937535      -0.16548297      -0.15417334
C       -0.83567945      -0.45102330       0.56214797
O       -1.04972639       0.37976960       1.55866165
C       -2.04075684      -0.68956983      -0.35732853
O       -2.81288453       0.47000162      -0.48226234
H        3.55619119       0.03202692       0.63989323
H        2.82692977       1.13558333      -0.55201625
H        2.87308915      -0.62317174      -0.87519265
H       -0.00070169       1.68669131      -0.09232052
H        0.55335588      -0.36413944      -1.22516515
H       -0.25597232      -1.52972371       0.65863894
H       -0.43459767       1.60015538       0.72844238
H       -2.61383661      -1.51467968       0.08458738
H       -1.74894817      -1.00547398      -1.36520380
H       -2.76866583       0.89675459       0.38423289
17
Frame=7 idx=008928 GeodesicLength=0.7526810616822842 rxn_smarts="[C:1]([O:2][C:3]([C@@:4]([O:5][H:14])([C:6]([O:7][H:17])([H:15])[H:16])[H:13])([H:11])[H:12])([H:8])([H:9])[H:10]>>[C:1]([O:2][C:3]([C:4](=[O:5])[C:6]([O:7][H:17])([H:15])[H:16])([H:12])[H:13])([H:8])([H:9])[H:10].[H:11][H:14]"
C        2.76691244       0.13673213      -0.09217670
O        1.53214095       0.00302629       0.59325068
C        0.44658206      -0.16152175      -0.16092747
C       -0.83991022      -0.44569978       0.55629621
O       -1.04822782       0.39093086       1.54843371
C       -2.04780609      -0.68837689      -0.35511922
O       -2.83368018       0.46308441      -0.46849377
H        3.55247652       0.05592553       0.65497657
H        2.82161160       1.11724106      -0.57293160
H        2.88430045      -0.64926673      -0.84383526
H        0.02251756       1.68064337      -0.10045639
H        0.54706158      -0.35554037      -1.23267806
H       -0.22280353      -1.52732180       0.61519488
H       -0.42308181       1.61093065       0.74196686
H       -2.60733801      -1.52346285       0.08540652
H       -1.76227806      -0.99525518      -1.36752043
H       -2.78847743       0.88793104       0.39861346
17
Frame=8 idx=008928 GeodesicLength=0.8604678880917592 rxn_smarts="[C:1]([O:2][C:3]([C@@:4]([O:5][H:14])([C:6]([O:7][H:17])([H:15])[H:16])[H:13])([H:11])[H:12])([H:8])([H:9])[H:10]>>[C:1]([O:2][C:3]([C:4](=[O:5])[C:6]([O:7][H:17])([H:15])[H:16])([H:12])[H:13])([H:8])([H:9])[H:10].[H:11][H:14]"
C        2.76545623       0.13149034      -0.08334506
O        1.52978202       0.00546039       0.59859003
C        0.44385977      -0.15722690      -0.16788487
C       -0.84394379      -0.44018317       0.55046995
O       -1.04692447       0.40268341       1.53777346
C       -2.05463925      -0.68737325      -0.35278129
O       -2.85455346       0.45545190      -0.45444701
H        3.54854923       0.07908648       0.66916480
H        2.81694052       1.09810423      -0.59278088
H        2.89507780      -0.67436105      -0.81213204
H        0.04577948       1.67473228      -0.10955676
H        0.54076590      -0.34644390      -1.24040352
H       -0.19080117      -1.52398719       0.57156592
H       -0.41103323       1.62188063       0.75589424
H       -2.60027834      -1.53242496       0.08616451
H       -1.77550989      -0.98518874      -1.36961349
H       -2.80852736       0.87829951       0.41332200
17
Frame=9 idx=008928 GeodesicLength=0.9682149780164624 rxn_smarts="[C:1]([O:2][C:3]([C@@:4]([O:5][H:14])([C:6]([O:7][H:17])([H:15])[H:16])[H:13])([H:11])[H:12])([H:8])([H:9])[H:10]>>[C:1]([O:2][C:3]([C:4](=[O:5])[C:6]([O:7][H:17])([H:15])[H:16])([H:12])[H:13])([H:8])([H:9])[H:10].[H:11][H:14]"
C        2.76395857       0.12610760      -0.07440469
O        1.52738225       0.00776712       0.60396111
C        0.44119746      -0.15262684      -0.17502208
C       -0.84781929      -0.43443950       0.54464310
O       -1.04586972       0.41507465       1.52665951
C       -2.06127057      -0.68655077      -0.35034627
O       -2.87548529       0.44709230      -0.44015552
H        3.54441444       0.10152229       0.68250780
H        2.81281041       1.07818895      -0.61165823
H        2.90540895      -0.69856656      -0.78007802
H        0.06908305       1.66895443      -0.11957948
H        0.53445428      -0.33683622      -1.24832488
H       -0.15978822      -1.51966486       0.52777439
H       -0.39835498       1.63296032       0.77036012
H       -2.59266822      -1.54153700       0.08683480
H       -1.78864877      -0.97527989      -1.37150351
H       -2.82880434       0.86783396       0.42833184
17
Frame=10 idx=008928 GeodesicLength=1.0760581839529095 rxn_smarts="[C:1]([O:2][C:3]([C@@:4]([O:5][H:14])([C:6]([O:7][H:17])([H:15])[H:16])[H:13])([H:11])[H:12])([H:8])([H:9])[H:10]>>[C:1]([O:2][C:3]([C:4](=[O:5])[C:6]([O:7][H:17])([H:15])[H:16])([H:12])[H:13])([H:8])([H:9])[H:10].[H:11][H:14]"
C        2.76240646       0.12055901      -0.06533367
O        1.52490554       0.00996867       0.60934395
C        0.43858093      -0.14767465      -0.18238662
C       -0.85155191      -0.42837730       0.53877014
O       -1.04506719       0.42810601       1.51507554
C       -2.06770437      -0.68591884      -0.34781483
O       -2.89650977       0.43796541      -0.42559048
H        3.54006771       0.12319790       0.69510120
H        2.80925929       1.05753203      -0.62956089
H        2.91526005      -0.72195602      -0.74769639
H        0.09248399       1.66332985      -0.13065588
H        0.52812255      -0.32667816      -1.25648301
H       -0.12972173      -1.51444465       0.48383671
H       -0.38506878       1.64421428       0.78549356
H       -2.58444646      -1.55081564       0.08744357
H       -1.80172061      -0.96553254      -1.37319866
H       -2.84929570       0.85652462       0.44365576
17
Frame=11 idx=008928 GeodesicLength=1.1840159599759312 rxn_smarts="[C:1]([O:2][C:3]([C@@:4]([O:5][H:14])([C:6]([O:7][H:17])([H:15])[H:16])[H:13])([H:11])[H:12])([H:8])([H:9])[H:10]>>[C:1]([O:2][C:3]([C:4](=[O:5])[C:6]([O:7][H:17])([H:15])[H:16])([H:12])[H:13])([H:8])([H:9])[H:10].[H:11][H:14]"
C        2.76077869       0.11482768      -0.05612944
O        1.52232338       0.01208956       0.61472813
C        0.43599621      -0.14236110      -0.18998772
C       -0.85517104      -0.42192883       0.53281973
O       -1.04454998       0.44180921       1.50299566
C       -2.07395061      -0.68547576      -0.34520138
O       -2.91763747       0.42804217      -0.41075083
H        3.53550140       0.14411552       0.70701530
H        2.80624859       1.03614697      -0.64653682
H        2.92460306      -0.74461971      -0.71499067
H        0.11601885       1.65786702      -0.14284348
H        0.52176278      -0.31595248      -1.26488467
H       -0.10048070      -1.50833927       0.43975698
H       -0.37113255       1.65562765       0.80144158
H       -2.57558202      -1.56025559       0.08799246
H       -1.81474031      -0.95594855      -1.37471176
H       -2.86998829       0.84435549       0.45928691
17
Frame=12 idx=008928 GeodesicLength=1.292047209021311 rxn_smarts="[C:1]([O:2][C:3]([C@@:4]([O:5][H:14])([C:6]([O:7][H:17])([H:15])[H:16])[H:13])([H:11])[H:12])([H:8])([H:9])[H:10]>>[C:1]([O:2][C:3]([C:4](=[O:5])[C:6]([O:7][H:17])([H:15])[H:16])([H:12])[H:13])([H:8])([H:9])[H:10].[H:11][H:14]"
C        2.75905057       0.10890133      -0.04679335
O        1.51960651       0.01415568       0.62010311
C        0.43342742      -0.13667483      -0.19783447
C       -0.85870755      -0.41503301       0.52676015
O       -1.04435322       0.45621768       1.49039185
C       -2.08001553      -0.68521816      -0.34252536
O       -2.93887203       0.41729036      -0.39563719
H        3.53070511       0.16431866       0.71827100
H        2.80374218       1.01399234      -0.66265278
H        2.93340317      -0.76664606      -0.68190788
H        0.13972294       1.65256825      -0.15616964
H        0.51536489      -0.30463765      -1.27353579
H       -0.07195041      -1.50135289       0.39553569
H       -0.35649544       1.66718907       0.81836713
H       -2.56604003      -1.56984737       0.08846895
H       -1.82772102      -0.94652655      -1.37606021
H       -2.89086757       0.83130314       0.47521877
17
Frame=13 idx=008928 GeodesicLength=1.4001170872873188 rxn_smarts="[C:1]([O:2][C:3]([C@@:4]([O:5][H:14])([C:6]([O:7][H:17])([H:15])[H:16])[H:13])([H:11])[H:12])([H:8])([H:9])[H:10]>>[C:1]([O:2][C:3]([C:4](=[O:5])[C:6]([O:7][H:17])([H:15])[H:16])([H:12])[H:13])([H:8])([H:9])[H:10].[H:11][H:14]"
C        2.75719535       0.10277349      -0.03732778
O        1.51672737       0.01618528       0.62546383
C        0.43085813      -0.13061840      -0.20592749
C       -0.86219645      -0.40762620       0.52056977
O       -1.04451688       0.47137735       1.47722686
C       -2.08590672      -0.68514949      -0.33979509
O       -2.96021308       0.40567805      -0.38026521
H        3.52567687       0.18379706       0.72889950
H        2.80169966       0.99107533      -0.67793869
H        2.94163283      -0.78807887      -0.64845205
H        0.16363989       1.64742571      -0.17067501
H        0.50891781      -0.29272604      -1.28243547
H       -0.04402612      -1.49347861       0.35116311
H       -0.34110689       1.67886982       0.83643011
H       -2.55579688      -1.57957569       0.08888863
H       -1.84067454      -0.93729316      -1.37724517
H       -2.91191035       0.81736438       0.49142015
17
Frame=14 idx=008928 GeodesicLength=1.5081954736464103 rxn_smarts="[C:1]([O:2][C:3]([C@@:4]([O:5][H:14])([C:6]([O:7][H:17])([H:15])[H:16])[H:13])([H:11])[H:12])([H:8])([H:9])[H:10]>>[C:1]([O:2][C:3]([C:4](=[O:5])[C:6]([O:7][H:17])([H:15])[H:16])([H:12])[H:13])([H:8])([H:9])[H:10].[H:11][H:14]"
C        2.75518528       0.09643535      -0.02773709
O        1.51365509       0.01819552       0.63079250
C        0.42827075      -0.12418684      -0.21427853
C       -0.86566956      -0.39965032       0.51421884
O       -1.04508299       0.48735370       1.46345300
C       -2.09162899      -0.68527229      -0.33702528
O       -2.98165667       0.39316793      -0.36464756
H        3.52039931       0.20257758       0.73892797
H        2.80008030       0.96737817      -0.69244599
H        2.94925943      -0.80897401      -0.61460707
H        0.18781572       1.64243295      -0.18640395
H        0.50241230      -0.28021220      -1.29159120
H       -0.01660998      -1.48470077       0.30665399
H       -0.32490765       1.69061704       0.85584498
H       -2.54482268      -1.58942300       0.08925895
H       -1.85361307      -0.92827089      -1.37827620
H       -2.93308659       0.80253210       0.50786264
17
Frame=15 idx=008928 GeodesicLength=1.6162160733453614 rxn_smarts="[C:1]([O:2][C:3]([C@@:4]([O:5][H:14])([C:6]([O:7][H:17])([H:15])[H:16])[H:13])([H:11])[H:12])([H:8])([H:9])[H:10]>>[C:1]([O:2][C:3]([C:4](=[O:5])[C:6]([O:7][H:17])([H:15])[H:16])([H:12])[H:13])([H:8])([H:9])[H:10].[H:11][H:14]"
C        2.75299025       0.08988573      -0.01803123
O        1.51036149       0.02019643       0.63607987
C        0.42564678      -0.11738634      -0.22289022
C       -0.86916323      -0.39104639       0.50768630
O       -1.04609832       0.50422439       1.44901044
C       -2.09718849      -0.68559440      -0.33422159
O       -3.00319295       0.37972291      -0.34881177
H        3.51486820       0.22066255       0.74838302
H        2.79883204       0.94291665      -0.70620987
H        2.95625330      -0.82937214      -0.58038342
H        0.21229698       1.63757628      -0.20338085
H        0.49583627      -0.26709533      -1.30100484
H        0.01039182      -1.47499871       0.26200249
H       -0.30783270       1.70236377       0.87681857
H       -2.53309712      -1.59936382       0.08960873
H       -1.86654606      -0.91951061      -1.37914912
H       -2.95435827       0.78681904       0.52449349
17
Frame=16 idx=008928 GeodesicLength=1.724113812476642 rxn_smarts="[C:1]([O:2][C:3]([C@@:4]([O:5][H:14])([C:6]([O:7][H:17])([H:15])[H:16])[H:13])([H:11])[H:12])([H:8])([H:9])[H:10]>>[C:1]([O:2][C:3]([C:4](=[O:5])[C:6]([O:7][H:17])([H:15])[H:16])([H:12])[H:13])([H:8])([H:9])[H:10].[H:11][H:14]"
C        2.75058038       0.08312213      -0.00822359
O        1.50681819       0.02221229       0.64130713
C        0.42296704      -0.11020992      -0.23177462
C       -0.87271090      -0.38175637       0.50094355
O       -1.04761083       0.52207818       1.43382830
C       -2.10258642      -0.68612184      -0.33139581
O       -3.02480979       0.36530035      -0.33278126
H        3.50907299       0.23809920       0.75727726
H        2.79790974       0.91765113      -0.71930446
H        2.96257788      -0.84932967      -0.54574349
H        0.23713247       1.63284719      -0.22162792
H        0.48917875      -0.25336835      -1.31068566
H        0.03706217      -1.46433978       0.21721009
H       -0.28981930       1.71401361       0.89961275
H       -2.52058942      -1.60937316       0.08995877
H       -1.87948249      -0.91105488      -1.37986832
H       -2.97569047       0.77022989       0.54126730
