16
Frame=0 idx=000217 GeodesicLength=0.0 rxn_smarts="[C:1]([C@@:2]1([H:10])[C:3]([H:11])([H:12])[C:4]([H:13])([H:14])[C:5]([H:15])=[C:6]1[H:16])([H:7])([H:8])[H:9]>>[C:1]([C@@:2]1([H:10])[C:3]([H:11])([H:12])[C:4]([H:13])([H:14])[C:5]([H:15])([H:16])[C:6]1)([H:7])([H:8])[H:9]"
C        2.03733702      -0.43232183       0.08638134
C        0.68890190       0.04586974      -0.42745898
C       -0.48080370      -0.92822017      -0.16427877
C       -1.71708570      -0.02736858      -0.12033737
C       -1.11003367       1.30675773       0.26373502
C        0.26579325       1.42337209       0.05331846
H        2.00970196      -0.56165939       1.17185001
H        2.81607816       0.29600955      -0.14058771
H        2.31741715      -1.39104505      -0.35684465
H        0.77174946       0.20958493      -1.51281982
H       -0.55393823      -1.72422820      -0.90636481
H       -0.33863437      -1.40636700       0.81097237
H       -2.49551676      -0.36503608       0.56485365
H       -2.18020047       0.08193003      -1.10690486
H       -1.72763339       2.16056227       0.53666704
H       -0.30313261       1.31215999       1.24781905
16
Frame=1 idx=000217 GeodesicLength=0.037349770317439204 rxn_smarts="[C:1]([C@@:2]1([H:10])[C:3]([H:11])([H:12])[C:4]([H:13])([H:14])[C:5]([H:15])=[C:6]1[H:16])([H:7])([H:8])[H:9]>>[C:1]([C@@:2]1([H:10])[C:3]([H:11])([H:12])[C:4]([H:13])([H:14])[C:5]([H:15])([H:16])[C:6]1)([H:7])([H:8])[H:9]"
C        2.03810865      -0.43373613       0.08566033
C        0.68882390       0.04434247      -0.42582993
C       -0.48119421      -0.92939523      -0.16461990
C       -1.71727917      -0.02816896      -0.11944042
C       -1.11194050       1.30577104       0.26863520
C        0.26326432       1.41900418       0.05428810
H        2.01068713      -0.56779903       1.17051228
H        2.81588075       0.29678439      -0.13781912
H        2.31924129      -1.39002159      -0.36205242
H        0.77018771       0.21186113      -1.51120872
H       -0.55374216      -1.72411089      -0.90818165
H       -0.33922736      -1.40935558       0.80970543
H       -2.49576824      -0.36823022       0.56457324
H       -2.17980757       0.08081323      -1.10633295
H       -1.73114684       2.16379999       0.52324033
H       -0.29608769       1.32844119       1.25887019
16
Frame=2 idx=000217 GeodesicLength=0.07469230314627681 rxn_smarts="[C:1]([C@@:2]1([H:10])[C:3]([H:11])([H:12])[C:4]([H:13])([H:14])[C:5]([H:15])=[C:6]1[H:16])([H:7])([H:8])[H:9]>>[C:1]([C@@:2]1([H:10])[C:3]([H:11])([H:12])[C:4]([H:13])([H:14])[C:5]([H:15])([H:16])[C:6]1)([H:7])([H:8])[H:9]"
C        2.03884938      -0.43515541       0.08496024
C        0.68872001       0.04280701      -0.42418428
C       -0.48160415      -0.93059804      -0.16499613
C       -1.71748983      -0.02900010      -0.11852912
C       -1.11388362       1.30473464       0.27366954
C        0.26069078       1.41458554       0.05538021
H        2.01163086      -0.57397778       1.16916870
H        2.81564537       0.29755102      -0.13498120
H        2.32104502      -1.38896116      -0.36725732
H        0.76860483       0.21418936      -1.50955423
H       -0.55356117      -1.72397837      -0.91007156
H       -0.33984224      -1.41240606       0.80838135
H       -2.49603154      -0.37149341       0.56428282
H       -2.17942807       0.07972708      -1.10574000
H       -1.73455248       2.16675158       0.50974236
H       -0.28879314       1.34522410       1.26972860
16
Frame=3 idx=000217 GeodesicLength=0.11203258179892098 rxn_smarts="[C:1]([C@@:2]1([H:10])[C:3]([H:11])([H:12])[C:4]([H:13])([H:14])[C:5]([H:15])=[C:6]1[H:16])([H:7])([H:8])[H:9]>>[C:1]([C@@:2]1([H:10])[C:3]([H:11])([H:12])[C:4]([H:13])([H:14])[C:5]([H:15])([H:16])[C:6]1)([H:7])([H:8])[H:9]"
C        2.03955923      -0.43658137       0.08428337
C        0.68859074       0.04126282      -0.42252385
C       -0.48203335      -0.93183197      -0.16540988
C       -1.71771857      -0.02986200      -0.11760499
C       -1.11586531       1.30365205       0.27883958
C        0.25807041       1.41012029       0.05659264
H        2.01253024      -0.58019506       1.16782489
H        2.81537246       0.29830870      -0.13207314
H        2.32283035      -1.38786921      -0.37245518
H        0.76700418       0.21656980      -1.50786088
H       -0.55339301      -1.72383531      -0.91203979
H       -0.34048055      -1.41552460       0.80700012
H       -2.49630936      -0.37482779       0.56398139
H       -2.17906123       0.07867369      -1.10513078
H       -1.73785323       2.16940871       0.49620410
H       -0.28124299       1.36253126       1.28037240
16
Frame=4 idx=000217 GeodesicLength=0.14936380948201608 rxn_smarts="[C:1]([C@@:2]1([H:10])[C:3]([H:11])([H:12])[C:4]([H:13])([H:14])[C:5]([H:15])=[C:6]1[H:16])([H:7])([H:8])[H:9]>>[C:1]([C@@:2]1([H:10])[C:3]([H:11])([H:12])[C:4]([H:13])([H:14])[C:5]([H:15])([H:16])[C:6]1)([H:7])([H:8])[H:9]"
C        2.04023661      -0.43801316       0.08363273
C        0.68843518       0.03970867      -0.42084686
C       -0.48248298      -0.93309377      -0.16586321
C       -1.71796538      -0.03075479      -0.11667019
C       -1.11788453       1.30251546       0.28414226
C        0.25540349       1.40560168       0.05792437
H        2.01338338      -0.58644731       1.16647927
H        2.81506081       0.29905388      -0.12909050
H        2.32459496      -1.38674140      -0.37763881
H        0.76538507       0.21900080      -1.50612163
H       -0.55323978      -1.72367398      -0.91408614
H       -0.34114340      -1.41870701       0.80555506
H       -2.49660129      -0.37823225       0.56366187
H       -2.17870804       0.07765349      -1.10450321
H       -1.74104667       2.17175305       0.48265482
H       -0.27342743       1.38037665       1.29077020
16
Frame=5 idx=000217 GeodesicLength=0.18668889519364434 rxn_smarts="[C:1]([C@@:2]1([H:10])[C:3]([H:11])([H:12])[C:4]([H:13])([H:14])[C:5]([H:15])=[C:6]1[H:16])([H:7])([H:8])[H:9]>>[C:1]([C@@:2]1([H:10])[C:3]([H:11])([H:12])[C:4]([H:13])([H:14])[C:5]([H:15])([H:16])[C:6]1)([H:7])([H:8])[H:9]"
C        2.04088089      -0.43945091       0.08301087
C        0.68825372       0.03814419      -0.41915645
C       -0.48295309      -0.93438616      -0.16635955
C       -1.71823087      -0.03167803      -0.11573148
C       -1.11994461       1.30132985       0.28957388
C        0.25268878       1.40103299       0.05937474
H        2.01418950      -0.59271667       1.16513973
H        2.81471192       0.29978148      -0.12604661
H        2.32633513      -1.38558978      -0.38278995
H        0.76375136       0.22148231      -1.50434187
H       -0.55309874      -1.72350047      -0.91621470
H       -0.34183347      -1.42195557       0.80404651
H       -2.49691097      -0.38170685       0.56331663
H       -2.17836504       0.07666875      -1.10386814
H       -1.74413077       2.17376957       0.46915096
H       -0.26534373       1.39877529       1.30089543
16
Frame=6 idx=000217 GeodesicLength=0.22397583304563615 rxn_smarts="[C:1]([C@@:2]1([H:10])[C:3]([H:11])([H:12])[C:4]([H:13])([H:14])[C:5]([H:15])=[C:6]1[H:16])([H:7])([H:8])[H:9]>>[C:1]([C@@:2]1([H:10])[C:3]([H:11])([H:12])[C:4]([H:13])([H:14])[C:5]([H:15])([H:16])[C:6]1)([H:7])([H:8])[H:9]"
C        2.04149004      -0.44089195       0.08242263
C        0.68804644       0.03656845      -0.41745482
C       -0.48344475      -0.93571001      -0.16690338
C       -1.71851468      -0.03263221      -0.11479515
C       -1.12204070       1.30008967       0.29513593
C        0.24992612       1.39641491       0.06093608
H        2.01494654      -0.59897955       1.16381360
H        2.81432629       0.30048707      -0.12295239
H        2.32804407      -1.38442196      -0.38788410
H        0.76210608       0.22401022      -1.50252306
H       -0.55297108      -1.72331556      -0.91842897
H       -0.34255342      -1.42527053       0.80246963
H       -2.49724121      -0.38525292       0.56293466
H       -2.17802916       0.07572469      -1.10323218
H       -1.74710983       2.17544997       0.45575356
H       -0.25698076       1.41772969       1.31070797
16
Frame=7 idx=000217 GeodesicLength=0.2612623946367333 rxn_smarts="[C:1]([C@@:2]1([H:10])[C:3]([H:11])([H:12])[C:4]([H:13])([H:14])[C:5]([H:15])=[C:6]1[H:16])([H:7])([H:8])[H:9]>>[C:1]([C@@:2]1([H:10])[C:3]([H:11])([H:12])[C:4]([H:13])([H:14])[C:5]([H:15])([H:16])[C:6]1)([H:7])([H:8])[H:9]"
C        2.04206462      -0.44234062       0.08186865
C        0.68781354       0.03498189      -0.41573830
C       -0.48395807      -0.93706488      -0.16749451
C       -1.71881772      -0.03361894      -0.11385830
C       -1.12417839       1.29879873       0.30082144
C        0.24711690       1.39174337       0.06262083
H        2.01565163      -0.60526142       1.16249852
H        2.81390491       0.30117135      -0.11978781
H        2.32972662      -1.38323102      -0.39294026
H        0.76044791       0.22659230      -1.50065987
H       -0.55285563      -1.72311475      -0.92073291
H       -0.34330428      -1.42865499       0.80082331
H       -2.49758849      -0.38887202       0.56252317
H       -2.17770514       0.07481411      -1.10259182
H       -1.74997954       2.17677895       0.44246075
H       -0.24833887       1.43727793       1.32018713
16
Frame=8 idx=000217 GeodesicLength=0.2985453339974176 rxn_smarts="[C:1]([C@@:2]1([H:10])[C:3]([H:11])([H:12])[C:4]([H:13])([H:14])[C:5]([H:15])=[C:6]1[H:16])([H:7])([H:8])[H:9]>>[C:1]([C@@:2]1([H:10])[C:3]([H:11])([H:12])[C:4]([H:13])([H:14])[C:5]([H:15])([H:16])[C:6]1)([H:7])([H:8])[H:9]"
C        2.04260376      -0.44379702       0.08135192
C        0.68755500       0.03338237      -0.41400716
C       -0.48449233      -0.93844982      -0.16813741
C       -1.71913943      -0.03463690      -0.11292585
C       -1.12635491       1.29745181       0.30663267
C        0.24425913       1.38701377       0.06442588
H        2.01630551      -0.61154236       1.16119789
H        2.81344633       0.30182613      -0.11656669
H        2.33137930      -1.38202565      -0.39793617
H        0.75878041       0.22922467      -1.49874901
H       -0.55275044      -1.72289521      -0.92312848
H       -0.34408581      -1.43210800       0.79909991
H       -2.49795626      -0.39256267       0.56207037
H       -2.17738875       0.07394460      -1.10195131
H       -1.75275049       2.17774482       0.42932241
H       -0.23941101       1.45742947       1.32930103
16
Frame=9 idx=000217 GeodesicLength=0.33582887088297536 rxn_smarts="[C:1]([C@@:2]1([H:10])[C:3]([H:11])([H:12])[C:4]([H:13])([H:14])[C:5]([H:15])=[C:6]1[H:16])([H:7])([H:8])[H:9]>>[C:1]([C@@:2]1([H:10])[C:3]([H:11])([H:12])[C:4]([H:13])([H:14])[C:5]([H:15])([H:16])[C:6]1)([H:7])([H:8])[H:9]"
C        2.04310768      -0.44526268       0.08087542
C        0.68727177       0.03177019      -0.41226192
C       -0.48504833      -0.93987168      -0.16883468
C       -1.71948058      -0.03569048      -0.11199998
C       -1.12857175       1.29605248       0.31256466
C        0.24135555       1.38223256       0.06635793
H        2.01690646      -0.61782777       1.15992082
H        2.81295303       0.30245440      -0.11328471
H        2.33300294      -1.38081071      -0.40287444
H        0.75710649       0.23191246      -1.49679617
H       -0.55265480      -1.72266658      -0.92562418
H       -0.34490117      -1.43564085       0.79730143
H       -2.49834601      -0.39633028       0.56157781
H       -2.17708078       0.07310938      -1.10131801
H       -1.75542057       2.17835792       0.41637848
H       -0.23019990       1.47821166       1.33801755
16
Frame=10 idx=000217 GeodesicLength=0.3730191793474802 rxn_smarts="[C:1]([C@@:2]1([H:10])[C:3]([H:11])([H:12])[C:4]([H:13])([H:14])[C:5]([H:15])=[C:6]1[H:16])([H:7])([H:8])[H:9]>>[C:1]([C@@:2]1([H:10])[C:3]([H:11])([H:12])[C:4]([H:13])([H:14])[C:5]([H:15])([H:16])[C:6]1)([H:7])([H:8])[H:9]"
C        2.04357572      -0.44673572       0.08044405
C        0.68696384       0.03014387      -0.41049678
C       -0.48562589      -0.94132093      -0.16958644
C       -1.71984063      -0.03677703      -0.11108104
C       -1.13082647       1.29458297       0.31861167
C        0.23840708       1.37738716       0.06841632
H        2.01745382      -0.62411107       1.15866128
H        2.81242546       0.30304875      -0.10993578
H        2.33459694      -1.37957628      -0.40774296
H        0.75542624       0.23465217      -1.49478410
H       -0.55256851      -1.72240991      -0.92821391
H       -0.34574985      -1.43924119       0.79541682
H       -2.49875658      -0.40016612       0.56103595
H       -2.17678272       0.07231162      -1.10068055
H       -1.75799285       2.17861180       0.40367269
H       -0.22070559       1.49959991       1.34626276
16
Frame=11 idx=000217 GeodesicLength=0.4102361455193347 rxn_smarts="[C:1]([C@@:2]1([H:10])[C:3]([H:11])([H:12])[C:4]([H:13])([H:14])[C:5]([H:15])=[C:6]1[H:16])([H:7])([H:8])[H:9]>>[C:1]([C@@:2]1([H:10])[C:3]([H:11])([H:12])[C:4]([H:13])([H:14])[C:5]([H:15])([H:16])[C:6]1)([H:7])([H:8])[H:9]"
C        2.04400868      -0.44822452       0.08005806
C        0.68663183       0.02850264      -0.40871138
C       -0.48622444      -0.94280886      -0.17039758
C       -1.72022046      -0.03790299      -0.11016507
C       -1.13312264       1.29305488       0.32478088
C        0.23541265       1.37248269       0.07061517
H        2.01794301      -0.63042362       1.15742648
H        2.81186112       0.30361521      -0.10650179
H        2.33616794      -1.37832803      -0.41256444
H        0.75374272       0.23745400      -1.49271956
H       -0.55248968      -1.72213710      -0.93091525
H       -0.34663265      -1.44293226       0.79344592
H       -2.49918717      -0.40408617       0.56045687
H       -2.17649546       0.07154722      -1.10004517
H       -1.76047865       2.17850858       0.39119905
H       -0.21091681       1.52167832       1.35403783
16
Frame=12 idx=000217 GeodesicLength=0.44745301562116435 rxn_smarts="[C:1]([C@@:2]1([H:10])[C:3]([H:11])([H:12])[C:4]([H:13])([H:14])[C:5]([H:15])=[C:6]1[H:16])([H:7])([H:8])[H:9]>>[C:1]([C@@:2]1([H:10])[C:3]([H:11])([H:12])[C:4]([H:13])([H:14])[C:5]([H:15])([H:16])[C:6]1)([H:7])([H:8])[H:9]"
C        2.04440561      -0.44973213       0.07972166
C        0.68627566       0.02684534      -0.40689676
C       -0.48684429      -0.94433408      -0.17126786
C       -1.72061905      -0.03907061      -0.10924637
C       -1.13546016       1.29146051       0.33107633
C        0.23237449       1.36751163       0.07296477
H        2.01837136      -0.63678810       1.15621247
H        2.81125613       0.30415489      -0.10296374
H        2.33771769      -1.37705297      -0.41735465
H        0.75205738       0.24032277      -1.49058744
H       -0.55241740      -1.72183677      -0.93373242
H       -0.34755058      -1.44671932       0.79138073
H       -2.49963440      -0.40809271       0.55984345
H       -2.17622032       0.07081496      -1.09940103
H       -1.76287541       2.17804363       0.37896259
H       -0.20083672       1.54447297       1.36128826
16
Frame=13 idx=000217 GeodesicLength=0.4846450977693295 rxn_smarts="[C:1]([C@@:2]1([H:10])[C:3]([H:11])([H:12])[C:4]([H:13])([H:14])[C:5]([H:15])=[C:6]1[H:16])([H:7])([H:8])[H:9]>>[C:1]([C@@:2]1([H:10])[C:3]([H:11])([H:12])[C:4]([H:13])([H:14])[C:5]([H:15])([H:16])[C:6]1)([H:7])([H:8])[H:9]"
C        2.04476638      -0.45125747       0.07943867
C        0.68589581       0.02517134      -0.40505440
C       -0.48748551      -0.94589677      -0.17220140
C       -1.72103686      -0.04027966      -0.10833112
C       -1.13783590       1.28979298       0.33749644
C        0.22929257       1.36247351       0.07546537
H        2.01873863      -0.64318459       1.15502594
H        2.81061346       0.30466152      -0.09933039
H        2.33924421      -1.37576034      -0.42208991
H        0.75037137       0.24325706      -1.48838837
H       -0.55235050      -1.72150892      -0.93666843
H       -0.34850573      -1.45060158       0.78921711
H       -2.50010075      -0.41218674       0.55918571
H       -2.17595313       0.07012044      -1.09875519
H       -1.76519515       2.17722088       0.36702965
H       -0.19045890       1.56797835       1.36796031
16
Frame=14 idx=000217 GeodesicLength=0.5218355050841197 rxn_smarts="[C:1]([C@@:2]1([H:10])[C:3]([H:11])([H:12])[C:4]([H:13])([H:14])[C:5]([H:15])=[C:6]1[H:16])([H:7])([H:8])[H:9]>>[C:1]([C@@:2]1([H:10])[C:3]([H:11])([H:12])[C:4]([H:13])([H:14])[C:5]([H:15])([H:16])[C:6]1)([H:7])([H:8])[H:9]"
C        2.04509136      -0.45280634       0.07921216
C        0.68549315       0.02347967      -0.40317982
C       -0.48814692      -0.94749950      -0.17320288
C       -1.72147390      -0.04153450      -0.10741149
C       -1.14025292       1.28804976       0.34404752
C        0.22616745       1.35736374       0.07812979
H        2.01903917      -0.64964259       1.15386611
H        2.80993218       0.30513592      -0.09557431
H        2.34075438      -1.37444370      -0.42678692
H        0.74868741       0.24626555      -1.48611552
H       -0.55228872      -1.72114875      -0.93973558
H       -0.34949587      -1.45459224       0.78694517
H       -2.50058293      -0.41637645       0.55849285
H       -2.17570038       0.06946069      -1.09809785
H       -1.76743997       2.17604158       0.35540453
H       -0.17978347       1.59224716       1.37400625
16
Frame=15 idx=000217 GeodesicLength=0.5590255118090706 rxn_smarts="[C:1]([C@@:2]1([H:10])[C:3]([H:11])([H:12])[C:4]([H:13])([H:14])[C:5]([H:15])=[C:6]1[H:16])([H:7])([H:8])[H:9]>>[C:1]([C@@:2]1([H:10])[C:3]([H:11])([H:12])[C:4]([H:13])([H:14])[C:5]([H:15])([H:16])[C:6]1)([H:7])([H:8])[H:9]"
C        2.04537975      -0.45438192       0.07904666
C        0.68506784       0.02176947      -0.40126827
C       -0.48882873      -0.94914520      -0.17427522
C       -1.72193019      -0.04283904      -0.10648212
C       -1.14271017       1.28622358       0.35074276
C        0.22299888       1.35217962       0.08096799
H        2.01926768      -0.65617777       1.15273525
H        2.80921207       0.30557704      -0.09168001
H        2.34225321      -1.37309795      -0.43145296
H        0.74700670       0.24935363      -1.48376265
H       -0.55223150      -1.72075178      -0.94294449
H       -0.35052285      -1.45870331       0.78455741
H       -2.50108245      -0.42067191       0.55776517
H       -2.17546055       0.06883978      -1.09742371
H       -1.76961564       2.17450809       0.34410602
H       -0.16880405       1.61731765       1.37936819
16
Frame=16 idx=000217 GeodesicLength=0.5962157308669181 rxn_smarts="[C:1]([C@@:2]1([H:10])[C:3]([H:11])([H:12])[C:4]([H:13])([H:14])[C:5]([H:15])=[C:6]1[H:16])([H:7])([H:8])[H:9]>>[C:1]([C@@:2]1([H:10])[C:3]([H:11])([H:12])[C:4]([H:13])([H:14])[C:5]([H:15])([H:16])[C:6]1)([H:7])([H:8])[H:9]"
C        2.04563084      -0.45598941       0.07894703
C        0.68461972       0.02003975      -0.39931227
C       -0.48953034      -0.95083209      -0.17542213
C       -1.72240521      -0.04419598      -0.10553412
C       -1.14520755       1.28430506       0.35759146
C        0.21978695       1.34691151       0.08399332
H        2.01941961      -0.66281825       1.15162936
H        2.80845035       0.30598229      -0.08761709
H        2.34374556      -1.37171087      -0.43610169
H        0.74532958       0.25252928      -1.48131510
H       -0.55217877      -1.72030347      -0.94630523
H       -0.35158446      -1.46294415       0.78203933
H       -2.50159428      -0.42507917       0.55700937
H       -2.17523765       0.06825907      -1.09671900
H       -1.77172705       2.17261409       0.33314092
H       -0.15751731       1.64323233       1.38397582
