19
Frame=0 idx=009422 GeodesicLength=0.0 rxn_smarts="[C:1]([C:2]([O:3][C@@:4]1([H:13])[C:5]([H:14])([H:15])[C@:6]1([C:7]([H:17])([H:18])[H:19])[H:16])([H:11])[H:12])([H:8])([H:9])[H:10]>>[C:1]([C:2]([O:3][C@@:4]([C:5]([H:14])([H:15])[H:16])([C:6][C:7]([H:17])([H:18])[H:19])[H:13])([H:11])[H:12])([H:8])([H:9])[H:10]"
C        2.65164613       0.75344642       0.21748074
C        1.58507670      -0.18219821      -0.30021440
O        0.51502518      -0.18862003       0.62297157
C       -0.52909134      -1.03859101       0.23391976
C       -1.74607526      -0.87348794       1.10848152
C       -1.58139123      -0.57752181      -0.70907519
C       -1.57683811       0.91507891      -0.95082052
H        2.99956566       0.42864438       1.19896056
H        2.25766885       1.76654187       0.31033096
H        3.50439116       0.77452059      -0.46301690
H        1.98142500      -1.20091440      -0.41437329
H        1.23063353       0.14175667      -1.28781492
H       -0.17363987      -2.06241110       0.10511031
H       -1.68634958      -0.01420869       1.76723710
H       -2.15047913      -1.78346453       1.53878149
H       -2.58307134      -0.72539196       0.24686569
H       -1.05589931       1.03638698      -1.90592536
H       -2.58547999       1.29781896      -1.10808829
H       -1.05711702       1.53261490      -0.21081076
19
Frame=1 idx=009422 GeodesicLength=0.05284658781137727 rxn_smarts="[C:1]([C:2]([O:3][C@@:4]1([H:13])[C:5]([H:14])([H:15])[C@:6]1([C:7]([H:17])([H:18])[H:19])[H:16])([H:11])[H:12])([H:8])([H:9])[H:10]>>[C:1]([C:2]([O:3][C@@:4]([C:5]([H:14])([H:15])[H:16])([C:6][C:7]([H:17])([H:18])[H:19])[H:13])([H:11])[H:12])([H:8])([H:9])[H:10]"
C        2.65290451       0.75159040       0.21977606
C        1.58430054      -0.18105518      -0.29919419
O        0.51482694      -0.18824245       0.62458657
C       -0.53089060      -1.03546070       0.23400795
C       -1.74652697      -0.87524573       1.11130789
C       -1.58444456      -0.56870594      -0.70405470
C       -1.57612503       0.92007585      -0.95529467
H        3.00110981       0.42388525       1.20017995
H        2.26069934       1.76512165       0.31534401
H        3.50505228       0.77279917      -0.46148266
H        1.97925633      -1.20001812      -0.41625002
H        1.22991582       0.14592121      -1.28586763
H       -0.17831791      -2.05910990       0.09576233
H       -1.69565341      -0.01050384       1.76390168
H       -2.12649594      -1.78691012       1.55966461
H       -2.59844962      -0.75298139       0.24198579
H       -1.05792884       1.03358890      -1.91320086
H       -2.58337006       1.30727843      -1.11079268
H       -1.04986264       1.53797252      -0.22037942
19
Frame=2 idx=009422 GeodesicLength=0.10568526583532628 rxn_smarts="[C:1]([C:2]([O:3][C@@:4]1([H:13])[C:5]([H:14])([H:15])[C@:6]1([C:7]([H:17])([H:18])[H:19])[H:16])([H:11])[H:12])([H:8])([H:9])[H:10]>>[C:1]([C:2]([O:3][C@@:4]([C:5]([H:14])([H:15])[H:16])([C:6][C:7]([H:17])([H:18])[H:19])[H:13])([H:11])[H:12])([H:8])([H:9])[H:10]"
C        2.65408144       0.74972976       0.22203614
C        1.58344459      -0.17994084      -0.29814231
O        0.51457522      -0.18788554       0.62626380
C       -0.53277984      -1.03226666       0.23410761
C       -1.74706463      -0.87709250       1.11420101
C       -1.58773809      -0.55962613      -0.69875174
C       -1.57529384       0.92524160      -0.95971708
H        3.00259227       0.41916576       1.20136212
H        2.26364024       1.76368619       0.32029021
H        3.50561750       0.77105916      -0.46000071
H        1.97701199      -1.19914472      -0.41805205
H        1.22913148       0.14998998      -1.28390519
H       -0.18318836      -2.05566739       0.08630252
H       -1.70523239      -0.00698700       1.76056104
H       -2.10229278      -1.78959161       1.58054951
H       -2.61310362      -0.78181317       0.23670928
H       -1.05999515       1.03066513      -1.92045701
H       -2.58106217       1.31708811      -1.11335243
H       -1.04234388       1.54338987      -0.23000472
19
Frame=3 idx=009422 GeodesicLength=0.15851560953990032 rxn_smarts="[C:1]([C:2]([O:3][C@@:4]1([H:13])[C:5]([H:14])([H:15])[C@:6]1([C:7]([H:17])([H:18])[H:19])[H:16])([H:11])[H:12])([H:8])([H:9])[H:10]>>[C:1]([C:2]([O:3][C@@:4]([C:5]([H:14])([H:15])[H:16])([C:6][C:7]([H:17])([H:18])[H:19])[H:13])([H:11])[H:12])([H:8])([H:9])[H:10]"
C        2.65517233       0.74786519       0.22425461
C        1.58250187      -0.17885587      -0.29705867
O        0.51426478      -0.18754420       0.62800520
C       -0.53476692      -1.02900093       0.23422457
C       -1.74768951      -0.87903588       1.11717631
C       -1.59129122      -0.55027036      -0.69313931
C       -1.57434208       0.93057730      -0.96408455
H        3.00400968       0.41449104       1.20250216
H        2.26648874       1.76223758       0.32515843
H        3.50608128       0.76929629      -0.45857867
H        1.97468379      -1.19829642      -0.41977400
H        1.22827358       0.15395561      -1.28193030
H       -0.18826071      -2.05207107       0.07673129
H       -1.71507934      -0.00368439       1.75724861
H       -2.07789795      -1.79151310       1.60140493
H       -2.62695381      -0.81188034       0.23101963
H       -1.06208892       1.02759803      -1.92767982
H       -2.57853904       1.32726536      -1.11579832
H       -1.03456656       1.54886615      -0.23968206
19
Frame=4 idx=009422 GeodesicLength=0.21133761977977192 rxn_smarts="[C:1]([C:2]([O:3][C@@:4]1([H:13])[C:5]([H:14])([H:15])[C@:6]1([C:7]([H:17])([H:18])[H:19])[H:16])([H:11])[H:12])([H:8])([H:9])[H:10]>>[C:1]([C:2]([O:3][C@@:4]([C:5]([H:14])([H:15])[H:16])([C:6][C:7]([H:17])([H:18])[H:19])[H:13])([H:11])[H:12])([H:8])([H:9])[H:10]"
C        2.65617278       0.74599728       0.22642527
C        1.58146521      -0.17780055      -0.29594320
O        0.51389038      -0.18721296       0.62981292
C       -0.53685971      -1.02565537       0.23436535
C       -1.74840253      -0.88108375       1.12024979
C       -1.59512323      -0.54062700      -0.68718914
C       -1.57326820       0.93608211      -0.96839428
H        3.00535909       0.40986548       1.20359507
H        2.26924245       1.76077796       0.32993838
H        3.50643802       0.76750635      -0.45722429
H        1.97226314      -1.19747514      -0.42141105
H        1.22733483       0.15781160      -1.27994558
H       -0.19354410      -2.04830780       0.06704919
H       -1.72518455      -0.00062328       1.75400115
H       -2.05334221      -1.79268325       1.62219772
H       -2.63991799      -0.84316410       0.22489905
H       -1.06420195       1.02436726      -1.93485513
H       -2.57578375       1.33782551      -1.11816356
H       -1.02653768       1.55439965      -0.24940768
19
Frame=5 idx=009422 GeodesicLength=0.26415192488781375 rxn_smarts="[C:1]([C:2]([O:3][C@@:4]1([H:13])[C:5]([H:14])([H:15])[C@:6]1([C:7]([H:17])([H:18])[H:19])[H:16])([H:11])[H:12])([H:8])([H:9])[H:10]>>[C:1]([C:2]([O:3][C@@:4]([C:5]([H:14])([H:15])[H:16])([C:6][C:7]([H:17])([H:18])[H:19])[H:13])([H:11])[H:12])([H:8])([H:9])[H:10]"
C        2.65707908       0.74412622       0.22854270
C        1.58032748      -0.17677443      -0.29479590
O        0.51344690      -0.18688554       0.63168909
C       -0.53906600      -1.02222146       0.23453701
C       -1.74920389      -0.88324413       1.12343809
C       -1.59925352      -0.53068515      -0.68087188
C       -1.57207235       0.94175273      -0.97264435
H        3.00663837       0.40529161       1.20463622
H        2.27190030       1.75930922       0.33462193
H        3.50668264       0.76568503      -0.45594475
H        1.96974091      -1.19668223      -0.42295945
H        1.22630767       0.16155328      -1.27795335
H       -0.19904708      -2.04436356       0.05725673
H       -1.73553543       0.00216841       1.75085869
H       -2.02865716      -1.79311604       1.64289332
H       -2.65191268      -0.87563166       0.21832887
H       -1.06632856       1.02094905      -1.94196934
H       -2.57278078       1.34878098      -1.12048393
H       -1.01826589       1.55998768      -0.25917970
19
Frame=6 idx=009422 GeodesicLength=0.3169729452789996 rxn_smarts="[C:1]([C:2]([O:3][C@@:4]1([H:13])[C:5]([H:14])([H:15])[C@:6]1([C:7]([H:17])([H:18])[H:19])[H:16])([H:11])[H:12])([H:8])([H:9])[H:10]>>[C:1]([C:2]([O:3][C@@:4]([C:5]([H:14])([H:15])[H:16])([C:6][C:7]([H:17])([H:18])[H:19])[H:13])([H:11])[H:12])([H:8])([H:9])[H:10]"
C        2.65790209       0.74225497       0.23060179
C        1.57908957      -0.17577631      -0.29361614
O        0.51293205      -0.18655520       0.63363601
C       -0.54139629      -1.01869461       0.23474893
C       -1.75010132      -0.88553020       1.12676053
C       -1.60371053      -0.52043693      -0.67415614
C       -1.57076493       0.94758763      -0.97683671
H        3.00786027       0.40077219       1.20562248
H        2.27447576       1.75784099       0.33919897
H        3.50682927       0.76382980      -0.45474582
H        1.96711687      -1.19592305      -0.42441352
H        1.22519069       0.16517998      -1.27595576
H       -0.20477862      -2.04023203       0.04735840
H       -1.74612540       0.00466094       1.74786475
H       -2.00388336      -1.79284262       1.66345725
H       -2.66286733      -0.90923749       0.21129186
H       -1.06847318       1.01732083      -1.94901305
H       -2.56952959       1.36014739      -1.12280065
H       -1.00976602       1.56563373      -0.26900320
19
Frame=7 idx=009422 GeodesicLength=0.3697659656355648 rxn_smarts="[C:1]([C:2]([O:3][C@@:4]1([H:13])[C:5]([H:14])([H:15])[C@:6]1([C:7]([H:17])([H:18])[H:19])[H:16])([H:11])[H:12])([H:8])([H:9])[H:10]>>[C:1]([C:2]([O:3][C@@:4]([C:5]([H:14])([H:15])[H:16])([C:6][C:7]([H:17])([H:18])[H:19])[H:13])([H:11])[H:12])([H:8])([H:9])[H:10]"
C        2.65858721       0.74038683       0.23258970
C        1.57772302      -0.17481515      -0.29240273
O        0.51233613      -0.18623151       0.63565999
C       -0.54385060      -1.01506327       0.23500471
C       -1.75106996      -0.88794299       1.13022777
C       -1.60847919      -0.50986405      -0.66701207
C       -1.56930752       0.95356809      -0.98095411
H        3.00897622       0.39633382       1.20654136
H        2.27690437       1.75635964       0.34365121
H        3.50680713       0.76194871      -0.45364666
H        1.96436647      -1.19519232      -0.42576114
H        1.22395979       0.16865587      -1.27395706
H       -0.21074968      -2.03588132       0.03733886
H       -1.75690105       0.00681653       1.74507212
H       -1.97906152      -1.79186570       1.68383035
H       -2.67267162      -0.94388281       0.20375963
H       -1.07059769       1.01344235      -1.95595471
H       -2.56595790       1.37192200      -1.12513151
H       -1.00101361       1.57130529      -0.27885570
19
Frame=8 idx=009422 GeodesicLength=0.4225787462178276 rxn_smarts="[C:1]([C:2]([O:3][C@@:4]1([H:13])[C:5]([H:14])([H:15])[C@:6]1([C:7]([H:17])([H:18])[H:19])[H:16])([H:11])[H:12])([H:8])([H:9])[H:10]>>[C:1]([C:2]([O:3][C@@:4]([C:5]([H:14])([H:15])[H:16])([C:6][C:7]([H:17])([H:18])[H:19])[H:13])([H:11])[H:12])([H:8])([H:9])[H:10]"
C        2.65919398       0.73850503       0.23452794
C        1.57624057      -0.17386199      -0.29116219
O        0.51165693      -0.18587779       0.63775409
C       -0.54644011      -1.01131414       0.23531447
C       -1.75212789      -0.89048934       1.13386234
C       -1.61360951      -0.49897448      -0.65941041
C       -1.56775931       0.95968164      -0.98502517
H        3.01004143       0.39190109       1.20739990
H        2.27927639       1.75487044       0.34804088
H        3.50668746       0.76001753      -0.45262544
H        1.96148411      -1.19447984      -0.42704117
H        1.22262328       0.17205625      -1.27195051
H       -0.21695498      -2.03130328       0.02721149
H       -1.76789170       0.00863828       1.74250157
H       -1.95418322      -1.79021484       1.70403165
H       -2.68127350      -0.97954759       0.19571598
H       -1.07278198       1.00927082      -1.96282585
H       -2.56213024       1.38410353      -1.12751956
H       -0.99205171       1.57701868      -0.28880001
19
Frame=9 idx=009422 GeodesicLength=0.4753746968770317 rxn_smarts="[C:1]([C:2]([O:3][C@@:4]1([H:13])[C:5]([H:14])([H:15])[C@:6]1([C:7]([H:17])([H:18])[H:19])[H:16])([H:11])[H:12])([H:8])([H:9])[H:10]>>[C:1]([C:2]([O:3][C@@:4]([C:5]([H:14])([H:15])[H:16])([C:6][C:7]([H:17])([H:18])[H:19])[H:13])([H:11])[H:12])([H:8])([H:9])[H:10]"
C        2.65968872       0.73661935       0.23639613
C        1.57462721      -0.17293153      -0.28988885
O        0.51089089      -0.18550192       0.63992626
C       -0.54916803      -1.00744211       0.23568818
C       -1.75326057      -0.89318439       1.13767816
C       -1.61909562      -0.48775095      -0.65132045
C       -1.56609871       0.96591617      -0.98903337
H        3.01102287       0.38752584       1.20819261
H        2.28154851       1.75337508       0.35230899
H        3.50642973       0.75803717      -0.45170215
H        1.95845962      -1.19379305      -0.42822123
H        1.22116543       0.17533320      -1.26994282
H       -0.22340439      -2.02647765       0.01697678
H       -1.77903956       0.01006709       1.74022636
H       -1.92930990      -1.78794015       1.72397936
H       -2.68858673      -1.01607628       0.18713134
H       -1.07498111       1.00478658      -1.96958175
H       -2.55799920       1.39668350      -1.13001443
H       -0.98288917       1.58275405      -0.29879911
19
Frame=10 idx=009422 GeodesicLength=0.5281787715080177 rxn_smarts="[C:1]([C:2]([O:3][C@@:4]1([H:13])[C:5]([H:14])([H:15])[C@:6]1([C:7]([H:17])([H:18])[H:19])[H:16])([H:11])[H:12])([H:8])([H:9])[H:10]>>[C:1]([C:2]([O:3][C@@:4]([C:5]([H:14])([H:15])[H:16])([C:6][C:7]([H:17])([H:18])[H:19])[H:13])([H:11])[H:12])([H:8])([H:9])[H:10]"
C        2.66007673       0.73474293       0.23818424
C        1.57288990      -0.17203073      -0.28857997
O        0.51004080      -0.18511017       0.64218180
C       -0.55204105      -1.00345312       0.23613608
C       -1.75447312      -0.89604517       1.14168919
C       -1.62494812      -0.47619026      -0.64271270
C       -1.56433066       0.97226002      -0.99297398
H        3.01193189       0.38323340       1.20891261
H        2.28371471       1.75189079       0.35643433
H        3.50604274       0.75602088      -0.45088894
H        1.95530825      -1.19314468      -0.42928565
H        1.21959087       0.17846694      -1.26793617
H       -0.23010433      -2.02140808       0.00663751
H       -1.79032073       0.01106980       1.73830015
H       -1.90450800      -1.78509989       1.74362703
H       -2.69457876      -1.05333235       0.17797790
H       -1.07719992       0.99996031      -1.97620478
H       -2.55355984       1.40966399      -1.13264366
H       -0.97353136       1.58850539      -0.30885501
19
Frame=11 idx=009422 GeodesicLength=0.5809847957252892 rxn_smarts="[C:1]([C:2]([O:3][C@@:4]1([H:13])[C:5]([H:14])([H:15])[C@:6]1([C:7]([H:17])([H:18])[H:19])[H:16])([H:11])[H:12])([H:8])([H:9])[H:10]>>[C:1]([C:2]([O:3][C@@:4]([C:5]([H:14])([H:15])[H:16])([C:6][C:7]([H:17])([H:18])[H:19])[H:13])([H:11])[H:12])([H:8])([H:9])[H:10]"
C        2.66034738       0.73288000       0.23988664
C        1.57102295      -0.17116138      -0.28723341
O        0.50910586      -0.18470318       0.64452553
C       -0.55506005      -0.99934314       0.23666798
C       -1.75575584      -0.89908102       1.14590770
C       -1.63116185      -0.46428638      -0.63355982
C       -1.56245374       0.97869020      -0.99684297
H        3.01276083       0.37903641       1.20955583
H        2.28576131       1.75041926       0.36040591
H        3.50551202       0.75397191      -0.45019378
H        1.95202562      -1.19253489      -0.43022618
H        1.21789293       0.18144633      -1.26593128
H       -0.23705584      -2.01607893      -0.00380485
H       -1.80169794       0.01161478       1.73677718
H       -1.87981974      -1.78174564       1.76292816
H       -2.69920239      -1.09115733       0.16822033
H       -1.07944664       0.99475341      -1.98267898
H       -2.54879446       1.42302651      -1.13543119
H       -0.96398041       1.59425308      -0.31897279
19
Frame=12 idx=009422 GeodesicLength=0.6338011152217679 rxn_smarts="[C:1]([C:2]([O:3][C@@:4]1([H:13])[C:5]([H:14])([H:15])[C@:6]1([C:7]([H:17])([H:18])[H:19])[H:16])([H:11])[H:12])([H:8])([H:9])[H:10]>>[C:1]([C:2]([O:3][C@@:4]([C:5]([H:14])([H:15])[H:16])([C:6][C:7]([H:17])([H:18])[H:19])[H:13])([H:11])[H:12])([H:8])([H:9])[H:10]"
C        2.66047969       0.73105755       0.24147728
C        1.56903371      -0.17035208      -0.28584161
O        0.50809474      -0.18431018       0.64696575
C       -0.55822811      -0.99512890       0.23729238
C       -1.75710228      -0.90231391       1.15033955
C       -1.63772450      -0.45203044      -0.62383847
C       -1.56045265       0.98519713      -1.00062054
H        3.01350038       0.37501309       1.21011235
H        2.28763328       1.74898090       0.36415574
H        3.50481740       0.75191990      -0.44964112
H        1.94864209      -1.19199127      -0.43098824
H        1.21607673       0.18419737      -1.26393846
H       -0.24427088      -2.01049892      -0.01435479
H       -1.81311188       0.01165329       1.73572087
H       -1.85532596      -1.77796107       1.78181781
H       -2.70246318      -1.12933391       0.15782284
H       -1.08168210       0.98915977      -1.98895593
H       -2.54367627       1.43676019      -1.13841065
H       -0.95424021       1.59998149      -0.32911477
19
Frame=13 idx=009422 GeodesicLength=0.6865817705356845 rxn_smarts="[C:1]([C:2]([O:3][C@@:4]1([H:13])[C:5]([H:14])([H:15])[C@:6]1([C:7]([H:17])([H:18])[H:19])[H:16])([H:11])[H:12])([H:8])([H:9])[H:10]>>[C:1]([C:2]([O:3][C@@:4]([C:5]([H:14])([H:15])[H:16])([C:6][C:7]([H:17])([H:18])[H:19])[H:13])([H:11])[H:12])([H:8])([H:9])[H:10]"
C        2.66048711       0.72923532       0.24298988
C        1.56690068      -0.16955928      -0.28441266
O        0.50699518      -0.18387619       0.64949457
C       -0.56153472      -0.99077108       0.23801754
C       -1.75848440      -0.90572810       1.15499676
C       -1.64462362      -0.43942958      -0.61352786
C       -1.55836704       0.99172532      -1.00432945
H        3.01414263       0.37106393       1.21059784
H        2.28939974       1.74754142       0.36776643
H        3.50396531       0.74980680      -0.44919707
H        1.94509694      -1.19146798      -0.43164021
H        1.21412103       0.18681836      -1.26194179
H       -0.25172190      -2.00460901      -0.02499794
H       -1.82454583       0.01119196       1.73515968
H       -1.83097117      -1.77375412       1.80029422
H       -2.70428253      -1.16773906       0.14673900
H       -1.08399778       0.98309987      -1.99506326
H       -2.53823429       1.45078849      -1.14159686
H       -0.94434535       1.60566293      -0.33934881
19
Frame=14 idx=009422 GeodesicLength=0.7393917324546062 rxn_smarts="[C:1]([C:2]([O:3][C@@:4]1([H:13])[C:5]([H:14])([H:15])[C@:6]1([C:7]([H:17])([H:18])[H:19])[H:16])([H:11])[H:12])([H:8])([H:9])[H:10]>>[C:1]([C:2]([O:3][C@@:4]([C:5]([H:14])([H:15])[H:16])([C:6][C:7]([H:17])([H:18])[H:19])[H:13])([H:11])[H:12])([H:8])([H:9])[H:10]"
C        2.66039288       0.72744038       0.24441083
C        1.56465051      -0.16879813      -0.28293872
O        0.50582356      -0.18342563       0.65212361
C       -0.56498413      -0.98629586       0.23885961
C       -1.75991731      -0.90934952       1.15988558
C       -1.65185467      -0.42648665      -0.60260915
C       -1.55620975       0.99826486      -1.00796620
H        3.01472811       0.36723220       1.21100499
H        2.29105661       1.74613404       0.37120614
H        3.50298509       0.74767190      -0.44888100
H        1.94143570      -1.19099047      -0.43215059
H        1.21204530       0.18927762      -1.25994395
H       -0.25941521      -1.99843847      -0.03572189
H       -1.83597815       0.01020248       1.73513755
H       -1.80683849      -1.76921430       1.81833323
H       -2.70472552      -1.20618392       0.13492203
H       -1.08641560       0.97656097      -2.00098542
H       -2.53248553       1.46510623      -1.14500069
H       -0.93429341       1.61129227      -0.34968597
19
Frame=15 idx=009422 GeodesicLength=0.7922144097408118 rxn_smarts="[C:1]([C:2]([O:3][C@@:4]1([H:13])[C:5]([H:14])([H:15])[C@:6]1([C:7]([H:17])([H:18])[H:19])[H:16])([H:11])[H:12])([H:8])([H:9])[H:10]>>[C:1]([C:2]([O:3][C@@:4]([C:5]([H:14])([H:15])[H:16])([C:6][C:7]([H:17])([H:18])[H:19])[H:13])([H:11])[H:12])([H:8])([H:9])[H:10]"
C        2.66018967       0.72566998       0.24574372
C        1.56227950      -0.16806489      -0.28141836
O        0.50458289      -0.18295405       0.65485509
C       -0.56856772      -0.98169811       0.23982698
C       -1.76137882      -0.91317885       1.16500929
C       -1.65938785      -0.41320207      -0.59106604
C       -1.55398948       1.00477859      -1.01152974
H        3.01524787       0.36351550       1.21133633
H        2.29260049       1.74475226       0.37448148
H        3.50186431       0.74551074      -0.44868964
H        1.93765063      -1.19055105      -0.43252214
H        1.20984434       0.19157960      -1.25794120
H       -0.26734086      -1.99196694      -0.04652246
H       -1.84736509       0.00867061       1.73569275
H       -1.78293877      -1.76438855       1.83590839
H       -2.70379856      -1.24447276       0.12231942
H       -1.08896817       0.96950152      -2.00671036
H       -2.52643061       1.47965849      -1.14862885
H       -0.92409376       1.61683997      -0.36014465
19
Frame=16 idx=009422 GeodesicLength=0.8450520208797613 rxn_smarts="[C:1]([C:2]([O:3][C@@:4]1([H:13])[C:5]([H:14])([H:15])[C@:6]1([C:7]([H:17])([H:18])[H:19])[H:16])([H:11])[H:12])([H:8])([H:9])[H:10]>>[C:1]([C:2]([O:3][C@@:4]([C:5]([H:14])([H:15])[H:16])([C:6][C:7]([H:17])([H:18])[H:19])[H:13])([H:11])[H:12])([H:8])([H:9])[H:10]"
C        2.65988311       0.72392677       0.24698989
C        1.55979409      -0.16735878      -0.27984876
O        0.50328073      -0.18246156       0.65769269
C       -0.57227810      -0.97698055       0.24093017
C       -1.76285645      -0.91722083       1.17036923
C       -1.66719443      -0.39957806      -0.57888510
C       -1.55172133       1.01123511      -1.01501921
H        3.01570866       0.35991782       1.21159376
H        2.29403599       1.74339896       0.37759247
H        3.50060767       0.74332593      -0.44862238
H        1.93374797      -1.19014946      -0.43275180
H        1.20752132       0.19372549      -1.25593018
H       -0.27548986      -1.98518694      -0.05739017
H       -1.85867303       0.00658482       1.73685757
H       -1.75929195      -1.75933030       1.85300345
H       -2.70153953      -1.28241662       0.10887363
H       -1.09169222       0.96189108      -2.01222525
H       -2.52008411       1.49439401      -1.15248554
H       -0.91375853       1.62228313      -0.37074449
