12
Frame=0 idx=003848 GeodesicLength=0.0 rxn_smarts="[N:1]#[C:2][C:3]([C@@:4]1([H:9])[C:5]([H:10])([H:11])[N:6]1[H:12])([H:7])[H:8]>>[N:1]#[C:2][C:3]([C:4]([N:6]([C:5][H:10])[H:12])([H:9])[H:11])([H:7])[H:8]"
N       -2.94648291      -0.52907040      -0.98896331
C       -2.01252074       0.01354790      -0.60445610
C       -0.81203565       0.67726410      -0.10120473
C        0.20745988      -0.30127116       0.44805353
C        1.80383210      -0.58804508      -0.41875767
N        1.51973571       0.29888928       0.66179787
H       -0.36087336       1.26217202      -0.90398927
H       -1.09813679       1.37608355       0.68739864
H       -0.12647711      -0.87695848       1.30850994
H        1.48580480      -0.04140997      -1.32635987
H        0.42134143      -1.21407330      -0.27658650
H        1.91835264      -0.07712841       1.51455748
12
Frame=1 idx=003848 GeodesicLength=0.0520243694149864 rxn_smarts="[N:1]#[C:2][C:3]([C@@:4]1([H:9])[C:5]([H:10])([H:11])[N:6]1[H:12])([H:7])[H:8]>>[N:1]#[C:2][C:3]([C:4]([N:6]([C:5][H:10])[H:12])([H:9])[H:11])([H:7])[H:8]"
N       -2.95538989      -0.52040773      -0.98223941
C       -2.01625513       0.01579388      -0.60133781
C       -0.81351712       0.67724186      -0.10069897
C        0.20580714      -0.30480003       0.44377589
C        1.80867391      -0.58245671      -0.41631617
N        1.51585003       0.29848140       0.66155999
H       -0.36495064       1.26353666      -0.90397680
H       -1.09700621       1.37588697       0.68911285
H       -0.13144430      -0.87838729       1.30450183
H        1.49924476      -0.04619241      -1.33191874
H        0.43608110      -1.23128046      -0.28159796
H        1.91290634      -0.06741616       1.51913532
12
Frame=2 idx=003848 GeodesicLength=0.10404042960326149 rxn_smarts="[N:1]#[C:2][C:3]([C@@:4]1([H:9])[C:5]([H:10])([H:11])[N:6]1[H:12])([H:7])[H:8]>>[N:1]#[C:2][C:3]([C:4]([N:6]([C:5][H:10])[H:12])([H:9])[H:11])([H:7])[H:8]"
N       -2.96419658      -0.51169228      -0.97560698
C       -2.02000790       0.01809965      -0.59823539
C       -0.81507008       0.67729840      -0.10013447
C        0.20409705      -0.30827191       0.43945336
C        1.81332064      -0.57691425      -0.41396857
N        1.51194293       0.29803086       0.66120516
H       -0.36910289       1.26505652      -0.90384076
H       -1.09597038       1.37567038       0.69095186
H       -0.13643252      -0.87979921       1.30042245
H        1.51280424      -0.05112167      -1.33746772
H        0.45124868      -1.24871800      -0.28630488
H        1.90736681      -0.05763848       1.52352594
12
Frame=3 idx=003848 GeodesicLength=0.15604308043843312 rxn_smarts="[N:1]#[C:2][C:3]([C@@:4]1([H:9])[C:5]([H:10])([H:11])[N:6]1[H:12])([H:7])[H:8]>>[N:1]#[C:2][C:3]([C:4]([N:6]([C:5][H:10])[H:12])([H:9])[H:11])([H:7])[H:8]"
N       -2.97283866      -0.50296944      -0.96914691
C       -2.02378427       0.02048496      -0.59513700
C       -0.81669960       0.67744911      -0.09949138
C        0.20232327      -0.31167414       0.43509972
C        1.81774532      -0.57143308      -0.41173826
N        1.50802323       0.29753127       0.66071787
H       -0.37333375       1.26675604      -0.90355374
H       -1.09503744       1.37544082       0.69294145
H       -0.14143901      -0.88117373       1.29629512
H        1.52644592      -0.05621515      -1.34301817
H        0.46683444      -1.26638904      -0.29066914
H        1.90176056      -0.04780762       1.52770045
12
Frame=4 idx=003848 GeodesicLength=0.20803090751483477 rxn_smarts="[N:1]#[C:2][C:3]([C@@:4]1([H:9])[C:5]([H:10])([H:11])[N:6]1[H:12])([H:7])[H:8]>>[N:1]#[C:2][C:3]([C:4]([N:6]([C:5][H:10])[H:12])([H:9])[H:11])([H:7])[H:8]"
N       -2.98126157      -0.49428199      -0.96293056
C       -2.02758807       0.02296746      -0.59203274
C       -0.81841009       0.67770838      -0.09875242
C        0.20047914      -0.31499417       0.43072852
C        1.82192347      -0.56602692      -0.40964742
N        1.50409924       0.29697647       0.66008572
H       -0.37764602       1.26865724      -0.90309180
H       -1.09421487       1.37520579       0.69510353
H       -0.14646194      -0.88249381       1.29214053
H        1.54013658      -0.06148639      -1.34857929
H        0.48283078      -1.28429519      -0.29465728
H        1.89611332      -0.03793686       1.53163321
12
Frame=5 idx=003848 GeodesicLength=0.25999104621366026 rxn_smarts="[N:1]#[C:2][C:3]([C@@:4]1([H:9])[C:5]([H:10])([H:11])[N:6]1[H:12])([H:7])[H:8]>>[N:1]#[C:2][C:3]([C:4]([N:6]([C:5][H:10])[H:12])([H:9])[H:11])([H:7])[H:8]"
N       -2.98942181      -0.48567118      -0.95702361
C       -2.03142359       0.02556172      -0.58891612
C       -0.82020709       0.67809068      -0.09790323
C        0.19855778      -0.31822003       0.42635393
C        1.82583292      -0.56071276      -0.40771709
N        1.50018113       0.29635939       0.65929949
H       -0.38204486       1.27078209      -0.90243638
H       -1.09351063       1.37497577       0.69745751
H       -0.15149785      -0.88374743       1.28797990
H        1.55384654      -0.06694521      -1.35415799
H        0.49923443      -1.30243043      -0.29823783
H        1.89045303      -0.02804261       1.53530143
12
Frame=6 idx=003848 GeodesicLength=0.31192861617544 rxn_smarts="[N:1]#[C:2][C:3]([C@@:4]1([H:9])[C:5]([H:10])([H:11])[N:6]1[H:12])([H:7])[H:8]>>[N:1]#[C:2][C:3]([C:4]([N:6]([C:5][H:10])[H:12])([H:9])[H:11])([H:7])[H:8]"
N       -2.99726556      -0.47716647      -0.95149872
C       -2.03529781       0.02830248      -0.58576998
C       -0.82208997       0.67860708      -0.09691963
C        0.19655574      -0.32135150       0.42196896
C        1.82946360      -0.55547816      -0.40596664
N        1.49626126       0.29568396       0.65833950
H       -0.38652443       1.27314976      -0.90154703
H       -1.09292282       1.37474004       0.70003657
H       -0.15655156      -0.88491669       1.28380877
H        1.56753348      -0.07262688      -1.35977983
H        0.51605323      -1.32082927      -0.30135573
H        1.88478484      -0.01811437       1.53868376
12
Frame=7 idx=003848 GeodesicLength=0.3638269478450404 rxn_smarts="[N:1]#[C:2][C:3]([C@@:4]1([H:9])[C:5]([H:10])([H:11])[N:6]1[H:12])([H:7])[H:8]>>[N:1]#[C:2][C:3]([C:4]([N:6]([C:5][H:10])[H:12])([H:9])[H:11])([H:7])[H:8]"
N       -3.00482295      -0.46876953      -0.94634310
C       -2.03921657       0.03118420      -0.58260131
C       -0.82406420       0.67926033      -0.09580936
C        0.19446691      -0.32438577       0.41757733
C        1.83281325      -0.55033928      -0.40440077
N        1.49234619       0.29494403       0.65721470
H       -0.39109341       1.27576370      -0.90043814
H       -1.09245379       1.37451107       0.70283377
H       -0.16162189      -0.88601658       1.27963033
H        1.58121362      -0.07851786      -1.36543460
H        0.53331316      -1.33946638      -0.30401038
H        1.87911968      -0.00816793       1.54178153
12
Frame=8 idx=003848 GeodesicLength=0.41556737627196255 rxn_smarts="[N:1]#[C:2][C:3]([C@@:4]1([H:9])[C:5]([H:10])([H:11])[N:6]1[H:12])([H:7])[H:8]>>[N:1]#[C:2][C:3]([C:4]([N:6]([C:5][H:10])[H:12])([H:9])[H:11])([H:7])[H:8]"
N       -3.01211812      -0.46046574      -0.94154548
C       -2.04318612       0.03421781      -0.57941172
C       -0.82612986       0.68004616      -0.09457666
C        0.19228946      -0.32733805       0.41315264
C        1.83589703      -0.54528718      -0.40302896
N        1.48842809       0.29414094       0.65592215
H       -0.39575474       1.27862571      -0.89910856
H       -1.09209583       1.37427524       0.70585192
H       -0.16670967      -0.88706454       1.27541628
H        1.59489418      -0.08462119      -1.37111745
H        0.55103654      -1.35833053      -0.30614714
H        1.87344903       0.00180139       1.54459299
12
Frame=9 idx=003848 GeodesicLength=0.4673759646108703 rxn_smarts="[N:1]#[C:2][C:3]([C@@:4]1([H:9])[C:5]([H:10])([H:11])[N:6]1[H:12])([H:7])[H:8]>>[N:1]#[C:2][C:3]([C:4]([N:6]([C:5][H:10])[H:12])([H:9])[H:11])([H:7])[H:8]"
N       -3.01922848      -0.45222720      -0.93697533
C       -2.04719674       0.03738106      -0.57622838
C       -0.82828592       0.68096346      -0.09324906
C        0.19001480      -0.33019039       0.40870736
C        1.83871354      -0.54031186      -0.40183192
N        1.48449875       0.29326724       0.65449078
H       -0.40049853       1.28171455      -0.89759993
H       -1.09185223       1.37405630       0.70904474
H       -0.17183869      -0.88808749       1.27114743
H        1.60862817      -0.09089861      -1.37680392
H        0.56929728      -1.37743287      -0.30783926
H        1.86774805       0.01176581       1.54713748
12
Frame=10 idx=003848 GeodesicLength=0.5190798833430467 rxn_smarts="[N:1]#[C:2][C:3]([C@@:4]1([H:9])[C:5]([H:10])([H:11])[N:6]1[H:12])([H:7])[H:8]>>[N:1]#[C:2][C:3]([C:4]([N:6]([C:5][H:10])[H:12])([H:9])[H:11])([H:7])[H:8]"
N       -3.02609330      -0.44405643      -0.93280094
C       -2.05127917       0.04070892      -0.57299209
C       -0.83053811       0.68200977      -0.09178505
C        0.18764487      -0.33296465       0.40421677
C        1.84126204      -0.53542908      -0.40083635
N        1.48055698       0.29233697       0.65287907
H       -0.40533917       1.28504494      -0.89584950
H       -1.09171279       1.37381812       0.71247594
H       -0.17698813      -0.88907058       1.26682555
H        1.62237636      -0.09740721      -1.38252815
H        0.58807305      -1.39677666      -0.30899293
H        1.86203736       0.02178589       1.54938769
12
Frame=11 idx=003848 GeodesicLength=0.5707579826167224 rxn_smarts="[N:1]#[C:2][C:3]([C@@:4]1([H:9])[C:5]([H:10])([H:11])[N:6]1[H:12])([H:7])[H:8]>>[N:1]#[C:2][C:3]([C:4]([N:6]([C:5][H:10])[H:12])([H:9])[H:11])([H:7])[H:8]"
N       -3.03274898      -0.43593607      -0.92898959
C       -2.05542938       0.04418464      -0.56971769
C       -0.83289173       0.68318839      -0.09019527
C        0.18517266      -0.33565159       0.39969371
C        1.84353255      -0.53064234      -0.40004969
N        1.47660508       0.29134152       0.65109605
H       -0.41028263       1.28862042      -0.89387857
H       -1.09168794       1.37357406       0.71613359
H       -0.18216343      -0.89002975       1.26245470
H        1.63615642      -0.10413374      -1.38827109
H        0.60741421      -1.41635467      -0.30961577
H        1.85632316       0.03183913       1.55133962
12
Frame=12 idx=003848 GeodesicLength=0.6224447382075198 rxn_smarts="[N:1]#[C:2][C:3]([C@@:4]1([H:9])[C:5]([H:10])([H:11])[N:6]1[H:12])([H:7])[H:8]>>[N:1]#[C:2][C:3]([C:4]([N:6]([C:5][H:10])[H:12])([H:9])[H:11])([H:7])[H:8]"
N       -3.03927956      -0.42779958      -0.92544890
C       -2.05965051       0.04780220      -0.56642416
C       -0.83534631       0.68448550      -0.08849917
C        0.18259522      -0.33826367       0.39511009
C        1.84554974      -0.52593408      -0.39945918
N        1.47262600       0.29028609       0.64915060
H       -0.41532825       1.29242478      -0.89170092
H       -1.09177130       1.37330697       0.71999774
H       -0.18737468      -0.89099846       1.25798660
H        1.65001328      -0.11107339      -1.39402758
H        0.62739754      -1.43617794      -0.30969720
H        1.85056883       0.04194158       1.55301206
12
Frame=13 idx=003848 GeodesicLength=0.6741301937514789 rxn_smarts="[N:1]#[C:2][C:3]([C@@:4]1([H:9])[C:5]([H:10])([H:11])[N:6]1[H:12])([H:7])[H:8]>>[N:1]#[C:2][C:3]([C:4]([N:6]([C:5][H:10])[H:12])([H:9])[H:11])([H:7])[H:8]"
N       -3.04578406      -0.41957670      -0.92205835
C       -2.06394564       0.05155295      -0.56313795
C       -0.83790182       0.68588614      -0.08672457
C        0.17991280      -0.34081836       0.39042798
C        1.84734182      -0.52128828      -0.39905222
N        1.46860233       0.28917169       0.64705444
H       -0.42047696       1.29644463      -0.88934569
H       -1.09195643       1.37300291       0.72404182
H       -0.19263204      -0.89201984       1.25336631
H        1.66400236      -0.11821599      -1.39977463
H        0.64810530      -1.45624036      -0.30922265
H        1.84473233       0.05210122       1.55442549
12
Frame=14 idx=003848 GeodesicLength=0.7258222732804129 rxn_smarts="[N:1]#[C:2][C:3]([C@@:4]1([H:9])[C:5]([H:10])([H:11])[N:6]1[H:12])([H:7])[H:8]>>[N:1]#[C:2][C:3]([C:4]([N:6]([C:5][H:10])[H:12])([H:9])[H:11])([H:7])[H:8]"
N       -3.05232736      -0.41121081      -0.91875796
C       -2.06832603       0.05543282      -0.55986523
C       -0.84056201       0.68738032      -0.08488492
C        0.17712158      -0.34332897       0.38562155
C        1.84892422      -0.51670106      -0.39882437
N        1.46452161       0.28800026       0.64480866
H       -0.42573685       1.30067227      -0.88682498
H       -1.09223665       1.37265141       0.72825537
H       -0.19794279      -0.89312671       1.24855530
H        1.67816595      -0.12556202      -1.40550344
H        0.66961118      -1.47653843      -0.30816776
H        1.83878715       0.06233090       1.55558778
12
Frame=15 idx=003848 GeodesicLength=0.7775184765395876 rxn_smarts="[N:1]#[C:2][C:3]([C@@:4]1([H:9])[C:5]([H:10])([H:11])[N:6]1[H:12])([H:7])[H:8]>>[N:1]#[C:2][C:3]([C:4]([N:6]([C:5][H:10])[H:12])([H:9])[H:11])([H:7])[H:8]"
N       -3.05897893      -0.40264633      -0.91545957
C       -2.07280254       0.05944445      -0.55661173
C       -0.84332836       0.68895631      -0.08299761
C        0.17421715      -0.34580869       0.38065611
C        1.85031473      -0.51216254      -0.39876600
N        1.46036589       0.28677026       0.64241481
H       -0.43111017       1.30509120      -0.88415629
H       -1.09260046       1.37223725       0.73262262
H       -0.20332027      -0.89435272       1.24349981
H        1.69255708      -0.13311412      -1.41119371
H        0.69199398      -1.49705556      -0.30651293
H        1.83269190       0.07264050       1.55650448
12
Frame=16 idx=003848 GeodesicLength=0.8292305509057243 rxn_smarts="[N:1]#[C:2][C:3]([C@@:4]1([H:9])[C:5]([H:10])([H:11])[N:6]1[H:12])([H:7])[H:8]>>[N:1]#[C:2][C:3]([C:4]([N:6]([C:5][H:10])[H:12])([H:9])[H:11])([H:7])[H:8]"
N       -3.06575163      -0.39387125      -0.91216242
C       -2.07738708       0.06359746      -0.55337611
C       -0.84620690       0.69061724      -0.08106216
C        0.17119353      -0.34825981       0.37551987
C        1.85150696      -0.50768204      -0.39888774
N        1.45613159       0.28547736       0.63986671
H       -0.43660535       1.30970999      -0.88133709
H       -1.09304708       1.37175969       0.73715078
H       -0.20876630      -0.89571337       1.23818561
H        1.70718465      -0.14088001      -1.41684405
H        0.71530394      -1.51778395      -0.30422255
H        1.82644366       0.08302868       1.55716915
