15
Frame=0 idx=010959 GeodesicLength=0.0 rxn_smarts="[C:1]([C:2]1=[C:3]([H:11])[C:4]([H:12])([H:13])[C@@:5]2([H:14])[O:6][C@@:7]12[H:15])([H:8])([H:9])[H:10]>>[C:1]([C:2]1=[C:3]([H:11])[C:4]([H:12])([H:13])[C@:5]1([O+:6]=[C-:7][H:15])[H:14])([H:8])([H:9])[H:10]"
C        1.77587516      -0.01957068      -0.63882506
C        0.44641048      -0.20314825       0.01490970
C       -0.09298680      -1.28803476       0.57843101
C       -1.51307702      -0.81388859       0.61392086
C       -1.05074641       0.45253124      -0.11879871
O       -1.24588877       1.63930407       0.62102553
C        0.13240688       1.74590922       0.58153554
H        1.65470627       0.25554231      -1.68914364
H        2.32484620      -0.96144257      -0.60113901
H        2.36509154       0.75496216      -0.14859141
H        0.34452303      -2.25206307       0.80788628
H       -2.20247958      -1.39735975      -0.00219691
H       -1.96416453      -0.62957600       1.58877978
H       -1.34714040       0.58416696      -1.16077666
H        0.37262400       2.13266772      -0.44701734
15
Frame=1 idx=010959 GeodesicLength=0.05955381491444198 rxn_smarts="[C:1]([C:2]1=[C:3]([H:11])[C:4]([H:12])([H:13])[C@@:5]2([H:14])[O:6][C@@:7]12[H:15])([H:8])([H:9])[H:10]>>[C:1]([C:2]1=[C:3]([H:11])[C:4]([H:12])([H:13])[C@:5]1([O+:6]=[C-:7][H:15])[H:14])([H:8])([H:9])[H:10]"
C        1.78297739      -0.03067528      -0.64010940
C        0.45365100      -0.19879265       0.01833931
C       -0.08852230      -1.27949252       0.58707152
C       -1.51327740      -0.81675048       0.60421584
C       -1.05608551       0.45986061      -0.11218769
O       -1.24159504       1.63169296       0.65543488
C        0.12918968       1.75746577       0.56480371
H        1.66422359       0.24061383      -1.69171824
H        2.32730319      -0.97519593      -0.60057030
H        2.38124766       0.73985068      -0.15414255
H        0.34737145      -2.24209101       0.82557970
H       -2.19121701      -1.40291230      -0.02192391
H       -1.97602828      -0.64693180       1.57633430
H       -1.36517849       0.60847160      -1.14799655
H        0.34594008       2.15488655      -0.46313060
15
Frame=2 idx=010959 GeodesicLength=0.11907813083298317 rxn_smarts="[C:1]([C:2]1=[C:3]([H:11])[C:4]([H:12])([H:13])[C@@:5]2([H:14])[O:6][C@@:7]12[H:15])([H:8])([H:9])[H:10]>>[C:1]([C:2]1=[C:3]([H:11])[C:4]([H:12])([H:13])[C@:5]1([O+:6]=[C-:7][H:15])[H:14])([H:8])([H:9])[H:10]"
C        1.79033068      -0.04188222      -0.64100870
C        0.46097829      -0.19440308       0.02151387
C       -0.08415632      -1.27102188       0.59508619
C       -1.51319281      -0.81940175       0.59465262
C       -1.06166184       0.46709425      -0.10582867
O       -1.23590471       1.62363496       0.68920301
C        0.12520756       1.76900390       0.54737134
H        1.67439664       0.22623896      -1.69377535
H        2.32968347      -0.98922505      -0.60001329
H        2.39764900       0.72403133      -0.15856624
H        0.34996124      -2.23220566       0.84252802
H       -2.17999203      -1.40800253      -0.04103748
H       -1.98688504      -0.66376188       1.56398439
H       -1.38419736       0.63241072      -1.13481629
H        0.31778324       2.17748993      -0.47929341
15
Frame=3 idx=010959 GeodesicLength=0.17841677555470772 rxn_smarts="[C:1]([C:2]1=[C:3]([H:11])[C:4]([H:12])([H:13])[C@@:5]2([H:14])[O:6][C@@:7]12[H:15])([H:8])([H:9])[H:10]>>[C:1]([C:2]1=[C:3]([H:11])[C:4]([H:12])([H:13])[C@:5]1([O+:6]=[C-:7][H:15])[H:14])([H:8])([H:9])[H:10]"
C        1.79789269      -0.05317636      -0.64150133
C        0.46837005      -0.18999507       0.02439203
C       -0.07989316      -1.26265211       0.60239279
C       -1.51279263      -0.82182978       0.58524567
C       -1.06744478       0.47420772      -0.09976244
O       -1.22878186       1.61517844       0.72212940
C        0.12045666       1.78046347       0.52925054
H        1.68522815       0.21247727      -1.69525481
H        2.33191092      -1.00351517      -0.59948463
H        2.41422282       0.70750015      -0.16179774
H        0.35227780      -2.22242035       0.85868087
H       -2.16882888      -1.41264001      -0.05944624
H       -1.99662648      -0.67997946       1.55176413
H       -1.40416425       0.65590861      -1.12122483
H        0.28817297       2.20047266      -0.49538342
15
Frame=4 idx=010959 GeodesicLength=0.2377356851338524 rxn_smarts="[C:1]([C:2]1=[C:3]([H:11])[C:4]([H:12])([H:13])[C@@:5]2([H:14])[O:6][C@@:7]12[H:15])([H:8])([H:9])[H:10]>>[C:1]([C:2]1=[C:3]([H:11])[C:4]([H:12])([H:13])[C@:5]1([O+:6]=[C-:7][H:15])[H:14])([H:8])([H:9])[H:10]"
C        1.80578240      -0.06453776      -0.64159337
C        0.47585410      -0.18558701       0.02695639
C       -0.07572728      -1.25442887       0.60895605
C       -1.51215396      -0.82400375       0.57609246
C       -1.07349024       0.48118316      -0.09404377
O       -1.22034289       1.60641183       0.75399942
C        0.11487904       1.79179235       0.51049537
H        1.69687719       0.19939394      -1.69621491
H        2.33413768      -1.01804092      -0.59900059
H        2.43108841       0.69026500      -0.16377274
H        0.35430310      -2.21286567       0.87381730
H       -2.15793785      -1.41680763      -0.07699361
H       -2.00525247      -0.69547376       1.53989468
H       -1.42512822       0.67887183      -1.10730595
H        0.25711099       2.22382728      -0.51128673
15
Frame=5 idx=010959 GeodesicLength=0.29690857102068685 rxn_smarts="[C:1]([C:2]1=[C:3]([H:11])[C:4]([H:12])([H:13])[C@@:5]2([H:14])[O:6][C@@:7]12[H:15])([H:8])([H:9])[H:10]>>[C:1]([C:2]1=[C:3]([H:11])[C:4]([H:12])([H:13])[C@:5]1([O+:6]=[C-:7][H:15])[H:14])([H:8])([H:9])[H:10]"
C        1.81393761      -0.07594789      -0.64123220
C        0.48344007      -0.18118654       0.02920207
C       -0.07163185      -1.24637592       0.61471860
C       -1.51124773      -0.82590202       0.56722349
C       -1.07973350       0.48800289      -0.08870942
O       -1.21051447       1.59739678       0.78462097
C        0.10846336       1.80296186       0.49107195
H        1.70930930       0.18699592      -1.69654132
H        2.33630047      -1.03276398      -0.59850284
H        2.44810568       0.67236179      -0.16446559
H        0.35600726      -2.20362610       0.88771973
H       -2.14736847      -1.42050846      -0.09358841
H       -2.01266485      -0.71016252       1.52845492
H       -1.44700089       0.70121752      -1.09305772
H        0.22459801       2.24753669      -0.52691423
15
Frame=6 idx=010959 GeodesicLength=0.35599542574849535 rxn_smarts="[C:1]([C:2]1=[C:3]([H:11])[C:4]([H:12])([H:13])[C@@:5]2([H:14])[O:6][C@@:7]12[H:15])([H:8])([H:9])[H:10]>>[C:1]([C:2]1=[C:3]([H:11])[C:4]([H:12])([H:13])[C@:5]1([O+:6]=[C-:7][H:15])[H:14])([H:8])([H:9])[H:10]"
C        1.82241729      -0.08740826      -0.64048081
C        0.49112485      -0.17681005       0.03108744
C       -0.06761149      -1.23850171       0.61968079
C       -1.51013123      -0.82752897       0.55864520
C       -1.08621594       0.49466433      -0.08378275
O       -1.19942162       1.58819713       0.81387976
C        0.10122434       1.81390740       0.47107790
H        1.72260183       0.17529700      -1.69633631
H        2.33845967      -1.04768487      -0.59807167
H        2.46536279       0.65377565      -0.16390182
H        0.35743644      -2.19466570       0.90052825
H       -2.13720046      -1.42377675      -0.10922696
H       -2.01893989      -0.72402244       1.51749426
H       -1.46979854       0.72294539      -1.07850138
H        0.19069196       2.27161186      -0.54209190
15
Frame=7 idx=010959 GeodesicLength=0.41499182960081255 rxn_smarts="[C:1]([C:2]1=[C:3]([H:11])[C:4]([H:12])([H:13])[C@@:5]2([H:14])[O:6][C@@:7]12[H:15])([H:8])([H:9])[H:10]>>[C:1]([C:2]1=[C:3]([H:11])[C:4]([H:12])([H:13])[C@:5]1([O+:6]=[C-:7][H:15])[H:14])([H:8])([H:9])[H:10]"
C        1.83121169      -0.09892524      -0.63936783
C        0.49891213      -0.17246709       0.03258016
C       -0.06364714      -1.23080235       0.62384067
C       -1.50882057      -0.82888831       0.55034423
C       -1.09292615       0.50117044      -0.07928233
O       -1.18708945       1.57887305       0.84167110
C        0.09317599       1.82458646       0.45055543
H        1.73676109       0.16427710      -1.69561635
H        2.34060077      -1.06280247      -0.59773769
H        2.48283204       0.63449751      -0.16212089
H        0.35863252      -2.18594566       0.91233368
H       -2.12745684      -1.42664718      -0.12393484
H       -2.02411679      -0.73704659       1.50702767
H       -1.49348795       0.74406084      -1.06362651
H        0.15541865       2.29605948      -0.55666650
15
Frame=8 idx=010959 GeodesicLength=0.47390157281566475 rxn_smarts="[C:1]([C:2]1=[C:3]([H:11])[C:4]([H:12])([H:13])[C@@:5]2([H:14])[O:6][C@@:7]12[H:15])([H:8])([H:9])[H:10]>>[C:1]([C:2]1=[C:3]([H:11])[C:4]([H:12])([H:13])[C@:5]1([O+:6]=[C-:7][H:15])[H:14])([H:8])([H:9])[H:10]"
C        1.84032631      -0.11050460      -0.63792133
C        0.50680614      -0.16816332       0.03365070
C       -0.05972199      -1.22326873       0.62720893
C       -1.50733648      -0.82998382       0.54231770
C       -1.09986411       0.50752345      -0.07522332
O       -1.17358286       1.56949029       0.86789781
C        0.08433886       1.83496519       0.42953069
H        1.75181355       0.15393151      -1.69440290
H        2.34272075      -1.07811909      -0.59754036
H        2.50051276       0.61450488      -0.15914702
H        0.35962812      -2.17744025       0.92319648
H       -2.11816300      -1.42915814      -0.13772302
H       -2.02824113      -0.74922620       1.49707969
H       -1.51804155       0.76456371      -1.04842357
H        0.11880462       2.32088513      -0.57050047
15
Frame=9 idx=010959 GeodesicLength=0.5327599958996859 rxn_smarts="[C:1]([C:2]1=[C:3]([H:11])[C:4]([H:12])([H:13])[C@@:5]2([H:14])[O:6][C@@:7]12[H:15])([H:8])([H:9])[H:10]>>[C:1]([C:2]1=[C:3]([H:11])[C:4]([H:12])([H:13])[C@:5]1([O+:6]=[C-:7][H:15])[H:14])([H:8])([H:9])[H:10]"
C        1.84977228      -0.12215667      -0.63617243
C        0.51481650      -0.16390330       0.03427097
C       -0.05581631      -1.21588806       0.62980221
C       -1.50570368      -0.83082101       0.53455736
C       -1.10703406       0.51372897      -0.07161912
O       -1.15896195       1.56010809       0.89248250
C        0.07472933       1.84501902       0.40802383
H        1.76779112       0.14424299      -1.69272093
H        2.34482547      -1.09364010      -0.59752062
H        2.51840713       0.59376990      -0.15501073
H        0.36046227      -2.16911291       0.93319693
H       -2.10934393      -1.43134436      -0.15061913
H       -2.03137075      -0.76056635       1.48766971
H       -1.54344175       0.78446613      -1.03288102
H        0.08086832       2.34609767      -0.58345955
15
Frame=10 idx=010959 GeodesicLength=0.5917407820311666 rxn_smarts="[C:1]([C:2]1=[C:3]([H:11])[C:4]([H:12])([H:13])[C@@:5]2([H:14])[O:6][C@@:7]12[H:15])([H:8])([H:9])[H:10]>>[C:1]([C:2]1=[C:3]([H:11])[C:4]([H:12])([H:13])[C@:5]1([O+:6]=[C-:7][H:15])[H:14])([H:8])([H:9])[H:10]"
C        1.85963713      -0.13388954      -0.63417815
C        0.52297769      -0.15968920       0.03440776
C       -0.05191142      -1.20864685       0.63166710
C       -1.50400886      -0.83141338       0.52706703
C       -1.11448656       0.51979945      -0.06848078
O       -1.14330819       1.55077306       0.91541116
C        0.06437322       1.85472341       0.38604952
H        1.78480566       0.13521549      -1.69065483
H        2.34700886      -1.10937076      -0.59774923
H        2.53662395       0.57224801      -0.14974651
H        0.36118734      -2.16092539       0.94247213
H       -2.10110053      -1.43323851      -0.16267711
H       -2.03365998      -0.77110340       1.47886049
H       -1.56975099       0.80380760      -1.01701080
H        0.04161266       2.37171003      -0.59543779
15
Frame=11 idx=010959 GeodesicLength=0.6501196238981175 rxn_smarts="[C:1]([C:2]1=[C:3]([H:11])[C:4]([H:12])([H:13])[C@@:5]2([H:14])[O:6][C@@:7]12[H:15])([H:8])([H:9])[H:10]>>[C:1]([C:2]1=[C:3]([H:11])[C:4]([H:12])([H:13])[C@:5]1([O+:6]=[C-:7][H:15])[H:14])([H:8])([H:9])[H:10]"
C        1.86962258      -0.14569323      -0.63194885
C        0.53118359      -0.15547309       0.03411022
C       -0.04802936      -1.20146533       0.63280800
C       -1.50206400      -0.83177387       0.51977994
C       -1.12209196       0.52569112      -0.06583157
O       -1.12690966       1.54158994       0.93638095
C        0.05331024       1.86405540       0.36376020
H        1.80250146       0.12678282      -1.68811084
H        2.34888538      -1.12528434      -0.59826563
H        2.55483787       0.54996922      -0.14347859
H        0.36178136      -2.15271901       0.95109043
H       -2.09310905      -1.43496485      -0.17384010
H       -2.03485713      -0.78081885       1.47043655
H       -1.59654055       0.82245385      -1.00079284
H        0.00147923       2.39765023      -0.60609787
15
Frame=12 idx=010959 GeodesicLength=0.7086620027028493 rxn_smarts="[C:1]([C:2]1=[C:3]([H:11])[C:4]([H:12])([H:13])[C@@:5]2([H:14])[O:6][C@@:7]12[H:15])([H:8])([H:9])[H:10]>>[C:1]([C:2]1=[C:3]([H:11])[C:4]([H:12])([H:13])[C@:5]1([O+:6]=[C-:7][H:15])[H:14])([H:8])([H:9])[H:10]"
C        1.87991291      -0.15764984      -0.62946281
C        0.53952198      -0.15132441       0.03320816
C       -0.04408377      -1.19436453       0.63318150
C       -1.49996060      -0.83189065       0.51265442
C       -1.12989878       0.53147859      -0.06362987
O       -1.10930118       1.53254521       0.95559746
C        0.04149288       1.87304702       0.34084335
H        1.82123747       0.11889985      -1.68504918
H        2.35065774      -1.14147251      -0.59904269
H        2.57315505       0.52676526      -0.13606750
H        0.36235836      -2.14447021       0.95916717
H       -2.08550002      -1.43644504      -0.18431755
H       -2.03520373      -0.78973079       1.46244589
H       -1.62418650       0.84060822      -0.98398958
H       -0.04020181       2.42400383      -0.61553876
15
Frame=13 idx=010959 GeodesicLength=0.7674395878815193 rxn_smarts="[C:1]([C:2]1=[C:3]([H:11])[C:4]([H:12])([H:13])[C@@:5]2([H:14])[O:6][C@@:7]12[H:15])([H:8])([H:9])[H:10]>>[C:1]([C:2]1=[C:3]([H:11])[C:4]([H:12])([H:13])[C@:5]1([O+:6]=[C-:7][H:15])[H:14])([H:8])([H:9])[H:10]"
C        1.89067597      -0.16972920      -0.62687376
C        0.54804025      -0.14720531       0.03176170
C       -0.04009576      -1.18733575       0.63293749
C       -1.49788246      -0.83180691       0.50574252
C       -1.13805796       0.53715707      -0.06191765
O       -1.09100386       1.52367804       0.97303647
C        0.02897129       1.88167465       0.31750516
H        1.84111304       0.11160711      -1.68175095
H        2.35253001      -1.15790309      -0.60025620
H        2.59186295       0.50263293      -0.12768326
H        0.36296992      -2.13614794       0.96697771
H       -2.07846980      -1.43775349      -0.19410808
H       -2.03495396      -0.79794396       1.45503047
H       -1.65269289       0.85828723      -0.96682504
H       -0.08300672       2.45078861      -0.62357658
15
Frame=14 idx=010959 GeodesicLength=0.8258876858731742 rxn_smarts="[C:1]([C:2]1=[C:3]([H:11])[C:4]([H:12])([H:13])[C@@:5]2([H:14])[O:6][C@@:7]12[H:15])([H:8])([H:9])[H:10]>>[C:1]([C:2]1=[C:3]([H:11])[C:4]([H:12])([H:13])[C@:5]1([O+:6]=[C-:7][H:15])[H:14])([H:8])([H:9])[H:10]"
C        1.90160976      -0.18192260      -0.62414162
C        0.55667046      -0.14305123       0.02983882
C       -0.03604239      -1.18027552       0.63207642
C       -1.49564018      -0.83151238       0.49899762
C       -1.14643927       0.54268468      -0.06071671
O       -1.07219436       1.51513119       0.98845166
C        0.01572121       1.88993274       0.29382571
H        1.86179334       0.10489476      -1.67801521
H        2.35411109      -1.17455594      -0.60197914
H        2.61058407       0.47754834      -0.11835326
H        0.36362071      -2.12761766       0.97443138
H       -2.07172369      -1.43898757      -0.20316679
H       -2.03384464      -0.80541617       1.44804357
H       -1.68164739       0.87531824      -0.94930483
H       -0.12657873       2.47782913      -0.62998761
15
Frame=15 idx=010959 GeodesicLength=0.8842076050933254 rxn_smarts="[C:1]([C:2]1=[C:3]([H:11])[C:4]([H:12])([H:13])[C@@:5]2([H:14])[O:6][C@@:7]12[H:15])([H:8])([H:9])[H:10]>>[C:1]([C:2]1=[C:3]([H:11])[C:4]([H:12])([H:13])[C@:5]1([O+:6]=[C-:7][H:15])[H:14])([H:8])([H:9])[H:10]"
C        1.91271858      -0.19426527      -0.62124289
C        0.56539557      -0.13890231       0.02725831
C       -0.03193385      -1.17316338       0.63052686
C       -1.49320757      -0.83104166       0.49230818
C       -1.15499230       0.54808545      -0.05997660
O       -1.05240802       1.50681473       1.00191518
C        0.00181590       1.89785282       0.26949629
H        1.88341997       0.09852810      -1.67379381
H        2.35539251      -1.19140304      -0.60399217
H        2.62925446       0.45152322      -0.10811231
H        0.36426764      -2.11873384       0.98169608
H       -2.06518920      -1.44015937      -0.21166335
H       -2.03195309      -0.81220435       1.44128678
H       -1.71125408       0.89183099      -0.93104466
H       -0.17132651       2.50523791      -0.63466188
15
Frame=16 idx=010959 GeodesicLength=0.9426649015206695 rxn_smarts="[C:1]([C:2]1=[C:3]([H:11])[C:4]([H:12])([H:13])[C@@:5]2([H:14])[O:6][C@@:7]12[H:15])([H:8])([H:9])[H:10]>>[C:1]([C:2]1=[C:3]([H:11])[C:4]([H:12])([H:13])[C@:5]1([O+:6]=[C-:7][H:15])[H:14])([H:8])([H:9])[H:10]"
C        1.92417281      -0.20676806      -0.61828853
C        0.57428890      -0.13472515       0.02408975
C       -0.02772665      -1.16599670       0.62841328
C       -1.49073643      -0.83038856       0.48574154
C       -1.16388914       0.55339089      -0.05972998
O       -1.03215069       1.49882719       1.01345778
C       -0.01283792       1.90543872       0.24467653
H        1.90612700       0.09258563      -1.66928024
H        2.35660728      -1.20848254      -0.60651025
H        2.64808724       0.42444750      -0.09702134
H        0.36505099      -2.10952382       0.98890669
H       -2.05902559      -1.44126764      -0.21960326
H       -2.02949472      -0.81835577       1.43495804
H       -1.74153559       0.90786928      -0.91227919
H       -0.21693749       2.53294903      -0.63753080
