11
Frame=0 idx=002347 GeodesicLength=0.0 rxn_smarts="[O:1]=[C:2]([C:3]([N:4]([C:5](=[O:6])[H:11])[H:10])([H:8])[H:9])[H:7]>>[O:1]([C@@:2]1([H:7])[C:3]([H:8])([H:9])[N:4]1[H:10])[C:5](=[O:6])[H:11]"
O        0.65395776       0.95834866      -1.07794420
C        1.03847011       0.11792016      -0.14280329
C        0.34189012       0.17526622       1.16692049
N       -0.24306517      -0.66731096       0.11369130
C       -1.00822195       0.23514703      -0.96854973
O       -1.90657507       0.92935426      -0.60406287
H        1.96980632      -0.44247429      -0.22647659
H        0.74299781      -0.39176758       1.99735012
H       -0.25342406       1.04831355       1.40746768
H       -0.40294381      -1.65571705       0.25082244
H       -0.93289203      -0.30708002      -1.91641538
11
Frame=1 idx=002347 GeodesicLength=0.08444930739615479 rxn_smarts="[O:1]=[C:2]([C:3]([N:4]([C:5](=[O:6])[H:11])[H:10])([H:8])[H:9])[H:7]>>[O:1]([C@@:2]1([H:7])[C:3]([H:8])([H:9])[N:4]1[H:10])[C:5](=[O:6])[H:11]"
O        0.67020355       0.93769094      -1.08863744
C        1.04763994       0.11408273      -0.13661279
C        0.33663683       0.17331775       1.16494258
N       -0.25217770      -0.67203666       0.11918533
C       -1.02169273       0.24057309      -0.97456099
O       -1.91064109       0.93999771      -0.59476123
H        1.98899840      -0.43185564      -0.20222932
H        0.73301888      -0.38823045       2.00162778
H       -0.24822080       1.05449313       1.40183142
H       -0.37275863      -1.66821908       0.23488545
H       -0.97100665      -0.29981352      -1.92567078
11
Frame=2 idx=002347 GeodesicLength=0.16857061087897862 rxn_smarts="[O:1]=[C:2]([C:3]([N:4]([C:5](=[O:6])[H:11])[H:10])([H:8])[H:9])[H:7]>>[O:1]([C@@:2]1([H:7])[C:3]([H:8])([H:9])[N:4]1[H:10])[C:5](=[O:6])[H:11]"
O        0.68649329       0.91561388      -1.09948157
C        1.05710527       0.11008310      -0.13029632
C        0.33140551       0.17111970       1.16271482
N       -0.26113931      -0.67732890       0.12462262
C       -1.03523577       0.24590264      -0.98062514
O       -1.91448781       0.95033119      -0.58535317
H        2.00855189      -0.42010673      -0.17735410
H        0.72297076      -0.38470771       2.00570008
H       -0.24301076       1.06018059       1.39596670
H       -0.34289045      -1.67922672       0.21889532
H       -1.00976262      -0.29186105      -1.93478925
11
Frame=3 idx=002347 GeodesicLength=0.2528097929221995 rxn_smarts="[O:1]=[C:2]([C:3]([N:4]([C:5](=[O:6])[H:11])[H:10])([H:8])[H:9])[H:7]>>[O:1]([C@@:2]1([H:7])[C:3]([H:8])([H:9])[N:4]1[H:10])[C:5](=[O:6])[H:11]"
O        0.70286731       0.89215559      -1.11048186
C        1.06693527       0.10597645      -0.12383153
C        0.32626391       0.16866337       1.16026866
N       -0.26994266      -0.68322505       0.13002300
C       -1.04889370       0.25114191      -0.98682064
O       -1.91818521       0.96035367      -0.57593992
H        2.02849852      -0.40712419      -0.15183968
H        0.71296206      -0.38123802       2.00963512
H       -0.23776390       1.06538559       1.38989243
H       -0.31354034      -1.68890821       0.20294536
H       -1.04920126      -0.28318111      -1.94385093
11
Frame=4 idx=002347 GeodesicLength=0.33705469356568263 rxn_smarts="[O:1]=[C:2]([C:3]([N:4]([C:5](=[O:6])[H:11])[H:10])([H:8])[H:9])[H:7]>>[O:1]([C@@:2]1([H:7])[C:3]([H:8])([H:9])[N:4]1[H:10])[C:5](=[O:6])[H:11]"
O        0.71933494       0.86726228      -1.12159462
C        1.07713169       0.10177645      -0.11723062
C        0.32121572       0.16594895       1.15758572
N       -0.27858169      -0.68971057       0.13538707
C       -1.06263039       0.25629181      -0.99315080
O       -1.92170600       0.97003668      -0.56650687
H        2.04876402      -0.39283835      -0.12577220
H        0.70300045      -0.37780496       2.01339070
H       -0.23250550       1.07009302       1.38361494
H       -0.28480266      -1.69732934       0.18710739
H       -1.08922059      -0.27372596      -1.95283070
11
Frame=5 idx=002347 GeodesicLength=0.4215227542011671 rxn_smarts="[O:1]=[C:2]([C:3]([N:4]([C:5](=[O:6])[H:11])[H:10])([H:8])[H:9])[H:7]>>[O:1]([C@@:2]1([H:7])[C:3]([H:8])([H:9])[N:4]1[H:10])[C:5](=[O:6])[H:11]"
O        0.73593350       0.84091765      -1.13278197
C        1.08773788       0.09749519      -0.11049154
C        0.31627956       0.16296880       1.15465117
N       -0.28707324      -0.69680120       0.14073647
C       -1.07646748       0.26137872      -0.99964194
O       -1.92511813       0.97940667      -0.55709797
H        2.06937196      -0.37718370      -0.09919538
H        0.69312792      -0.37443159       2.01694968
H       -0.22726674       1.07432133       1.37710842
H       -0.25674587      -1.70463748       0.17147425
H       -1.12977935      -0.26343439      -1.96171119
11
Frame=6 idx=002347 GeodesicLength=0.5056682217356104 rxn_smarts="[O:1]=[C:2]([C:3]([N:4]([C:5](=[O:6])[H:11])[H:10])([H:8])[H:9])[H:7]>>[O:1]([C@@:2]1([H:7])[C:3]([H:8])([H:9])[N:4]1[H:10])[C:5](=[O:6])[H:11]"
O        0.75263090       0.81306021      -1.14400756
C        1.09871440       0.09322042      -0.10363320
C        0.31149960       0.15973775       1.15145781
N       -0.29530628      -0.70442275       0.14601921
C       -1.09026608       0.26638871      -1.00633233
O       -1.92824350       0.98827563      -0.54766744
H        2.09000288      -0.36007630      -0.07218505
H        0.68339091      -0.37105247       2.02028065
H       -0.22204080       1.07794509       1.37043907
H       -0.22960224      -1.71083827       0.15615019
H       -1.17077980      -0.25223801      -1.97052135
11
Frame=7 idx=002347 GeodesicLength=0.5894179368216126 rxn_smarts="[O:1]=[C:2]([C:3]([N:4]([C:5](=[O:6])[H:11])[H:10])([H:8])[H:9])[H:7]>>[O:1]([C@@:2]1([H:7])[C:3]([H:8])([H:9])[N:4]1[H:10])[C:5](=[O:6])[H:11]"
O        0.76932425       0.78353721      -1.15513605
C        1.10991893       0.08880848      -0.09661230
C        0.30687903       0.15621586       1.14802400
N       -0.30346770      -0.71255660       0.15136026
C       -1.10409642       0.27128544      -1.01320696
O       -1.93103741       0.99673780      -0.53833496
H        2.11057715      -0.34140554      -0.04480888
H        0.67380357      -0.36766394       2.02340674
H       -0.21668796       1.08099597       1.36355932
H       -0.20308450      -1.71587427       0.14100882
H       -1.21212894      -0.24008041      -1.97925999
11
Frame=8 idx=002347 GeodesicLength=0.6734182004609717 rxn_smarts="[O:1]=[C:2]([C:3]([N:4]([C:5](=[O:6])[H:11])[H:10])([H:8])[H:9])[H:7]>>[O:1]([C@@:2]1([H:7])[C:3]([H:8])([H:9])[N:4]1[H:10])[C:5](=[O:6])[H:11]"
O        0.78619125       0.75246370      -1.16617037
C        1.12153474       0.08434358      -0.08947206
C        0.30242637       0.15243006       1.14432897
N       -0.31151559      -0.72127763       0.15676639
C       -1.11798054       0.27613403      -1.02029931
O       -1.93371423       1.00482964      -0.52908542
H        2.13123956      -0.32117138      -0.01717934
H        0.66440517      -0.36430663       2.02630715
H       -0.21138569       1.08355572       1.35646911
H       -0.17741283      -1.72010397       0.12626000
H       -1.25378820      -0.22689714      -1.98792510
11
Frame=9 idx=002347 GeodesicLength=0.7574321424535756 rxn_smarts="[O:1]=[C:2]([C:3]([N:4]([C:5](=[O:6])[H:11])[H:10])([H:8])[H:9])[H:7]>>[O:1]([C@@:2]1([H:7])[C:3]([H:8])([H:9])[N:4]1[H:10])[C:5](=[O:6])[H:11]"
O        0.80320648       0.71977125      -1.17703021
C        1.13349891       0.07981339      -0.08223171
C        0.29816034       0.14837402       1.14038121
N       -0.31947785      -0.73055967       0.16225930
C       -1.13186619       0.28092362      -1.02762831
O       -1.93618006       1.01249546      -0.51992083
H        2.15180893      -0.29926233       0.01058403
H        0.65521630      -0.36094942       2.02898082
H       -0.20609494       1.08558759       1.34920483
H       -0.15262638      -1.72355876       0.11193942
H       -1.29564556      -0.21263516      -1.99653855
11
Frame=10 idx=002347 GeodesicLength=0.8414366577815822 rxn_smarts="[O:1]=[C:2]([C:3]([N:4]([C:5](=[O:6])[H:11])[H:10])([H:8])[H:9])[H:7]>>[O:1]([C@@:2]1([H:7])[C:3]([H:8])([H:9])[N:4]1[H:10])[C:5](=[O:6])[H:11]"
O        0.82036693       0.68542970      -1.18761969
C        1.14579153       0.07520068      -0.07489279
C        0.29410563       0.14404027       1.13617834
N       -0.32738183      -0.74039540       0.16788026
C       -1.14574201       0.28565449      -1.03521289
O       -1.93843432       1.01970377      -0.51087293
H        2.17217922      -0.27560523       0.03837179
H        0.64628805      -0.35757947       2.03141799
H       -0.20081081       1.08707800       1.34176348
H       -0.12875869      -1.72631377       0.09810932
H       -1.33760371      -0.19721305      -2.00512290
11
Frame=11 idx=002347 GeodesicLength=0.9254407616866103 rxn_smarts="[O:1]=[C:2]([C:3]([N:4]([C:5](=[O:6])[H:11])[H:10])([H:8])[H:9])[H:7]>>[O:1]([C@@:2]1([H:7])[C:3]([H:8])([H:9])[N:4]1[H:10])[C:5](=[O:6])[H:11]"
O        0.83768261       0.64942957      -1.19784013
C        1.15839773       0.07048009      -0.06747019
C        0.29028121       0.13942027       1.13172040
N       -0.33526129      -0.75078768       0.17367382
C       -1.15959571       0.29032891      -1.04306934
O       -1.94048363       1.02643131      -0.50196412
H        2.19225343      -0.25011736       0.06604943
H        0.63766174      -0.35418826       2.03361300
H       -0.19553384       1.08802351       1.33414693
H       -0.10584999      -1.72846501       0.08484320
H       -1.37955227      -0.18055533      -2.01370300
11
Frame=12 idx=002347 GeodesicLength=1.009642535680411 rxn_smarts="[O:1]=[C:2]([C:3]([N:4]([C:5](=[O:6])[H:11])[H:10])([H:8])[H:9])[H:7]>>[O:1]([C@@:2]1([H:7])[C:3]([H:8])([H:9])[N:4]1[H:10])[C:5](=[O:6])[H:11]"
O        0.85517954       0.61179713      -1.20758102
C        1.17133558       0.06561678      -0.05996466
C        0.28671958       0.13449531       1.12700745
N       -0.34315931      -0.76176809       0.17969402
C       -1.17345569       0.29496612      -1.05123262
O       -1.94239653       1.03268698      -0.49325908
H        2.21199974      -0.22269968       0.09351028
H        0.62940612      -0.35079728       2.03557356
H       -0.19025831       1.08844180       1.32633020
H       -0.08394184      -1.73016443       0.07224138
H       -1.42142888      -0.16257464      -2.02231950
11
Frame=13 idx=002347 GeodesicLength=1.0934091059630935 rxn_smarts="[O:1]=[C:2]([C:3]([N:4]([C:5](=[O:6])[H:11])[H:10])([H:8])[H:9])[H:7]>>[O:1]([C@@:2]1([H:7])[C:3]([H:8])([H:9])[N:4]1[H:10])[C:5](=[O:6])[H:11]"
O        0.87277170       0.57245812      -1.21674893
C        1.18447196       0.06056254      -0.05242977
C        0.28341021       0.12926621       1.12204308
N       -0.35107227      -0.77325670       0.18598703
C       -1.18718720       0.29950074      -1.05965776
O       -1.94396945       1.03832758      -0.48466604
H        2.23106251      -0.19327042       0.12050547
H        0.62149803      -0.34731760       2.03727008
H       -0.18496262       1.08824316       1.31836713
H       -0.06307422      -1.73132438       0.06031266
H       -1.46294865      -0.14318926      -2.03098295
11
Frame=14 idx=002347 GeodesicLength=1.1775906248641248 rxn_smarts="[O:1]=[C:2]([C:3]([N:4]([C:5](=[O:6])[H:11])[H:10])([H:8])[H:9])[H:7]>>[O:1]([C@@:2]1([H:7])[C:3]([H:8])([H:9])[N:4]1[H:10])[C:5](=[O:6])[H:11]"
O        0.89060413       0.53164714      -1.22521122
C        1.19797409       0.05536561      -0.04481673
C        0.28042097       0.12373785       1.11684800
N       -0.35902480      -0.78537070       0.19263901
C       -1.20093187       0.30397009      -1.06843071
O       -1.94549143       1.04340351      -0.47634165
H        2.24953648      -0.16193492       0.14694009
H        0.61407775      -0.34379164       2.03877231
H       -0.17970289       1.08754328       1.31019049
H       -0.04326461      -1.73229745       0.04920955
H       -1.50419780      -0.12227276      -2.03979914
11
Frame=15 idx=002347 GeodesicLength=1.2609516024024559 rxn_smarts="[O:1]=[C:2]([C:3]([N:4]([C:5](=[O:6])[H:11])[H:10])([H:8])[H:9])[H:7]>>[O:1]([C@@:2]1([H:7])[C:3]([H:8])([H:9])[N:4]1[H:10])[C:5](=[O:6])[H:11]"
O        0.90851820       0.48907786      -1.23288491
C        1.21155215       0.04976318      -0.03725070
C        0.27768189       0.11782945       1.11138472
N       -0.36708246      -0.79795435       0.19965525
C       -1.21443179       0.30834443      -1.07743670
O       -1.94654403       1.04778374      -0.46808019
H        2.26697780      -0.12815971       0.17249813
H        0.60698032      -0.34018974       2.03996343
H       -0.17433756       1.08614403       1.30185843
H       -0.02462683      -1.73280150       0.03893279
H       -1.54468769      -0.09983741      -2.04864025
11
Frame=16 idx=002347 GeodesicLength=1.344703849229045 rxn_smarts="[O:1]=[C:2]([C:3]([N:4]([C:5](=[O:6])[H:11])[H:10])([H:8])[H:9])[H:7]>>[O:1]([C@@:2]1([H:7])[C:3]([H:8])([H:9])[N:4]1[H:10])[C:5](=[O:6])[H:11]"
O        0.92667890       0.44504950      -1.23961994
C        1.22547071       0.04383513      -0.02962278
C        0.27529212       0.11156459       1.10569691
N       -0.37526323      -0.81118195       0.20713447
C       -1.22794078       0.31264438      -1.08679295
O       -1.94755345       1.05156969      -0.46010547
H        2.28359541      -0.09214612       0.19714012
H        0.60041935      -0.33656369       2.04095420
H       -0.16893980       1.08423462       1.29329428
H       -0.00713647      -1.73330794       0.02963067
H       -1.58462276      -0.07569820      -2.05770952
