10
Frame=0 idx=010000 GeodesicLength=0.0 rxn_smarts="[C:1](#[C:2][c:3]1[c:4]([H:9])[n:5][n:6][n:7]1[H:10])[H:8]>>[C:1](#[C:2][C@@:3]1([H:10])[C:4]([H:9])=[N:5][N:6]=[N:7]1)[H:8]"
C        2.51287567      -0.26762733      -0.30876126
C        1.33147088      -0.19244999      -0.14072524
C       -0.07531367      -0.08607569       0.05551202
C       -0.94263786       1.00349499      -0.08346123
N       -2.18301129       0.55244788      -0.11569127
N       -2.16799800      -0.76528425       0.02267923
N       -0.95078059      -1.23950044       0.07864718
H        3.56394147      -0.34211846      -0.46419030
H       -0.70187053       2.05155997      -0.15947537
H       -0.38667608      -0.71444668       1.11546622
10
Frame=1 idx=010000 GeodesicLength=0.041284072650318415 rxn_smarts="[C:1](#[C:2][c:3]1[c:4]([H:9])[n:5][n:6][n:7]1[H:10])[H:8]>>[C:1](#[C:2][C@@:3]1([H:10])[C:4]([H:9])=[N:5][N:6]=[N:7]1)[H:8]"
C        2.50970699      -0.26820649      -0.31784452
C        1.32874839      -0.19564530      -0.14550401
C       -0.07534955      -0.08624622       0.06877500
C       -0.94145434       1.00521716      -0.07922894
N       -2.18157885       0.55662162      -0.12514804
N       -2.16846734      -0.76379283       0.01471560
N       -0.95282795      -1.23476229       0.08212074
H        3.56287634      -0.33332737      -0.46292898
H       -0.69754279       2.05175708      -0.16633946
H       -0.38411089      -0.73161537       1.13138260
10
Frame=2 idx=010000 GeodesicLength=0.08255569072919228 rxn_smarts="[C:1](#[C:2][c:3]1[c:4]([H:9])[n:5][n:6][n:7]1[H:10])[H:8]>>[C:1](#[C:2][C@@:3]1([H:10])[C:4]([H:9])=[N:5][N:6]=[N:7]1)[H:8]"
C        2.50656392      -0.26715539      -0.32634251
C        1.32599466      -0.19769156      -0.14998443
C       -0.07531319      -0.08589831       0.08217484
C       -0.94059617       1.00703504      -0.07539542
N       -2.18010576       0.56033617      -0.13529343
N       -2.16840472      -0.76270306       0.00658518
N       -0.95426446      -1.22985641       0.08586197
H        3.56121588      -0.32736236      -0.46235931
H       -0.69391016       2.05212025      -0.17244616
H       -0.38118001      -0.74882437       1.14719928
10
Frame=3 idx=010000 GeodesicLength=0.1238389875496807 rxn_smarts="[C:1](#[C:2][c:3]1[c:4]([H:9])[n:5][n:6][n:7]1[H:10])[H:8]>>[C:1](#[C:2][C@@:3]1([H:10])[C:4]([H:9])=[N:5][N:6]=[N:7]1)[H:8]"
C        2.50307385      -0.26728800      -0.33507585
C        1.32293101      -0.20050206      -0.15469657
C       -0.07533900      -0.08582908       0.09552661
C       -0.93940875       1.00877300      -0.07213618
N       -2.17828067       0.56433088      -0.14591868
N       -2.16847512      -0.76125092      -0.00117180
N       -0.95609715      -1.22491824       0.09018597
H        3.55935704      -0.31920674      -0.46150803
H       -0.68956823       2.05231498      -0.17816160
H       -0.37819299      -0.76642382       1.16295613
10
Frame=4 idx=010000 GeodesicLength=0.16511790153789146 rxn_smarts="[C:1](#[C:2][c:3]1[c:4]([H:9])[n:5][n:6][n:7]1[H:10])[H:8]>>[C:1](#[C:2][C@@:3]1([H:10])[C:4]([H:9])=[N:5][N:6]=[N:7]1)[H:8]"
C        2.49946649      -0.26690269      -0.34349687
C        1.31972978      -0.20288195      -0.15928547
C       -0.07535455      -0.08553041       0.10892194
C       -0.93830301       1.01054038      -0.06933814
N       -2.17629553       0.56813932      -0.15710724
N       -2.16827559      -0.75991851      -0.00889022
N       -0.95772183      -1.21985805       0.09488840
H        3.55709905      -0.31196800      -0.46099161
H       -0.68542010       2.05259594      -0.18329603
H       -0.37492471      -0.78421602       1.17859523
10
Frame=5 idx=010000 GeodesicLength=0.206397508401591 rxn_smarts="[C:1](#[C:2][c:3]1[c:4]([H:9])[n:5][n:6][n:7]1[H:10])[H:8]>>[C:1](#[C:2][C@@:3]1([H:10])[C:4]([H:9])=[N:5][N:6]=[N:7]1)[H:8]"
C        2.49564703      -0.26677414      -0.35179215
C        1.31633353      -0.20532652      -0.16377297
C       -0.07539131      -0.08520615       0.12235302
C       -0.93709325       1.01228872      -0.06704603
N       -2.17404048       0.57193732      -0.16890137
N       -2.16797023      -0.75851225      -0.01647271
N       -0.95940122      -1.21470603       0.10007828
H        3.55450177      -0.30430397      -0.46069404
H       -0.68109843       2.05288838      -0.18790948
H       -0.37148740      -0.80228536       1.19415746
10
Frame=6 idx=010000 GeodesicLength=0.2476759941425817 rxn_smarts="[C:1](#[C:2][c:3]1[c:4]([H:9])[n:5][n:6][n:7]1[H:10])[H:8]>>[C:1](#[C:2][C@@:3]1([H:10])[C:4]([H:9])=[N:5][N:6]=[N:7]1)[H:8]"
C        2.49167685      -0.26655944      -0.35974402
C        1.31277878      -0.20759385      -0.16806588
C       -0.07544403      -0.08474691       0.13582604
C       -0.93586776       1.01404573      -0.06519974
N       -2.17155881       0.57563767      -0.18124083
N       -2.16748465      -0.75712900      -0.02400159
N       -0.96102908      -1.20944030       0.10568539
H        3.55154711      -0.29684350      -0.46080269
H       -0.67679538       2.05325796      -0.19205445
H       -0.36782302      -0.82062837       1.20959778
10
Frame=7 idx=010000 GeodesicLength=0.2889560534119194 rxn_smarts="[C:1](#[C:2][c:3]1[c:4]([H:9])[n:5][n:6][n:7]1[H:10])[H:8]>>[C:1](#[C:2][C@@:3]1([H:10])[C:4]([H:9])=[N:5][N:6]=[N:7]1)[H:8]"
C        2.48757693      -0.26560175      -0.36751171
C        1.30912114      -0.20921611      -0.17205395
C       -0.07550162      -0.08395572       0.14939452
C       -0.93480092       1.01587263      -0.06364041
N       -2.16892261       0.57907089      -0.19414416
N       -2.16667640      -0.75594228      -0.03157285
N       -0.96239922      -1.20402083       0.11163403
H        3.54826509      -0.29078310      -0.46123260
H       -0.67286286       2.05379853      -0.19574658
H       -0.36379953      -0.83922226       1.22487370
10
Frame=8 idx=010000 GeodesicLength=0.3302451046750512 rxn_smarts="[C:1](#[C:2][c:3]1[c:4]([H:9])[n:5][n:6][n:7]1[H:10])[H:8]>>[C:1](#[C:2][C@@:3]1([H:10])[C:4]([H:9])=[N:5][N:6]=[N:7]1)[H:8]"
C        2.48326813      -0.26453376      -0.37519421
C        1.30530898      -0.21061132      -0.17574502
C       -0.07559039      -0.08299759       0.16306926
C       -0.93374032       1.01773745      -0.06233900
N       -2.16602548       0.58238678      -0.20764903
N       -2.16567543      -0.75478414      -0.03911943
N       -0.96373041      -1.19846668       0.11800822
H        3.54467131      -0.28499290      -0.46193757
H       -0.66897565       2.05443270      -0.19910228
H       -0.35951074      -0.85817055       1.24000906
10
Frame=9 idx=010000 GeodesicLength=0.37153541937368784 rxn_smarts="[C:1](#[C:2][c:3]1[c:4]([H:9])[n:5][n:6][n:7]1[H:10])[H:8]>>[C:1](#[C:2][C@@:3]1([H:10])[C:4]([H:9])=[N:5][N:6]=[N:7]1)[H:8]"
C        2.47880013      -0.26331246      -0.38252609
C        1.30137377      -0.21174372      -0.17899554
C       -0.07572289      -0.08185230       0.17686970
C       -0.93269338       1.01963801      -0.06133251
N       -2.16285628       0.58556149      -0.22176535
N       -2.16446643      -0.75367921      -0.04672435
N       -0.96502464      -1.19277118       0.12480980
H        3.54075841      -0.27956240      -0.46323553
H       -0.66517488       2.05517961      -0.20210414
H       -0.35499381      -0.87745783       1.25500400
10
Frame=10 idx=010000 GeodesicLength=0.4128397804769196 rxn_smarts="[C:1](#[C:2][c:3]1[c:4]([H:9])[n:5][n:6][n:7]1[H:10])[H:8]>>[C:1](#[C:2][C@@:3]1([H:10])[C:4]([H:9])=[N:5][N:6]=[N:7]1)[H:8]"
C        2.47410456      -0.26262948      -0.38950991
C        1.29728055      -0.21307134      -0.18167370
C       -0.07593074      -0.08070298       0.19087174
C       -0.93147894       1.02154089      -0.06056693
N       -2.15927856       0.58876469      -0.23655262
N       -2.16318409      -0.75244269      -0.05438577
N       -0.96652253      -1.18695408       0.13212014
H        3.53651206      -0.27320896      -0.46529363
H       -0.66106793       2.05592761      -0.20492829
H       -0.35043438      -0.89722365       1.26991897
10
Frame=11 idx=010000 GeodesicLength=0.45414707661225184 rxn_smarts="[C:1](#[C:2][c:3]1[c:4]([H:9])[n:5][n:6][n:7]1[H:10])[H:8]>>[C:1](#[C:2][C@@:3]1([H:10])[C:4]([H:9])=[N:5][N:6]=[N:7]1)[H:8]"
C        2.46922379      -0.26179521      -0.39630528
C        1.29305749      -0.21413019      -0.18397590
C       -0.07619747      -0.07934447       0.20496216
C       -0.93029775       1.02349449      -0.06003529
N       -2.15541508       0.59181536      -0.25187355
N       -2.16169237      -0.75126133      -0.06208414
N       -0.96801410      -1.18097037       0.13988081
H        3.53198796      -0.26724833      -0.46771983
H       -0.65708160       2.05680170      -0.20747039
H       -0.34557088      -0.91736165       1.28462140
10
Frame=12 idx=010000 GeodesicLength=0.49545166501851545 rxn_smarts="[C:1](#[C:2][c:3]1[c:4]([H:9])[n:5][n:6][n:7]1[H:10])[H:8]>>[C:1](#[C:2][C@@:3]1([H:10])[C:4]([H:9])=[N:5][N:6]=[N:7]1)[H:8]"
C        2.46418563      -0.26023477      -0.40307427
C        1.28873372      -0.21451635      -0.18602955
C       -0.07650937      -0.07760128       0.21906180
C       -0.92932431       1.02554398      -0.05971444
N       -2.15138182       0.59457035      -0.26758369
N       -2.15987271      -0.75029773      -0.06983200
N       -0.96932480      -1.17478187       0.14803659
H        3.52725583      -0.26279779      -0.47018007
H       -0.65358053       2.05790727      -0.20967883
H       -0.34018165      -0.93779181       1.29899444
10
Frame=13 idx=010000 GeodesicLength=0.5367616438144958 rxn_smarts="[C:1](#[C:2][c:3]1[c:4]([H:9])[n:5][n:6][n:7]1[H:10])[H:8]>>[C:1](#[C:2][C@@:3]1([H:10])[C:4]([H:9])=[N:5][N:6]=[N:7]1)[H:8]"
C        2.45891432      -0.25913631      -0.40960964
C        1.28425519      -0.21504003      -0.18760927
C       -0.07691047      -0.07579447       0.23329314
C       -0.92823043       1.02761663      -0.05959604
N       -2.14693606       0.59730765      -0.28382811
N       -2.15794500      -0.74924306      -0.07764948
N       -0.97085614      -1.16842608       0.15674695
H        3.52222185      -0.25763965      -0.47316361
H       -0.64988643       2.05905187      -0.21175720
H       -0.33462683      -0.95869655       1.31317326
10
Frame=14 idx=010000 GeodesicLength=0.5780684228709825 rxn_smarts="[C:1](#[C:2][c:3]1[c:4]([H:9])[n:5][n:6][n:7]1[H:10])[H:8]>>[C:1](#[C:2][C@@:3]1([H:10])[C:4]([H:9])=[N:5][N:6]=[N:7]1)[H:8]"
C        2.45347350      -0.25723040      -0.41617538
C        1.27969120      -0.21481513      -0.18889271
C       -0.07736730      -0.07354660       0.24755379
C       -0.92738898       1.02980707      -0.05962554
N       -2.14231168       0.59970780      -0.30043674
N       -2.15563693      -0.74845037      -0.08559929
N       -0.97220442      -1.16182974       0.16588933
H        3.51700375      -0.25420376      -0.47615107
H       -0.64676720       2.06045612      -0.21353426
H       -0.32849194      -0.97989498       1.32697187
10
Frame=15 idx=010000 GeodesicLength=0.6193871517033669 rxn_smarts="[C:1](#[C:2][c:3]1[c:4]([H:9])[n:5][n:6][n:7]1[H:10])[H:8]>>[C:1](#[C:2][C@@:3]1([H:10])[C:4]([H:9])=[N:5][N:6]=[N:7]1)[H:8]"
C        2.44778771      -0.25606539      -0.42243825
C        1.27496878      -0.21488739      -0.18964031
C       -0.07793080      -0.07127067       0.26197831
C       -0.92637399       1.03201711      -0.05983472
N       -2.13719499       0.60211978      -0.31761093
N       -2.15323154      -0.74752852      -0.09367675
N       -0.97388253      -1.15503955       0.17567707
H        3.51146304      -0.24962290      -0.47980224
H       -0.64335488       2.06187926      -0.21522257
H       -0.32225081      -1.00160172       1.34057041
10
Frame=16 idx=010000 GeodesicLength=0.6607071345891885 rxn_smarts="[C:1](#[C:2][c:3]1[c:4]([H:9])[n:5][n:6][n:7]1[H:10])[H:8]>>[C:1](#[C:2][C@@:3]1([H:10])[C:4]([H:9])=[N:5][N:6]=[N:7]1)[H:8]"
C        2.44189125      -0.25466588      -0.42863311
C        1.27013284      -0.21460670      -0.18999988
C       -0.07857685      -0.06868604       0.27648931
C       -0.92546418       1.03432191      -0.06015908
N       -2.13177161       0.60432104      -0.33513520
N       -2.15051413      -0.74674277      -0.10195016
N       -0.97560005      -1.14799417       0.18601426
H        3.50569048      -0.24571563      -0.48365856
H       -0.64020551       2.06347144      -0.21676762
H       -0.31558223      -1.02370320       1.35380004
