10
Frame=0 idx=001233 GeodesicLength=0.0 rxn_smarts="[N:1]([c:2]1[n:3][o:4][c:5]([H:9])[c:6]1[H:10])([H:7])[H:8]>>[N:1]([C:2]1=[N:3][O+:4]=[C-:5][C:6]1([H:9])[H:10])([H:7])[H:8]"
N       -1.69387839       0.04595633      -0.29128288
C       -0.37914867      -0.26409217      -0.05870215
N        0.09753113      -1.45822381      -0.15755162
O        1.47850864      -1.35123355       0.04662687
C        1.86425919      -0.10945184       0.38421567
C        0.69024634       0.66169689       0.26333152
H       -2.06731654       0.81682757       0.23400835
H       -2.31079321      -0.74812790      -0.34259998
H        1.71265870       0.69884025      -0.60003322
H        0.60793280       1.70780824       0.52198744
10
Frame=1 idx=001233 GeodesicLength=0.03581183688747247 rxn_smarts="[N:1]([c:2]1[n:3][o:4][c:5]([H:9])[c:6]1[H:10])([H:7])[H:8]>>[N:1]([C:2]1=[N:3][O+:4]=[C-:5][C:6]1([H:9])[H:10])([H:7])[H:8]"
N       -1.69541002       0.04440175      -0.29066495
C       -0.37907981      -0.26409332      -0.06669747
N        0.09463138      -1.46014898      -0.15747703
O        1.47740482      -1.35280753       0.05252163
C        1.85963172      -0.11159913       0.38498449
C        0.68989757       0.66429049       0.25121973
H       -2.06580284       0.81787308       0.23293164
H       -2.31294747      -0.74958802      -0.33507872
H        1.72853986       0.70742810      -0.60403793
H        0.60313478       1.70424357       0.53229862
10
Frame=2 idx=001233 GeodesicLength=0.07162797555648318 rxn_smarts="[N:1]([c:2]1[n:3][o:4][c:5]([H:9])[c:6]1[H:10])([H:7])[H:8]>>[N:1]([C:2]1=[N:3][O+:4]=[C-:5][C:6]1([H:9])[H:10])([H:7])[H:8]"
N       -1.69687633       0.04287870      -0.29005967
C       -0.37902800      -0.26412999      -0.07458502
N        0.09165542      -1.46208927      -0.15707789
O        1.47626069      -1.35431263       0.05836391
C        1.85499816      -0.11363924       0.38545208
C        0.68959500       0.66689906       0.23898530
H       -2.06425603       0.81899019       0.23172428
H       -2.31503312      -0.75095918      -0.32756197
H        1.74451131       0.71623727      -0.60790112
H        0.59817291       1.70012508       0.54266010
10
Frame=3 idx=001233 GeodesicLength=0.10744658250453293 rxn_smarts="[N:1]([c:2]1[n:3][o:4][c:5]([H:9])[c:6]1[H:10])([H:7])[H:8]>>[N:1]([C:2]1=[N:3][O+:4]=[C-:5][C:6]1([H:9])[H:10])([H:7])[H:8]"
N       -1.69826340       0.04138557      -0.28947722
C       -0.37900095      -0.26422498      -0.08224979
N        0.08860856      -1.46405074      -0.15633731
O        1.47509850      -1.35575139       0.06409460
C        1.85038871      -0.11558663       0.38558102
C        0.68933368       0.66949541       0.22673174
H       -2.06268251       0.82020968       0.23031130
H       -2.31704896      -0.75223188      -0.32006339
H        1.76049297       0.72530142      -0.61161277
H        0.59307340       1.69545354       0.55302184
10
Frame=4 idx=001233 GeodesicLength=0.14327459722540498 rxn_smarts="[N:1]([c:2]1[n:3][o:4][c:5]([H:9])[c:6]1[H:10])([H:7])[H:8]>>[N:1]([C:2]1=[N:3][O+:4]=[C-:5][C:6]1([H:9])[H:10])([H:7])[H:8]"
N       -1.69956054       0.03992827      -0.28891990
C       -0.37900679      -0.26439686      -0.08957555
N        0.08549266      -1.46603915      -0.15523169
O        1.47393722      -1.35713137       0.06967059
C        1.84583486      -0.11745905       0.38534034
C        0.68910974       0.67205619       0.21455967
H       -2.06109947       0.82153318       0.22867574
H       -2.31899317      -0.75339078      -0.31265437
H        1.77641089       0.73464710      -0.61517150
H        0.58787459       1.69025246       0.56330666
10
Frame=5 idx=001233 GeodesicLength=0.17909536306968615 rxn_smarts="[N:1]([c:2]1[n:3][o:4][c:5]([H:9])[c:6]1[H:10])([H:7])[H:8]>>[N:1]([C:2]1=[N:3][O+:4]=[C-:5][C:6]1([H:9])[H:10])([H:7])[H:8]"
N       -1.70076211       0.03852498      -0.28837774
C       -0.37905313      -0.26465879      -0.09645441
N        0.08230626      -1.46805806      -0.15373413
O        1.47279013      -1.35846080       0.07508000
C        1.84136773      -0.11927070       0.38471009
C        0.68892243       0.67455895       0.20255396
H       -2.05953661       0.82291909       0.22689117
H       -2.32086378      -0.75441184      -0.30548760
H        1.79219760       0.74428018      -0.61858422
H        0.58263149       1.68457699       0.57340289
10
Frame=6 idx=001233 GeodesicLength=0.21498527289619096 rxn_smarts="[N:1]([c:2]1[n:3][o:4][c:5]([H:9])[c:6]1[H:10])([H:7])[H:8]>>[N:1]([C:2]1=[N:3][O+:4]=[C-:5][C:6]1([H:9])[H:10])([H:7])[H:8]"
N       -1.70186439       0.03719587      -0.28783691
C       -0.37914816      -0.26501092      -0.10279950
N        0.07904508      -1.47010900      -0.15182317
O        1.47166280      -1.35976695       0.08033709
C        1.83701169      -0.12104848       0.38368855
C        0.68876745       0.67700686       0.19078617
H       -2.05802081       0.82430791       0.22507293
H       -2.32265857      -0.75528003      -0.29874001
H        1.80780384       0.75421083      -0.62188339
H        0.57740106       1.67849391       0.58319824
10
Frame=7 idx=001233 GeodesicLength=0.25043684928227244 rxn_smarts="[N:1]([c:2]1[n:3][o:4][c:5]([H:9])[c:6]1[H:10])([H:7])[H:8]>>[N:1]([C:2]1=[N:3][O+:4]=[C-:5][C:6]1([H:9])[H:10])([H:7])[H:8]"
N       -1.70284757       0.03595388      -0.28731862
C       -0.37928098      -0.26547678      -0.10857981
N        0.07571306      -1.47221745      -0.14937914
O        1.47054520      -1.36099920       0.08540501
C        1.83277461      -0.12272648       0.38213883
C        0.68866967       0.67931942       0.17929303
H       -2.05653908       0.82571335       0.22320746
H       -2.32436860      -0.75597205      -0.29247793
H        1.82315552       0.76438314      -0.62502546
H        0.57217816       1.67202215       0.59273664
10
Frame=8 idx=001233 GeodesicLength=0.28610653118047136 rxn_smarts="[N:1]([c:2]1[n:3][o:4][c:5]([H:9])[c:6]1[H:10])([H:7])[H:8]>>[N:1]([C:2]1=[N:3][O+:4]=[C-:5][C:6]1([H:9])[H:10])([H:7])[H:8]"
N       -1.70374864       0.03477040      -0.28680628
C       -0.37946619      -0.26602490      -0.11379576
N        0.07231066      -1.47434384      -0.14654095
O        1.46946363      -1.36224984       0.09031410
C        1.82867215      -0.12443473       0.38019947
C        0.68858483       0.68158421       0.16812426
H       -2.05511597       0.82711749       0.22127519
H       -2.32603586      -0.75653500      -0.28663480
H        1.83829966       0.77490356      -0.62806574
H        0.56703572       1.66521265       0.60193051
10
Frame=9 idx=001233 GeodesicLength=0.3217395185069689 rxn_smarts="[N:1]([c:2]1[n:3][o:4][c:5]([H:9])[c:6]1[H:10])([H:7])[H:8]>>[N:1]([C:2]1=[N:3][O+:4]=[C-:5][C:6]1([H:9])[H:10])([H:7])[H:8]"
N       -1.70458545       0.03364320      -0.28629332
C       -0.37969089      -0.26666510      -0.11858335
N        0.06884212      -1.47651042      -0.14337295
O        1.46840746      -1.36349751       0.09507118
C        1.82468711      -0.12614422       0.37790836
C        0.68850788       0.68374875       0.15723791
H       -2.05373913       0.82853025       0.21931606
H       -2.32767481      -0.75697885      -0.28112334
H        1.85327383       0.78574247      -0.63089641
H        0.56197189       1.65813142       0.61073585
10
Frame=10 idx=001233 GeodesicLength=0.35737419152989225 rxn_smarts="[N:1]([c:2]1[n:3][o:4][c:5]([H:9])[c:6]1[H:10])([H:7])[H:8]>>[N:1]([C:2]1=[N:3][O+:4]=[C-:5][C:6]1([H:9])[H:10])([H:7])[H:8]"
N       -1.70537631       0.03254082      -0.28578389
C       -0.37994924      -0.26738706      -0.12305481
N        0.06531498      -1.47870391      -0.13995962
O        1.46736652      -1.36475395       0.09967529
C        1.82079575      -0.12788033       0.37529822
C        0.68842420       0.68580835       0.14661804
H       -2.05238487       0.82998709       0.21724161
H       -2.32930413      -0.75733540      -0.27575042
H        1.86813704       0.79692822      -0.63345192
H        0.55697607       1.65079617       0.61916751
10
Frame=11 idx=001233 GeodesicLength=0.3930130227746261 rxn_smarts="[N:1]([c:2]1[n:3][o:4][c:5]([H:9])[c:6]1[H:10])([H:7])[H:8]>>[N:1]([C:2]1=[N:3][O+:4]=[C-:5][C:6]1([H:9])[H:10])([H:7])[H:8]"
N       -1.70613230       0.03144796      -0.28528917
C       -0.38023472      -0.26818744      -0.12730111
N        0.06172953      -1.48092803      -0.13633755
O        1.46633554      -1.36602872       0.10412677
C        1.81698739      -0.12965572       0.37238400
C        0.68832618       0.68776695       0.13625184
H       -2.05103231       0.83151425       0.21499497
H       -2.33093476      -0.75762341      -0.27038657
H        1.88291208       0.80848618      -0.63568612
H        0.55204337       1.64320798       0.62724294
10
Frame=12 idx=001233 GeodesicLength=0.42864630539655807 rxn_smarts="[N:1]([c:2]1[n:3][o:4][c:5]([H:9])[c:6]1[H:10])([H:7])[H:8]>>[N:1]([C:2]1=[N:3][O+:4]=[C-:5][C:6]1([H:9])[H:10])([H:7])[H:8]"
N       -1.70686160       0.03036093      -0.28480348
C       -0.38054254      -0.26905931      -0.13140013
N        0.05808198      -1.48318005      -0.13252571
O        1.46530426      -1.36733148       0.10845075
C        1.81325075      -0.13147834       0.36917603
C        0.68821281       0.68962268       0.12610619
H       -2.04967397       0.83309936       0.21260688
H       -2.33256997      -0.75784798      -0.26499753
H        1.89763145       0.82042044      -0.63756430
H        0.54716683       1.63539377       0.63495131
10
Frame=13 idx=001233 GeodesicLength=0.46428154962833257 rxn_smarts="[N:1]([c:2]1[n:3][o:4][c:5]([H:9])[c:6]1[H:10])([H:7])[H:8]>>[N:1]([C:2]1=[N:3][O+:4]=[C-:5][C:6]1([H:9])[H:10])([H:7])[H:8]"
N       -1.70757095       0.02925015      -0.28434985
C       -0.38087161      -0.27001301      -0.13538035
N        0.05437644      -1.48546619      -0.12854414
O        1.46428128      -1.36866498       0.11260201
C        1.80958983      -0.13336065       0.36565381
C        0.68807387       0.69136961       0.11619169
H       -2.04829289       0.83481713       0.20989022
H       -2.33422242      -0.75802821      -0.25938849
H        1.91229275       0.83277701      -0.63904566
H        0.54234370       1.62731916       0.64237074
10
Frame=14 idx=001233 GeodesicLength=0.49990730011545104 rxn_smarts="[N:1]([c:2]1[n:3][o:4][c:5]([H:9])[c:6]1[H:10])([H:7])[H:8]>>[N:1]([C:2]1=[N:3][O+:4]=[C-:5][C:6]1([H:9])[H:10])([H:7])[H:8]"
N       -1.70825269       0.02814571      -0.28392029
C       -0.38122937      -0.27104869      -0.13915330
N        0.05059753      -1.48778688      -0.12427131
O        1.46326799      -1.37003771       0.11660401
C        1.80602803      -0.13530352       0.36177084
C        0.68791531       0.69300238       0.10650615
H       -2.04691856       0.83658284       0.20700797
H       -2.33588330      -0.75813506      -0.25382503
H        1.92685405       0.84553137      -0.64019831
H        0.53762100       1.61904956       0.64947927
10
Frame=15 idx=001233 GeodesicLength=0.5355355726748187 rxn_smarts="[N:1]([c:2]1[n:3][o:4][c:5]([H:9])[c:6]1[H:10])([H:7])[H:8]>>[N:1]([C:2]1=[N:3][O+:4]=[C-:5][C:6]1([H:9])[H:10])([H:7])[H:8]"
N       -1.70891010       0.02703530      -0.28352772
C       -0.38161389      -0.27217237      -0.14275335
N        0.04673986      -1.49014967      -0.11968275
O        1.46226560      -1.37145505       0.12044123
C        1.80256786      -0.13731370       0.35750319
C        0.68773263       0.69452714       0.09704126
H       -2.04554015       0.83843015       0.20388449
H       -2.33755891      -0.75817845      -0.24823017
H        1.94131635       0.85871607      -0.64100529
H        0.53300074       1.61056058       0.65632911
10
Frame=16 idx=001233 GeodesicLength=0.5711660107378917 rxn_smarts="[N:1]([c:2]1[n:3][o:4][c:5]([H:9])[c:6]1[H:10])([H:7])[H:8]>>[N:1]([C:2]1=[N:3][O+:4]=[C-:5][C:6]1([H:9])[H:10])([H:7])[H:8]"
N       -1.70954878       0.02591653      -0.28317182
C       -0.38202391      -0.27338330      -0.14621397
N        0.04279789      -1.49255157      -0.11475250
O        1.46127212      -1.37292236       0.12411754
C        1.79920873      -0.13939759       0.35283593
C        0.68752302       0.69594157       0.08777166
H       -2.04415536       0.84035138       0.20052574
H       -2.33925496      -0.75815784      -0.24259765
H        1.95569321       0.87234300      -0.64144712
H        0.52848804       1.60186019       0.66293219
