16
Frame=0 idx=004477 GeodesicLength=0.0 rxn_smarts="[C:1]1([H:7])([H:8])[C@:2]2([H:9])[C:3]([H:10])([H:11])[C:4]([H:12])([H:13])[C:5]([H:14])([H:15])[C@:6]12[H:16]>>[C:1](=[C:6](/[C:2](=[C:3](\[C:4]([C:5]([H:10])([H:14])[H:15])([H:12])[H:13])[H:11])[H:9])[H:16])([H:7])[H:8]"
C       -1.54898026       0.49417571       0.60512331
C       -0.56101808       1.00511602      -0.59677304
C        0.86982253       0.94103205      -0.30879630
C        1.24394375      -0.15612487       0.64039009
C        0.66295294      -1.31102714      -0.17582277
C       -1.16151640      -0.30162753      -0.52792417
H       -0.97354693       0.48241877       1.52169515
H       -2.59868556       0.74240509       0.75544715
H       -0.91647698       1.75213504      -1.29743522
H        0.73073390      -0.50127619      -1.15311674
H        1.45055828       1.86269247      -0.31727808
H        0.87009047      -0.06983417       1.66963804
H        2.32956272      -0.24683622       0.71075704
H       -0.00157720      -2.04667075       0.28715267
H        1.48142430      -1.91332630      -0.59430419
H       -1.87728749      -0.73325195      -1.21875290
16
Frame=1 idx=004477 GeodesicLength=0.09250837461269457 rxn_smarts="[C:1]1([H:7])([H:8])[C@:2]2([H:9])[C:3]([H:10])([H:11])[C:4]([H:12])([H:13])[C:5]([H:14])([H:15])[C@:6]12[H:16]>>[C:1](=[C:6](/[C:2](=[C:3](\[C:4]([C:5]([H:10])([H:14])[H:15])([H:12])[H:13])[H:11])[H:9])[H:16])([H:7])[H:8]"
C       -1.55811277       0.48581842       0.61276109
C       -0.55901445       1.01215094      -0.59474767
C        0.87088861       0.93949653      -0.31788917
C        1.24510404      -0.15312381       0.63848039
C        0.66552597      -1.31290065      -0.17276796
C       -1.16967239      -0.29287487      -0.52896143
H       -0.99048787       0.44528050       1.53323732
H       -2.60744293       0.73335654       0.76418090
H       -0.91087609       1.75680877      -1.30004826
H        0.75851071      -0.49688645      -1.16789963
H        1.45974210       1.85516457      -0.34159946
H        0.87095635      -0.05908628       1.66594249
H        2.33075889      -0.24096871       0.71204895
H        0.00348599      -2.04478773       0.29939908
H        1.48338101      -1.92587908      -0.57562546
H       -1.89274715      -0.70156869      -1.22651118
16
Frame=2 idx=004477 GeodesicLength=0.18496381385830207 rxn_smarts="[C:1]1([H:7])([H:8])[C@:2]2([H:9])[C:3]([H:10])([H:11])[C:4]([H:12])([H:13])[C:5]([H:14])([H:15])[C@:6]12[H:16]>>[C:1](=[C:6](/[C:2](=[C:3](\[C:4]([C:5]([H:10])([H:14])[H:15])([H:12])[H:13])[H:11])[H:9])[H:16])([H:7])[H:8]"
C       -1.56714480       0.47743660       0.62059125
C       -0.55692953       1.01912974      -0.59289781
C        0.87196541       0.93779951      -0.32730233
C        1.24610101      -0.15009060       0.63651402
C        0.66812096      -1.31480590      -0.16979057
C       -1.17812375      -0.28392006      -0.52980074
H       -1.00758483       0.40714952       1.54410732
H       -2.61599782       0.72463817       0.77325458
H       -0.90515257       1.76130698      -1.30293820
H        0.78754947      -0.49244005      -1.18269751
H        1.46864162       1.84732520      -0.36594061
H        0.87130920      -0.04821513       1.66200243
H        2.33175948      -0.23498763       0.71355220
H        0.00870100      -2.04291025       0.31158731
H        1.48530725      -1.93808753      -0.55685738
H       -1.90852210      -0.66932857      -1.23338394
16
Frame=3 idx=004477 GeodesicLength=0.27738623496949416 rxn_smarts="[C:1]1([H:7])([H:8])[C@:2]2([H:9])[C:3]([H:10])([H:11])[C:4]([H:12])([H:13])[C:5]([H:14])([H:15])[C@:6]12[H:16]>>[C:1](=[C:6](/[C:2](=[C:3](\[C:4]([C:5]([H:10])([H:14])[H:15])([H:12])[H:13])[H:11])[H:9])[H:16])([H:7])[H:8]"
C       -1.57606196       0.46903651       0.62863329
C       -0.55476428       1.02603856      -0.59125919
C        0.87304236       0.93591762      -0.33705333
C        1.24692109      -0.14703348       0.63448444
C        0.67073593      -1.31675227      -0.16690277
C       -1.18688896      -0.27475730      -0.53042360
H       -1.02484278       0.36807739       1.55424722
H       -2.62432461       0.71628543       0.78271030
H       -0.89931324       1.76560305      -1.30614590
H        0.81796153      -0.48791816      -1.19747808
H        1.47722890       1.83918895      -0.39024233
H        0.87112257      -0.03724880       1.65780396
H        2.33254734      -0.22888842       0.71527364
H        0.01406445      -2.04105174       0.32369216
H        1.48720551      -1.94994178      -0.53802613
H       -1.92463385      -0.63655556      -1.23931368
16
Frame=4 idx=004477 GeodesicLength=0.3698017356999822 rxn_smarts="[C:1]1([H:7])([H:8])[C@:2]2([H:9])[C:3]([H:10])([H:11])[C:4]([H:12])([H:13])[C:5]([H:14])([H:15])[C@:6]12[H:16]>>[C:1](=[C:6](/[C:2](=[C:3](\[C:4]([C:5]([H:10])([H:14])[H:15])([H:12])[H:13])[H:11])[H:9])[H:16])([H:7])[H:8]"
C       -1.58485060       0.46062159       0.63690656
C       -0.55252074       1.03286015      -0.58987059
C        0.87410736       0.93382541      -0.34716064
C        1.24755079      -0.14396227       0.63238292
C        0.67336808      -1.31875137      -0.16411685
C       -1.19598714      -0.26538292      -0.53081156
H       -1.04226565       0.32812608       1.56359978
H       -2.63239775       0.70833670       0.79259054
H       -0.89336616       1.76966503      -1.30971650
H        0.84986950      -0.48329498      -1.21220207
H        1.48547308       1.83077574      -0.41443755
H        0.87037412      -0.02621876       1.65333310
H        2.33310513      -0.22266668       0.71721688
H        0.01957168      -2.03922710       0.33569010
H        1.48907853      -1.96143516      -0.51916140
H       -1.94111022      -0.60327147      -1.24424273
16
Frame=5 idx=004477 GeodesicLength=0.4622407281623152 rxn_smarts="[C:1]1([H:7])([H:8])[C@:2]2([H:9])[C:3]([H:10])([H:11])[C:4]([H:12])([H:13])[C:5]([H:14])([H:15])[C@:6]12[H:16]>>[C:1](=[C:6](/[C:2](=[C:3](\[C:4]([C:5]([H:10])([H:14])[H:15])([H:12])[H:13])[H:11])[H:9])[H:16])([H:7])[H:8]"
C       -1.59349909       0.45219124       0.64542927
C       -0.55020269       1.03958025      -0.58876783
C        0.87514745       0.93149600      -0.35764330
C        1.24797684      -0.14088646       0.63020063
C        0.67601134      -1.32081614      -0.16144032
C       -1.20543727      -0.25579195      -0.53094765
H       -1.05985990       0.28736909       1.57210829
H       -2.64019331       0.70081853       0.80293923
H       -0.88732037       1.77346296      -1.31369370
H        0.88339770      -0.47854195      -1.22682593
H        1.49334831       1.82210672      -0.43846415
H        0.86904624      -0.01515560       1.64857823
H        2.33341520      -0.21631849       0.71938242
H        0.02521499      -2.03745200       0.34756427
H        1.49092747      -1.97256644      -0.50030020
H       -1.95797289      -0.56949575      -1.24811926
16
Frame=6 idx=004477 GeodesicLength=0.5546917134312043 rxn_smarts="[C:1]1([H:7])([H:8])[C@:2]2([H:9])[C:3]([H:10])([H:11])[C:4]([H:12])([H:13])[C:5]([H:14])([H:15])[C@:6]12[H:16]>>[C:1](=[C:6](/[C:2](=[C:3](\[C:4]([C:5]([H:10])([H:14])[H:15])([H:12])[H:13])[H:11])[H:9])[H:16])([H:7])[H:8]"
C       -1.60200036       0.44374595       0.65422272
C       -0.54781783       1.04617512      -0.58799287
C        0.87614733       0.92889716      -0.36852625
C        1.24818541      -0.13781950       0.62792579
C        0.67866372      -1.32295553      -0.15890049
C       -1.21526567      -0.24598108      -0.53080887
H       -1.07763030       0.24588755       1.57972219
H       -2.64768739       0.69377675       0.81380412
H       -0.88118879       1.77695343      -1.31813127
H        0.91869752      -0.47363134      -1.24126871
H        1.50082110       1.81320671      -0.46225504
H        0.86712262      -0.00409508       1.64352572
H        2.33345952      -0.20984080       0.72177271
H        0.03099129      -2.03574084       0.35927764
H        1.49276052      -1.98333504      -0.48147962
H       -1.97525869      -0.53524347      -1.25088778
16
Frame=7 idx=004477 GeodesicLength=0.6471720610781003 rxn_smarts="[C:1]1([H:7])([H:8])[C@:2]2([H:9])[C:3]([H:10])([H:11])[C:4]([H:12])([H:13])[C:5]([H:14])([H:15])[C@:6]12[H:16]>>[C:1](=[C:6](/[C:2](=[C:3](\[C:4]([C:5]([H:10])([H:14])[H:15])([H:12])[H:13])[H:11])[H:9])[H:16])([H:7])[H:8]"
C       -1.61035152       0.43527816       0.66330461
C       -0.54537327       1.05262893      -0.58758216
C        0.87709134       0.92599809      -0.37983324
C        1.24816423      -0.13477334       0.62554422
C        0.68131684      -1.32518268      -0.15651069
C       -1.22549347      -0.23594166      -0.53038169
H       -1.09558560       0.20376409       1.58639075
H       -2.65485866       0.68723481       0.82523080
H       -0.87498353       1.78010219      -1.32307569
H        0.95591363      -0.46852892      -1.25545377
H        1.50786672       1.80410282      -0.48575095
H        0.86459874       0.00693278       1.63816164
H        2.33322105      -0.20323201       0.72437948
H        0.03688791      -2.03410688       0.37080949
H        1.49457524      -1.99374619      -0.46273603
H       -1.99298966      -0.50053019      -1.25249677
16
Frame=8 idx=004477 GeodesicLength=0.7396604880195249 rxn_smarts="[C:1]1([H:7])([H:8])[C@:2]2([H:9])[C:3]([H:10])([H:11])[C:4]([H:12])([H:13])[C:5]([H:14])([H:15])[C@:6]12[H:16]>>[C:1](=[C:6](/[C:2](=[C:3](\[C:4]([C:5]([H:10])([H:14])[H:15])([H:12])[H:13])[H:11])[H:9])[H:16])([H:7])[H:8]"
C       -1.61855283       0.42678054       0.67269355
C       -0.54287804       1.05891895      -0.58757339
C        0.87796435       0.92275791      -0.39159900
C        1.24790149      -0.13176206       0.62304002
C        0.68396654      -1.32750903      -0.15429527
C       -1.23615018      -0.22566980      -0.52964799
H       -1.11373192       0.16108765       1.59207158
H       -2.66169205       0.68123001       0.83726927
H       -0.86871824       1.78286296      -1.32858036
H        0.99521137      -0.46319670      -1.26925361
H        1.51445511       1.79482074      -0.50889980
H        0.86147118       0.01789585       1.63247129
H        2.33268170      -0.19648987       0.72719904
H        0.04290088      -2.03256617       0.38212837
H        1.49637743      -2.00380283      -0.44412148
H       -2.01120677      -0.46535814      -1.25290221
16
Frame=9 idx=004477 GeodesicLength=0.8318865419984912 rxn_smarts="[C:1]1([H:7])([H:8])[C@:2]2([H:9])[C:3]([H:10])([H:11])[C:4]([H:12])([H:13])[C:5]([H:14])([H:15])[C@:6]12[H:16]>>[C:1](=[C:6](/[C:2](=[C:3](\[C:4]([C:5]([H:10])([H:14])[H:15])([H:12])[H:13])[H:11])[H:9])[H:16])([H:7])[H:8]"
C       -1.62661314       0.41828229       0.68240829
C       -0.54037259       1.06496256      -0.58804326
C        0.87873393       0.91911260      -0.40386870
C        1.24735306      -0.12880135       0.62041950
C        0.68664379      -1.32990283      -0.15239327
C       -1.24729271      -0.21515193      -0.52855154
H       -1.13201206       0.11794370       1.59680586
H       -2.66812416       0.67586561       0.85000718
H       -0.86243101       1.78510302      -1.33475763
H        1.03679909      -0.45761499      -1.28241328
H        1.52052003       1.78530755      -0.53170057
H        0.85768350       0.02873378       1.62645892
H        2.33178468      -0.18958152       0.73031261
H        0.04903483      -2.03111201       0.39304787
H        1.49825385      -2.01349163      -0.42568669
H       -2.02996109      -0.42965485      -1.25204528
16
Frame=10 idx=004477 GeodesicLength=0.9241167786799127 rxn_smarts="[C:1]1([H:7])([H:8])[C@:2]2([H:9])[C:3]([H:10])([H:11])[C:4]([H:12])([H:13])[C:5]([H:14])([H:15])[C@:6]12[H:16]>>[C:1](=[C:6](/[C:2](=[C:3](\[C:4]([C:5]([H:10])([H:14])[H:15])([H:12])[H:13])[H:11])[H:9])[H:16])([H:7])[H:8]"
C       -1.63452389       0.40972709       0.69246105
C       -0.53783660       1.07080237      -0.58898889
C        0.87940123       0.91502932      -0.41668201
C        1.24653712      -0.12589841       0.61764249
C        0.68930744      -1.33242161      -0.15070612
C       -1.25890705      -0.20437795      -0.52712015
H       -1.15051806       0.07439307       1.60048293
H       -2.67416486       0.67108289       0.86346744
H       -0.85611588       1.78686029      -1.34160057
H        1.08076715      -0.45168829      -1.29490150
H        1.52608194       1.77563907      -0.55408937
H        0.85329318       0.03946412       1.62008972
H        2.33054525      -0.18252821       0.73362653
H        0.05526242      -2.02977728       0.40369885
H        1.50011677      -2.02283544      -0.40747703
H       -2.04924616      -0.39347103      -1.24990338
16
Frame=11 idx=004477 GeodesicLength=1.0163595529304792 rxn_smarts="[C:1]1([H:7])([H:8])[C@:2]2([H:9])[C:3]([H:10])([H:11])[C:4]([H:12])([H:13])[C:5]([H:14])([H:15])[C@:6]12[H:16]>>[C:1](=[C:6](/[C:2](=[C:3](\[C:4]([C:5]([H:10])([H:14])[H:15])([H:12])[H:13])[H:11])[H:9])[H:16])([H:7])[H:8]"
C       -1.64228022       0.40110037       0.70286185
C       -0.53528260       1.07641728      -0.59044694
C        0.87994787       0.91045766      -0.43008013
C        1.24543827      -0.12306426       0.61469038
C        0.69194974      -1.33507897      -0.14925253
C       -1.27101171      -0.19333366      -0.52533718
H       -1.16927314       0.03050845       1.60308388
H       -2.67978237       0.66689612       0.87770275
H       -0.84979169       1.78808194      -1.34916220
H        1.12724871      -0.44534717      -1.30658687
H        1.53112286       1.76582205      -0.57603536
H        0.84830363       0.05006965       1.61334702
H        2.32894013      -0.17532412       0.73713029
H        0.06156991      -2.02857340       0.41405990
H        1.50196755      -2.03184420      -0.38953581
H       -2.06906692      -0.35678773      -1.24643902
16
Frame=12 idx=004477 GeodesicLength=1.1086124760568556 rxn_smarts="[C:1]1([H:7])([H:8])[C@:2]2([H:9])[C:3]([H:10])([H:11])[C:4]([H:12])([H:13])[C:5]([H:14])([H:15])[C@:6]12[H:16]>>[C:1](=[C:6](/[C:2](=[C:3](\[C:4]([C:5]([H:10])([H:14])[H:15])([H:12])[H:13])[H:11])[H:9])[H:16])([H:7])[H:8]"
C       -1.64988728       0.39238170       0.71362234
C       -0.53272068       1.08179044      -0.59245177
C        0.88035801       0.90533885      -0.44411807
C        1.24404283      -0.12030903       0.61154004
C        0.69456335      -1.33788904      -0.14805138
C       -1.28362569      -0.18199811      -0.52319142
H       -1.18829957      -0.01365518       1.60458900
H       -2.68494753       0.66331198       0.89277542
H       -0.84347675       1.78871968      -1.35749255
H        1.17637868      -0.43851891      -1.31729477
H        1.53562740       1.75586179      -0.59752798
H        0.84272389       0.06054205       1.60620959
H        2.32694629      -0.16796169       0.74080989
H        0.06794280      -2.02751017       0.42410961
H        1.50380514      -2.04053096      -0.37190313
H       -2.08943089      -0.31957340      -1.24162484
16
Frame=13 idx=004477 GeodesicLength=1.200890412026131 rxn_smarts="[C:1]1([H:7])([H:8])[C@:2]2([H:9])[C:3]([H:10])([H:11])[C:4]([H:12])([H:13])[C:5]([H:14])([H:15])[C@:6]12[H:16]>>[C:1](=[C:6](/[C:2](=[C:3](\[C:4]([C:5]([H:10])([H:14])[H:15])([H:12])[H:13])[H:11])[H:9])[H:16])([H:7])[H:8]"
C       -1.65734812       0.38355190       0.72474576
C       -0.53015680       1.08689676      -0.59503764
C        0.88061415       0.89961094      -0.45884794
C        1.24233838      -0.11764388       0.60816765
C        0.69713685      -1.34087102      -0.14710924
C       -1.29676545      -0.17035025      -0.52067048
H       -1.20761942      -0.05803937       1.60498182
H       -2.68963103       0.66033346       0.90873507
H       -0.83718777       1.78872091      -1.36663438
H        1.22827714      -0.43110047      -1.32684175
H        1.53957530       1.74575089      -0.61856693
H        0.83656665       0.07087630       1.59865668
H        2.32454100      -0.16043486       0.74464749
H        0.07436809      -2.02660369       0.43384269
H        1.50562814      -2.04890828      -0.35463766
H       -2.11033714      -0.28178934      -1.23543115
16
Frame=14 idx=004477 GeodesicLength=1.2931577498736428 rxn_smarts="[C:1]1([H:7])([H:8])[C@:2]2([H:9])[C:3]([H:10])([H:11])[C:4]([H:12])([H:13])[C:5]([H:14])([H:15])[C@:6]12[H:16]>>[C:1](=[C:6](/[C:2](=[C:3](\[C:4]([C:5]([H:10])([H:14])[H:15])([H:12])[H:13])[H:11])[H:9])[H:16])([H:7])[H:8]"
C       -1.66466669       0.37458291       0.73624106
C       -0.52759722       1.09171654      -0.59823656
C        0.88070433       0.89319790      -0.47434369
C        1.24031278      -0.11507803       0.60454594
C        0.69966790      -1.34404182      -0.14644452
C       -1.31044636      -0.15836328      -0.51776317
H       -1.22726441      -0.10261353       1.60423098
H       -2.69379437       0.65796600       0.92564549
H       -0.83094633       1.78803511      -1.37662907
H        1.28303409      -0.42298910      -1.33498602
H        1.54295282       1.73546707      -0.63917692
H        0.82984138       0.08107863       1.59066041
H        2.32169979      -0.15273044       0.74863283
H        0.08083906      -2.02586709       0.44323997
H        1.50744518      -2.05698687      -0.33778660
H       -2.13178194      -0.24337401      -1.22783013
16
Frame=15 idx=004477 GeodesicLength=1.3854103487007086 rxn_smarts="[C:1]1([H:7])([H:8])[C@:2]2([H:9])[C:3]([H:10])([H:11])[C:4]([H:12])([H:13])[C:5]([H:14])([H:15])[C@:6]12[H:16]>>[C:1](=[C:6](/[C:2](=[C:3](\[C:4]([C:5]([H:10])([H:14])[H:15])([H:12])[H:13])[H:11])[H:9])[H:16])([H:7])[H:8]"
C       -1.67184533       0.36544470       0.74810708
C       -0.52504088       1.09622599      -0.60208241
C        0.88061718       0.88601961      -0.49067646
C        1.23795558      -0.11262084       0.60064626
C        0.70215028      -1.34742469      -0.14605817
C       -1.32467506      -0.14600815      -0.51446034
H       -1.24727012      -0.14734831       1.60230385
H       -2.69739653       0.65619861       0.94356027
H       -0.82476939       1.78661122      -1.38751410
H        1.34070804      -0.41404933      -1.34148725
H        1.54574667       1.72497584      -0.65939482
H        0.82255934       0.09115819       1.58219209
H        2.31839806      -0.14483530       0.75275136
H        0.08735245      -2.02531968       0.45230616
H        1.50926530      -2.06477913      -0.32140709
H       -2.15375559      -0.20424875      -1.21878643
16
Frame=16 idx=004477 GeodesicLength=1.4776205237721363 rxn_smarts="[C:1]1([H:7])([H:8])[C@:2]2([H:9])[C:3]([H:10])([H:11])[C:4]([H:12])([H:13])[C:5]([H:14])([H:15])[C@:6]12[H:16]>>[C:1](=[C:6](/[C:2](=[C:3](\[C:4]([C:5]([H:10])([H:14])[H:15])([H:12])[H:13])[H:11])[H:9])[H:16])([H:7])[H:8]"
C       -1.67888517       0.35609986       0.76034109
C       -0.52248252       1.10039753      -0.60661081
C        0.88034503       0.87798181      -0.50793064
C        1.23525818      -0.11028194       0.59643730
C        0.70458267      -1.35104638      -0.14595185
C       -1.33945444      -0.13325224      -0.51075314
H       -1.26767836      -0.19222823       1.59915194
H       -2.70038665       0.65502386       0.96253824
H       -0.81867486       1.78439809      -1.39932244
H        1.40131013      -0.40411893      -1.34606192
H        1.54794263       1.71422618      -0.67927570
H        0.81473115       0.10113267       1.57321775
H        2.31461156      -0.13673295       0.75699085
H        0.09391161      -2.02498327       0.46104727
H        1.51110631      -2.07229882      -0.30555437
H       -2.17623727      -0.16431724      -1.20826358
