12
Frame=0 idx=001144 GeodesicLength=0.0 rxn_smarts="[O:1]([C:2]([C@@:3]1([H:9])[C:4]([H:10])([H:11])[N:5]1[H:12])([H:7])[H:8])[H:6]>>[H:6][H:7].[O:1]=[C:2]([C@@:3]1([H:9])[C:4]([H:10])([H:11])[N:5]1[H:12])[H:8]"
O        1.57997303       0.74820890       0.87286290
C        1.19562482      -0.12929610      -0.02883038
C       -0.26252733      -0.26270074      -0.39314689
C       -1.28274004       0.43127204       0.40976453
N       -0.83459027       0.99400707      -0.85988306
H        1.62249166      -0.63415408       1.08078997
H        1.37507508      -1.42632397       0.56994725
H        1.86381091      -0.33115203      -0.88384082
H       -0.52921710      -1.17946884      -0.91212167
H       -0.95442552       0.98684494       1.27887108
H       -2.26903443      -0.01533824       0.46341630
H       -1.50444079       0.81810100      -1.59782926
12
Frame=1 idx=001144 GeodesicLength=0.11399462201226959 rxn_smarts="[O:1]([C:2]([C@@:3]1([H:9])[C:4]([H:10])([H:11])[N:5]1[H:12])([H:7])[H:8])[H:6]>>[H:6][H:7].[O:1]=[C:2]([C@@:3]1([H:9])[C:4]([H:10])([H:11])[N:5]1[H:12])[H:8]"
O        1.60792924       0.77169684       0.80192000
C        1.19875015      -0.14135395      -0.05028201
C       -0.26056646      -0.25857263      -0.41298464
C       -1.28179918       0.40849881       0.41182798
N       -0.83400230       1.01231867      -0.83814400
H        1.60333569      -0.58714622       1.12941318
H        1.36320164      -1.41561497       0.64386799
H        1.86043983      -0.38530269      -0.89957723
H       -0.53186347      -1.15993902      -0.95600772
H       -0.95309279       0.93342057       1.29955599
H       -2.26812902      -0.03950181       0.45168211
H       -1.50420333       0.86149641      -1.58127165
12
Frame=2 idx=001144 GeodesicLength=0.2279189580856389 rxn_smarts="[O:1]([C:2]([C@@:3]1([H:9])[C:4]([H:10])([H:11])[N:5]1[H:12])([H:7])[H:8])[H:6]>>[H:6][H:7].[O:1]=[C:2]([C@@:3]1([H:9])[C:4]([H:10])([H:11])[N:5]1[H:12])[H:8]"
O        1.63479454       0.78825390       0.73265789
C        1.20136817      -0.15511158      -0.07121764
C       -0.25900716      -0.25509635      -0.43242064
C       -1.28061627       0.38559070       0.41327328
N       -0.83233981       1.02926448      -0.81564815
H        1.58468685      -0.53580387       1.17562668
H        1.35252569      -1.40036075       0.71711946
H        1.85559488      -0.43819724      -0.91434473
H       -0.53556164      -1.13994019      -0.99942543
H       -0.95108194       0.87932114       1.31835214
H       -2.26744047      -0.06230739       0.43921141
H       -1.50292285       0.90438715      -1.56318427
12
Frame=3 idx=001144 GeodesicLength=0.34183156218177346 rxn_smarts="[O:1]([C:2]([C@@:3]1([H:9])[C:4]([H:10])([H:11])[N:5]1[H:12])([H:7])[H:8])[H:6]>>[H:6][H:7].[O:1]=[C:2]([C@@:3]1([H:9])[C:4]([H:10])([H:11])[N:5]1[H:12])[H:8]"
O        1.66078857       0.79836242       0.66506348
C        1.20346723      -0.17071089      -0.09162660
C       -0.25784832      -0.25226272      -0.45143701
C       -1.27936995       0.36239116       0.41413179
N       -0.82952326       1.04494840      -0.79219354
H        1.56675881      -0.48006637       1.21931987
H        1.34320519      -1.38057675       0.78989908
H        1.84925107      -0.49027783      -0.92842212
H       -0.54026970      -1.11927319      -1.04257248
H       -0.94891244       0.82433342       1.33545474
H       -2.26717057      -0.08389876       0.42583148
H       -1.50037663       0.94703112      -1.54344869
12
Frame=4 idx=001144 GeodesicLength=0.4557543762738678 rxn_smarts="[O:1]([C:2]([C@@:3]1([H:9])[C:4]([H:10])([H:11])[N:5]1[H:12])([H:7])[H:8])[H:6]>>[H:6][H:7].[O:1]=[C:2]([C@@:3]1([H:9])[C:4]([H:10])([H:11])[N:5]1[H:12])[H:8]"
O        1.68608105       0.80236580       0.59913600
C        1.20503044      -0.18829878      -0.11148196
C       -0.25708200      -0.25005930      -0.47004195
C       -1.27822262       0.33875779       0.41441403
N       -0.82548613       1.05943902      -0.76759431
H        1.54971475      -0.41981165       1.26034029
H        1.33539355      -1.35617408       0.86235211
H        1.84139387      -0.54195129      -0.94200820
H       -0.54591961      -1.09773218      -1.08561498
H       -0.94703823       0.76819643       1.35102406
H       -2.26749794      -0.10438055       0.41139619
H       -1.49636713       0.98964879      -1.52192127
12
Frame=5 idx=001144 GeodesicLength=0.5696050722121904 rxn_smarts="[O:1]([C:2]([C@@:3]1([H:9])[C:4]([H:10])([H:11])[N:5]1[H:12])([H:7])[H:8])[H:6]>>[H:6][H:7].[O:1]=[C:2]([C@@:3]1([H:9])[C:4]([H:10])([H:11])[N:5]1[H:12])[H:8]"
O        1.71073757       0.80049258       0.53484325
C        1.20599421      -0.20804059      -0.13074231
C       -0.25667887      -0.24846166      -0.48827738
C       -1.27726932       0.31452975       0.41411019
N       -0.82015299       1.07275599      -0.74161225
H        1.53362265      -0.35478079       1.29845296
H        1.32915782      -1.32689575       0.93458803
H        1.83194511      -0.59367270      -0.95519362
H       -0.55238713      -1.07506040      -1.12873743
H       -0.94581075       0.71054305       1.36518208
H       -2.26848603      -0.12384510       0.39574870
H       -1.49067226       1.03243562      -1.49836221
12
Frame=6 idx=001144 GeodesicLength=0.6834292964124403 rxn_smarts="[O:1]([C:2]([C@@:3]1([H:9])[C:4]([H:10])([H:11])[N:5]1[H:12])([H:7])[H:8])[H:6]>>[H:6][H:7].[O:1]=[C:2]([C@@:3]1([H:9])[C:4]([H:10])([H:11])[N:5]1[H:12])[H:8]"
O        1.73483752       0.79287162       0.47219109
C        1.20628530      -0.23012892      -0.14933636
C       -0.25663057      -0.24743882      -0.50621942
C       -1.27659431       0.28952027       0.41318580
N       -0.81344259       1.08488154      -0.71400228
H        1.51856415      -0.28459117       1.33336708
H        1.32457644      -1.29235568       1.00675370
H        1.82080149      -0.64592358      -0.96799111
H       -0.55959490      -1.05093571      -1.17217535
H       -0.94547007       0.65087061       1.37801669
H       -2.27022276      -0.14236382       0.37869526
H       -1.48310970       1.07559367      -1.47248511
12
Frame=7 idx=001144 GeodesicLength=0.7971698541475133 rxn_smarts="[O:1]([C:2]([C@@:3]1([H:9])[C:4]([H:10])([H:11])[N:5]1[H:12])([H:7])[H:8])[H:6]>>[H:6][H:7].[O:1]=[C:2]([C@@:3]1([H:9])[C:4]([H:10])([H:11])[N:5]1[H:12])[H:8]"
O        1.75836938       0.77951790       0.41134858
C        1.20583233      -0.25475201      -0.16716581
C       -0.25688950      -0.24694904      -0.52393660
C       -1.27626748       0.26360043       0.41160610
N       -0.80529040       1.09576196      -0.68454453
H        1.50451081      -0.20891962       1.36464001
H        1.32166836      -1.25214760       1.07877420
H        1.80791074      -0.69903549      -0.98038940
H       -0.56736749      -1.02508942      -1.21602738
H       -0.94624687       0.58876040       1.38953621
H       -2.27274350      -0.15995691       0.36013971
H       -1.47348637       1.11920940      -1.44398108
12
Frame=8 idx=001144 GeodesicLength=0.910757070099392 rxn_smarts="[O:1]([C:2]([C@@:3]1([H:9])[C:4]([H:10])([H:11])[N:5]1[H:12])([H:7])[H:8])[H:6]>>[H:6][H:7].[O:1]=[C:2]([C@@:3]1([H:9])[C:4]([H:10])([H:11])[N:5]1[H:12])[H:8]"
O        1.78125865       0.76037128       0.35263691
C        1.20453218      -0.28209380      -0.18409019
C       -0.25739808      -0.24692941      -0.54150182
C       -1.27630422       0.23666162       0.40931930
N       -0.79563688       1.10528148      -0.65302044
H        1.49137573      -0.12742990       1.39169842
H        1.32036786      -1.20580425       1.15045533
H        1.79318233      -0.75326916      -0.99232008
H       -0.57550050      -0.99722272      -1.26035853
H       -0.94824263       0.52377429       1.39967227
H       -2.27600528      -0.17661850       0.34000472
H       -1.46162915       1.16327906      -1.41249590
12
Frame=9 idx=001144 GeodesicLength=1.0243454928123326 rxn_smarts="[O:1]([C:2]([C@@:3]1([H:9])[C:4]([H:10])([H:11])[N:5]1[H:12])([H:7])[H:8])[H:6]>>[H:6][H:7].[O:1]=[C:2]([C@@:3]1([H:9])[C:4]([H:10])([H:11])[N:5]1[H:12])[H:8]"
O        1.80339017       0.73534086       0.29655278
C        1.20228677      -0.31233757      -0.19994678
C       -0.25810322      -0.24730701      -0.55897916
C       -1.27672087       0.20862769       0.40627200
N       -0.78443685       1.11328143      -0.61929020
H        1.47913845      -0.03986632       1.41389372
H        1.32053526      -1.15288821       1.22158773
H        1.77656925      -0.80871315      -1.00377280
H       -0.58379524      -0.96704134      -1.30515815
H       -0.95145719       0.45544865       1.40828128
H       -2.27999227      -0.19227281       0.31826565
H       -1.44741427       1.20772779      -1.37770608
12
Frame=10 idx=001144 GeodesicLength=1.1378441528201113 rxn_smarts="[O:1]([C:2]([C@@:3]1([H:9])[C:4]([H:10])([H:11])[N:5]1[H:12])([H:7])[H:8])[H:6]>>[H:6][H:7].[O:1]=[C:2]([C@@:3]1([H:9])[C:4]([H:10])([H:11])[N:5]1[H:12])[H:8]"
O        1.82450979       0.70436602       0.24411367
C        1.19902947      -0.34552062      -0.21454847
C       -0.25889512      -0.24799095      -0.57635295
C       -1.27744689       0.17963892       0.40244128
N       -0.77173130       1.11952426      -0.58342216
H        1.46758859       0.05354814       1.43047644
H        1.32184125      -1.09334387       1.29147351
H        1.75816044      -0.86493914      -1.01487172
H       -0.59193332      -0.93447655      -1.35009531
H       -0.95572412       0.38386049       1.41507661
H       -2.28454023      -0.20677047       0.29515653
H       -1.43085858       1.25210377      -1.33944744
12
Frame=11 idx=001144 GeodesicLength=1.2511928127201954 rxn_smarts="[O:1]([C:2]([C@@:3]1([H:9])[C:4]([H:10])([H:11])[N:5]1[H:12])([H:7])[H:8])[H:6]>>[H:6][H:7].[O:1]=[C:2]([C@@:3]1([H:9])[C:4]([H:10])([H:11])[N:5]1[H:12])[H:8]"
O        1.84419169       0.66756006       0.19673084
C        1.19471254      -0.38153093      -0.22775129
C       -0.25964343      -0.24890322      -0.59351930
C       -1.27832310       0.15001850       0.39785918
N       -0.75763634       1.12374445      -0.54577842
H        1.45657443       0.15204781       1.44079097
H        1.32367532      -1.02760567       1.35921787
H        1.73819012      -0.92095012      -1.02601318
H       -0.59958574      -0.89972429      -1.39455074
H       -0.96067345       0.30957057       1.41972597
H       -2.28936022      -0.21990197       0.27114905
H       -1.41212183       1.29567481      -1.29786095
12
Frame=12 idx=001144 GeodesicLength=1.3644184686092677 rxn_smarts="[O:1]([C:2]([C@@:3]1([H:9])[C:4]([H:10])([H:11])[N:5]1[H:12])([H:7])[H:8])[H:6]>>[H:6][H:7].[O:1]=[C:2]([C@@:3]1([H:9])[C:4]([H:10])([H:11])[N:5]1[H:12])[H:8]"
O        1.86199726       0.62528993       0.15608364
C        1.18947045      -0.42007500      -0.23953796
C       -0.26020300      -0.24997365      -0.61030683
C       -1.27920312       0.12032279       0.39269094
N       -0.74246201       1.12575675      -0.50714352
H        1.44609973       0.25417152       1.44451213
H        1.32519518      -0.95686424       1.42386228
H        1.71733063      -0.97520356      -1.03796581
H       -0.60645658      -0.86332369      -1.43767273
H       -0.96586217       0.23384444       1.42205469
H       -2.29420408      -0.23146215       0.24706860
H       -1.39170229       1.33751686      -1.25364543
12
Frame=13 idx=001144 GeodesicLength=1.4777716550064817 rxn_smarts="[O:1]([C:2]([C@@:3]1([H:9])[C:4]([H:10])([H:11])[N:5]1[H:12])([H:7])[H:8])[H:6]>>[H:6][H:7].[O:1]=[C:2]([C@@:3]1([H:9])[C:4]([H:10])([H:11])[N:5]1[H:12])[H:8]"
O        1.87725461       0.57828720       0.12383230
C        1.18308054      -0.46072623      -0.25008678
C       -0.26050587      -0.25130401      -0.62644152
C       -1.27966638       0.09103082       0.38703198
N       -0.72619835       1.12527414      -0.46819099
H        1.43647913       0.35851427       1.44169320
H        1.32500652      -0.88241467       1.48462949
H        1.69571648      -1.02577373      -1.05179848
H       -0.61249266      -0.82614330      -1.47855898
H       -0.97050504       0.15807131       1.42169408
H       -2.29847970      -0.24123400       0.22347484
H       -1.36968928       1.37641820      -1.20727915
12
Frame=14 idx=001144 GeodesicLength=1.591155383785019 rxn_smarts="[O:1]([C:2]([C@@:3]1([H:9])[C:4]([H:10])([H:11])[N:5]1[H:12])([H:7])[H:8])[H:6]>>[H:6][H:7].[O:1]=[C:2]([C@@:3]1([H:9])[C:4]([H:10])([H:11])[N:5]1[H:12])[H:8]"
O        1.88968912       0.52738245       0.10145210
C        1.17608150      -0.50289179      -0.25983586
C       -0.26046003      -0.25294005      -0.64168835
C       -1.27970585       0.06299245       0.38132413
N       -0.70947434       1.12246389      -0.43036639
H        1.42815248       0.46266156       1.43297973
H        1.32214499      -0.80682569       1.54097852
H        1.67493194      -1.07048585      -1.06884444
H       -0.61768267      -0.78938488      -1.51624975
H       -0.97434275       0.08467807       1.41915650
H       -2.30220142      -0.24915489       0.20169195
H       -1.34713298       1.41150471      -1.16059815
12
Frame=15 idx=001144 GeodesicLength=1.704482922589975 rxn_smarts="[O:1]([C:2]([C@@:3]1([H:9])[C:4]([H:10])([H:11])[N:5]1[H:12])([H:7])[H:8])[H:6]>>[H:6][H:7].[O:1]=[C:2]([C@@:3]1([H:9])[C:4]([H:10])([H:11])[N:5]1[H:12])[H:8]"
O        1.89883210       0.47328737       0.08945443
C        1.16842243      -0.54622719      -0.26926700
C       -0.26004777      -0.25500606      -0.65584962
C       -1.27906567       0.03646544       0.37576983
N       -0.69239626       1.11747220      -0.39419102
H        1.42174241       0.56558068       1.41863215
H        1.31540379      -0.73146147       1.59297932
H        1.65548760      -1.10807820      -1.08979885
H       -0.62213317      -0.75383289      -1.55027290
H       -0.97704913       0.01482449       1.41468012
H       -2.30497851      -0.25539661       0.18215190
H       -1.32421782       1.44237224      -1.11428837
12
Frame=16 idx=001144 GeodesicLength=1.8178421375786502 rxn_smarts="[O:1]([C:2]([C@@:3]1([H:9])[C:4]([H:10])([H:11])[N:5]1[H:12])([H:7])[H:8])[H:6]>>[H:6][H:7].[O:1]=[C:2]([C@@:3]1([H:9])[C:4]([H:10])([H:11])[N:5]1[H:12])[H:8]"
O        1.90449956       0.41637225       0.08783390
C        1.16017233      -0.59053477      -0.27889084
C       -0.25933119      -0.25759460      -0.66888255
C       -1.27776677       0.01149886       0.37056344
N       -0.67512260       1.11053990      -0.35995416
H        1.41825011       0.66666287       1.39873997
H        1.30402883      -0.65718998       1.64130767
H        1.63803306      -1.13777441      -1.11496737
H       -0.62606090      -0.71992297      -1.58063777
H       -0.97867661      -0.05092255       1.40876666
H       -2.30684369      -0.26020301       0.16505378
H       -1.30118212       1.46906842      -1.06893272
