19
Frame=0 idx=007419 GeodesicLength=0.0 rxn_smarts="[C:1]([C@:2]1([H:11])[C:3]([H:12])([H:13])[C@@:4]([C:5]([H:15])([H:16])[H:17])([H:14])[C:6]([H:18])=[C:7]1[H:19])([H:8])([H:9])[H:10]>>[C:1]([C:2]([C:3]([H:12])([H:13])[H:18])([C:7](=[C:6]=[C:4]([C:5]([H:15])([H:16])[H:17])[H:14])[H:19])[H:11])([H:8])([H:9])[H:10]"
C       -2.43164880      -0.41415946      -0.28435912
C       -1.23575807       0.47382140       0.04297679
C       -0.22013293      -0.18171758       0.96131806
C        1.41328590       0.39034510       0.09957368
C        2.59180116      -0.53232536       0.25007364
C        0.88837439       0.80668419      -1.31152537
C       -0.45099062       0.88260656      -1.25129689
H       -2.09905062      -1.35634555      -0.72754623
H       -3.02391202      -0.64380930       0.60399931
H       -3.08690567       0.07668099      -1.00687119
H       -1.59255911       1.39956808       0.50718225
H       -0.06490367       0.27232078       1.93130307
H       -0.29515586      -1.26697964       1.04244306
H        1.46035403       1.29932538       0.68506209
H        2.45108262      -1.44525683      -0.32970938
H        2.76719201      -0.79589997       1.29406410
H        3.47958399      -0.03076650      -0.13602727
H        0.50680302      -0.20291029      -0.30524472
H       -1.05745973       1.26881798      -2.06541593
19
Frame=1 idx=007419 GeodesicLength=0.15043525948277994 rxn_smarts="[C:1]([C@:2]1([H:11])[C:3]([H:12])([H:13])[C@@:4]([C:5]([H:15])([H:16])[H:17])([H:14])[C:6]([H:18])=[C:7]1[H:19])([H:8])([H:9])[H:10]>>[C:1]([C:2]([C:3]([H:12])([H:13])[H:18])([C:7](=[C:6]=[C:4]([C:5]([H:15])([H:16])[H:17])[H:14])[H:19])[H:11])([H:8])([H:9])[H:10]"
C       -2.44689610      -0.40328808      -0.28641522
C       -1.24314139       0.47318506       0.04305838
C       -0.23042728      -0.19291803       0.95895548
C        1.42091234       0.38370314       0.09998483
C        2.61663256      -0.51853958       0.24870125
C        0.88297733       0.78940006      -1.29761740
C       -0.45449854       0.87987541      -1.24523533
H       -2.12361627      -1.34754926      -0.73226732
H       -3.03882312      -0.63019459       0.60299344
H       -3.09913356       0.09480406      -1.00683201
H       -1.59539258       1.40010903       0.50910651
H       -0.07742357       0.26366932       1.92899479
H       -0.32854019      -1.27499081       1.05667579
H        1.47598242       1.29596421       0.68237759
H        2.49289692      -1.43473849      -0.33015173
H        2.79693657      -0.77974788       1.29269018
H        3.49747364      -0.00474784      -0.13815862
H        0.50587223      -0.25919304      -0.32046864
H       -1.05179140       1.26519733      -2.06639197
19
Frame=2 idx=007419 GeodesicLength=0.3003217757060641 rxn_smarts="[C:1]([C@:2]1([H:11])[C:3]([H:12])([H:13])[C@@:4]([C:5]([H:15])([H:16])[H:17])([H:14])[C:6]([H:18])=[C:7]1[H:19])([H:8])([H:9])[H:10]>>[C:1]([C:2]([C:3]([H:12])([H:13])[H:18])([C:7](=[C:6]=[C:4]([C:5]([H:15])([H:16])[H:17])[H:14])[H:19])[H:11])([H:8])([H:9])[H:10]"
C       -2.46177781      -0.39249261      -0.28856681
C       -1.25038925       0.47243988       0.04333237
C       -0.24040917      -0.20463828       0.95620234
C        1.42907486       0.37830636       0.10091267
C        2.64067253      -0.50454123       0.24741867
C        0.87751467       0.77092885      -1.28348838
C       -0.45775945       0.87722203      -1.23886317
H       -2.14773473      -1.33852752      -0.73744547
H       -3.05329811      -0.61707666       0.60182287
H       -3.11097307       0.11302316      -1.00669703
H       -1.59802560       1.40036700       0.51153076
H       -0.08967670       0.25403221       1.92653523
H       -0.36137265      -1.28287444       1.06991264
H        1.49179969       1.29420070       0.67946494
H        2.53219520      -1.42428661      -0.32921622
H        2.82652612      -0.76239892       1.29151388
H        3.51465465       0.01995558      -0.14155797
H        0.50469415      -0.31519678      -0.33575920
H       -1.04571536       1.26155728      -2.06705213
19
Frame=3 idx=007419 GeodesicLength=0.4497405195182107 rxn_smarts="[C:1]([C@:2]1([H:11])[C:3]([H:12])([H:13])[C@@:4]([C:5]([H:15])([H:16])[H:17])([H:14])[C:6]([H:18])=[C:7]1[H:19])([H:8])([H:9])[H:10]>>[C:1]([C:2]([C:3]([H:12])([H:13])[H:18])([C:7](=[C:6]=[C:4]([C:5]([H:15])([H:16])[H:17])[H:14])[H:19])[H:11])([H:8])([H:9])[H:10]"
C       -2.47632210      -0.38172868      -0.29079111
C       -1.25749044       0.47158041       0.04380899
C       -0.25008474      -0.21692890       0.95305080
C        1.43775281       0.37422584       0.10234346
C        2.66395390      -0.49030088       0.24625940
C        0.87196041       0.75127293      -1.26910105
C       -0.46076720       0.87464765      -1.23218036
H       -2.17147088      -1.32924488      -0.74306530
H       -3.06737060      -0.60439390       0.60051433
H       -3.12243477       0.13140737      -1.00643405
H       -1.60040978       1.40033821       0.51448366
H       -0.10163405       0.24336795       1.92390933
H       -0.39368068      -1.29071154       1.08216211
H        1.50780495       1.29413961       0.67622957
H        2.56912531      -1.41392122      -0.32692634
H        2.85589619      -0.74383511       1.29056329
H        3.53120860       0.04342310      -0.14612558
H        0.50318815      -0.37121621      -0.35130157
H       -1.03922508       1.25787824      -2.06739960
19
Frame=4 idx=007419 GeodesicLength=0.5987524983187638 rxn_smarts="[C:1]([C@:2]1([H:11])[C:3]([H:12])([H:13])[C@@:4]([C:5]([H:15])([H:16])[H:17])([H:14])[C:6]([H:18])=[C:7]1[H:19])([H:8])([H:9])[H:10]>>[C:1]([C:2]([C:3]([H:12])([H:13])[H:18])([C:7](=[C:6]=[C:4]([C:5]([H:15])([H:16])[H:17])[H:14])[H:19])[H:11])([H:8])([H:9])[H:10]"
C       -2.49054687      -0.37095693      -0.29306650
C       -1.26442813       0.47059726       0.04450058
C       -0.25944963      -0.22984552       0.94948350
C        1.44692738       0.37155532       0.10426135
C        2.68648994      -0.47578857       0.24526183
C        0.86628856       0.73042628      -1.25440750
C       -0.46350994       0.87215697      -1.22518223
H       -2.19487690      -1.31966423      -0.74912002
H       -3.08106014      -0.59209978       0.59909261
H       -3.13352102       0.15002282      -1.00600682
H       -1.60249436       1.40000902       0.51800228
H       -0.11325410       0.23161976       1.92109673
H       -0.42547632      -1.29858552       1.09341628
H        1.52401036       1.29590927       0.67256338
H        2.60377578      -1.40366330      -0.32325878
H        2.88498025      -0.72401684       1.28987191
H        3.54719491       0.06569678      -0.15178457
H        0.50125752      -0.42751386      -0.36728940
H       -1.03230728       1.25414107      -2.06743461
19
Frame=5 idx=007419 GeodesicLength=0.7474029592709519 rxn_smarts="[C:1]([C@:2]1([H:11])[C:3]([H:12])([H:13])[C@@:4]([C:5]([H:15])([H:16])[H:17])([H:14])[C:6]([H:18])=[C:7]1[H:19])([H:8])([H:9])[H:10]>>[C:1]([C:2]([C:3]([H:12])([H:13])[H:18])([C:7](=[C:6]=[C:4]([C:5]([H:15])([H:16])[H:17])[H:14])[H:19])[H:11])([H:8])([H:9])[H:10]"
C       -2.50446121      -0.36014055      -0.29537061
C       -1.27117856       0.46947627       0.04542185
C       -0.26848848      -0.24345354       0.94547156
C        1.45658079       0.37041316       0.10664558
C        2.70827569      -0.46097121       0.24447282
C        0.86047310       0.70837684      -1.23934840
C       -0.46596961       0.86975756      -1.21786078
H       -2.21799702      -1.30974480      -0.75561116
H       -3.09437305      -0.58015977       0.59758336
H       -3.14422715       0.16893761      -1.00537127
H       -1.60422168       1.39935552       0.52213442
H       -0.12448005       0.21870969       1.91807003
H       -0.45675535      -1.30658808       1.10364702
H        1.54043712       1.29966317       0.66833896
H        2.63617837      -1.39353779      -0.31813546
H        2.91370862      -0.70287339       1.28948331
H        3.56265477       0.08678159      -0.15847952
H        0.49878570      -0.48432924      -0.38393686
H       -1.02494201       1.25032698      -2.06715486
19
Frame=6 idx=007419 GeodesicLength=0.8957272759655234 rxn_smarts="[C:1]([C@:2]1([H:11])[C:3]([H:12])([H:13])[C@@:4]([C:5]([H:15])([H:16])[H:17])([H:14])[C:6]([H:18])=[C:7]1[H:19])([H:8])([H:9])[H:10]>>[C:1]([C:2]([C:3]([H:12])([H:13])[H:18])([C:7](=[C:6]=[C:4]([C:5]([H:15])([H:16])[H:17])[H:14])[H:19])[H:11])([H:8])([H:9])[H:10]"
C       -2.51806504      -0.34924496      -0.29767877
C       -1.27771006       0.46819791       0.04659072
C       -0.27717345      -0.25782893       0.94097470
C        1.46669644       0.37094828       0.10946681
C        2.72928670      -0.44581325       0.24395021
C        0.85448863       0.68510984      -1.22385426
C       -0.46812212       0.86745958      -1.21020382
H       -2.24086756      -1.29944060      -0.76254799
H       -3.10730120      -0.56855260       0.59601449
H       -3.15454175       0.18822261      -1.00447256
H       -1.60552536       1.39834191       0.52693961
H       -0.13523566       0.20453827       1.91479417
H       -0.48749609      -1.31482195       1.11280526
H        1.55711548       1.30558708       0.66340184
H        2.66630962      -1.38357637      -0.31142174
H        2.94200006      -0.68030348       1.28945506
H        3.57761363       0.10664260      -0.16617051
H        0.49563132      -0.54188334      -0.40148928
H       -1.01710359       1.24641740      -2.06655393
19
Frame=7 idx=007419 GeodesicLength=1.0437514100135532 rxn_smarts="[C:1]([C@:2]1([H:11])[C:3]([H:12])([H:13])[C@@:4]([C:5]([H:15])([H:16])[H:17])([H:14])[C:6]([H:18])=[C:7]1[H:19])([H:8])([H:9])[H:10]>>[C:1]([C:2]([C:3]([H:12])([H:13])[H:18])([C:7](=[C:6]=[C:4]([C:5]([H:15])([H:16])[H:17])[H:14])[H:19])[H:11])([H:8])([H:9])[H:10]"
C       -2.53135200      -0.33823256      -0.29995929
C       -1.28397977       0.46673484       0.04802804
C       -0.28546250      -0.27306816       0.93593500
C        1.47725723       0.37334138       0.11268178
C        2.74947964      -0.43027066       0.24376920
C        0.84831139       0.66060806      -1.20784478
C       -0.46993585       0.86527097      -1.20219932
H       -2.26352774      -1.28869638      -0.76994523
H       -3.11982275      -0.55726233       0.59442345
H       -3.16444890       0.20796185      -1.00323625
H       -1.60631962       1.39691947       0.53249225
H       -0.14542014       0.18896959       1.91122202
H       -0.51765806      -1.32341198       1.12081063
H        1.57408042       1.31389945       0.65756128
H        2.69409314      -1.37381417      -0.30291134
H        2.96975837      -0.65616087       1.28986470
H        3.59208332       0.12520770      -0.17482584
H        0.49162386      -0.60038362      -0.42024049
H       -1.00876005       1.24238743      -2.06562585
19
Frame=8 idx=007419 GeodesicLength=1.1914951186822977 rxn_smarts="[C:1]([C@:2]1([H:11])[C:3]([H:12])([H:13])[C@@:4]([C:5]([H:15])([H:16])[H:17])([H:14])[C:6]([H:18])=[C:7]1[H:19])([H:8])([H:9])[H:10]>>[C:1]([C:2]([C:3]([H:12])([H:13])[H:18])([C:7](=[C:6]=[C:4]([C:5]([H:15])([H:16])[H:17])[H:14])[H:19])[H:11])([H:8])([H:9])[H:10]"
C       -2.54431001      -0.32705992      -0.30216921
C       -1.28993075       0.46504943       0.04975796
C       -0.29329697      -0.28929502       0.93027272
C        1.48824491       0.37780971       0.11622689
C        2.76879030      -0.41428840       0.24402839
C        0.84192245       0.63485485      -1.19123069
C       -0.47137101       0.86319346      -1.19383787
H       -2.28602520      -1.27744405      -0.77782098
H       -3.13190079      -0.54627601       0.59286283
H       -3.17392892       0.22825904      -1.00156015
H       -1.60649169       1.39502366       0.53888383
H       -0.15490188       0.17182109       1.90729082
H       -0.54718040      -1.33251425       1.12754385
H        1.59137060       1.32485682       0.65057848
H        2.71939746      -1.36429020      -0.29230991
H        2.99686613      -0.63024221       1.29081598
H        3.60606219       0.14236268      -0.18441582
H        0.48655750      -0.66002403      -0.44055046
H       -0.99987391       1.23820335      -2.06436666
19
Frame=9 idx=007419 GeodesicLength=1.3389732230874287 rxn_smarts="[C:1]([C@:2]1([H:11])[C:3]([H:12])([H:13])[C@@:4]([C:5]([H:15])([H:16])[H:17])([H:14])[C:6]([H:18])=[C:7]1[H:19])([H:8])([H:9])[H:10]>>[C:1]([C:2]([C:3]([H:12])([H:13])[H:18])([C:7](=[C:6]=[C:4]([C:5]([H:15])([H:16])[H:17])[H:14])[H:19])[H:11])([H:8])([H:9])[H:10]"
C       -2.55691875      -0.31567583      -0.30425201
C       -1.29548842       0.46309191       0.05180914
C       -0.30059882      -0.30666127       0.92388213
C        1.49963458       0.38461455       0.12001102
C        2.78713111      -0.39780049       0.24485672
C        0.83530369       0.60783662      -1.17391132
C       -0.47238064       0.86121761      -1.18510932
H       -2.30841761      -1.26559746      -0.78619558
H       -3.14347773      -0.53558058       0.59140182
H       -3.18295513       0.24923760      -0.99930968
H       -1.60589366       1.39256916       0.54622561
H       -0.16351040       0.15286194       1.90291740
H       -0.57597777      -1.34231788       1.13284311
H        1.60902814       1.33875862       0.64215157
H        2.74202887      -1.35504013      -0.27922949
H        3.02317823      -0.60228975       1.29244934
H        3.61953606       0.15794338      -0.19490157
H        0.48018237      -0.72097752      -0.46286920
H       -0.99040411       1.23380954      -2.06276969
19
Frame=10 idx=007419 GeodesicLength=1.4861953548937619 rxn_smarts="[C:1]([C@:2]1([H:11])[C:3]([H:12])([H:13])[C@@:4]([C:5]([H:15])([H:16])[H:17])([H:14])[C:6]([H:18])=[C:7]1[H:19])([H:8])([H:9])[H:10]>>[C:1]([C:2]([C:3]([H:12])([H:13])[H:18])([C:7](=[C:6]=[C:4]([C:5]([H:15])([H:16])[H:17])[H:14])[H:19])[H:11])([H:8])([H:9])[H:10]"
C       -2.56914961      -0.30402291      -0.30613137
C       -1.30055856       0.46079866       0.05421678
C       -0.30727006      -0.32535876       0.91662952
C        1.51140025       0.39405437       0.12390768
C        2.80438294      -0.38072467       0.24641709
C        0.82845595       0.57955791      -1.15577555
C       -0.47290430       0.85932846      -1.17601053
H       -2.33077139      -1.25305474      -0.79508926
H       -3.15447754      -0.52517267       0.59013458
H       -3.19149414       0.27104805      -0.99630790
H       -1.60434257       1.38944967       0.55465429
H       -0.17102891       0.13179635       1.89799606
H       -0.60394182      -1.35306048       1.13649692
H        1.62710673       1.35594087       0.63190211
H        2.76171155      -1.34610463      -0.26313365
H        3.04851815      -0.57194474       1.29493137
H        3.63246847       0.17171278      -0.20624687
H        0.47219607      -0.78338585      -0.48775333
H       -0.98030120       1.22914234      -2.06083793
19
Frame=11 idx=007419 GeodesicLength=1.633174460558946 rxn_smarts="[C:1]([C@:2]1([H:11])[C:3]([H:12])([H:13])[C@@:4]([C:5]([H:15])([H:16])[H:17])([H:14])[C:6]([H:18])=[C:7]1[H:19])([H:8])([H:9])[H:10]>>[C:1]([C:2]([C:3]([H:12])([H:13])[H:18])([C:7](=[C:6]=[C:4]([C:5]([H:15])([H:16])[H:17])[H:14])[H:19])[H:11])([H:8])([H:9])[H:10]"
C       -2.58096321      -0.29203232      -0.30770388
C       -1.30502084       0.45808745       0.05702224
C       -0.31318804      -0.34561923       0.90834195
C        1.52350359       0.40647135       0.12773892
C        2.82039458      -0.36296327       0.24892219
C        0.82138972       0.55003599      -1.13670607
C       -0.47287346       0.85748890      -1.16654293
H       -2.35317187      -1.23968830      -0.80451353
H       -3.16479562      -0.51504535       0.58918780
H       -3.19950272       0.29386789      -0.99232276
H       -1.60160127       1.38552825       0.56433169
H       -0.17717993       0.10826307       1.89238464
H       -0.63093366      -1.36502782       1.13823530
H        1.64566718       1.37677862       0.61934439
H        2.77809250      -1.33750330      -0.24334422
H        3.07266137      -0.53876967       1.29847904
H        3.64480609       0.18336027      -0.21837238
H        0.46223175      -0.84733884      -0.51590900
H       -0.96951616       1.22410628      -2.05857338
19
Frame=12 idx=007419 GeodesicLength=1.7799332413455782 rxn_smarts="[C:1]([C@:2]1([H:11])[C:3]([H:12])([H:13])[C@@:4]([C:5]([H:15])([H:16])[H:17])([H:14])[C:6]([H:18])=[C:7]1[H:19])([H:8])([H:9])[H:10]>>[C:1]([C:2]([C:3]([H:12])([H:13])[H:18])([C:7](=[C:6]=[C:4]([C:5]([H:15])([H:16])[H:17])[H:14])[H:19])[H:11])([H:8])([H:9])[H:10]"
C       -2.59231024      -0.27962216      -0.30882753
C       -1.30872438       0.45485308       0.06027303
C       -0.31820616      -0.36772638       0.89880020
C        1.53589391       0.42223565       0.13125722
C        2.83497817      -0.34439776       0.25264623
C        0.81413992       0.51930646      -1.11658908
C       -0.47220872       0.85563329      -1.15672390
H       -2.37573183      -1.22534425      -0.81445943
H       -3.17429851      -0.50518661       0.58873602
H       -3.20692788       0.31790898      -0.98705045
H       -1.59736797       1.38063444       0.57544601
H       -0.18161454       0.08182001       1.88589499
H       -0.65678680      -1.37856778       1.13772041
H        1.66478130       1.40166692       0.60385555
H        2.79073582      -1.32922007      -0.21899900
H        3.09532559      -0.50221875       1.30335841
H        3.65647379       0.19248984      -0.23113192
H        0.44985010      -0.91284581      -0.54822048
H       -0.95800158       1.21858090      -2.05598629
19
Frame=13 idx=007419 GeodesicLength=1.9265015388443254 rxn_smarts="[C:1]([C@:2]1([H:11])[C:3]([H:12])([H:13])[C@@:4]([C:5]([H:15])([H:16])[H:17])([H:14])[C:6]([H:18])=[C:7]1[H:19])([H:8])([H:9])[H:10]>>[C:1]([C:2]([C:3]([H:12])([H:13])[H:18])([C:7](=[C:6]=[C:4]([C:5]([H:15])([H:16])[H:17])[H:14])[H:19])[H:11])([H:8])([H:9])[H:10]"
C       -2.60312642      -0.26669912      -0.30931383
C       -1.31148585       0.45096450       0.06402213
C       -0.32215682      -0.39200592       0.88773733
C        1.54850114       0.44171939       0.13412652
C        2.84790716      -0.32489339       0.25793364
C        0.80676949       0.48742492      -1.09532121
C       -0.47082533       0.85365382      -1.14658586
H       -2.39858751      -1.20983875      -0.82487908
H       -3.18281688      -0.49557555       0.58900548
H       -3.21370155       0.34340591      -0.98010744
H       -1.59127381       1.37455605       0.58820127
H       -0.18390138       0.05196034       1.87827822
H       -0.68130781      -1.39407607       1.13455224
H        1.68453602       1.43098229       0.58463907
H        2.79913574      -1.32116094      -0.18906056
H        3.11614975      -0.46166440       1.30987703
H        3.66737149       0.19861615      -0.24425145
H        0.43453527      -0.97978167      -0.58576675
H       -0.94572269       1.21241241      -2.05308678
19
Frame=14 idx=007419 GeodesicLength=2.0729413011790347 rxn_smarts="[C:1]([C@:2]1([H:11])[C:3]([H:12])([H:13])[C@@:4]([C:5]([H:15])([H:16])[H:17])([H:14])[C:6]([H:18])=[C:7]1[H:19])([H:8])([H:9])[H:10]>>[C:1]([C:2]([C:3]([H:12])([H:13])[H:18])([C:7](=[C:6]=[C:4]([C:5]([H:15])([H:16])[H:17])[H:14])[H:19])[H:11])([H:8])([H:9])[H:10]"
C       -2.61333180      -0.25316578      -0.30892298
C       -1.31309058       0.44626414       0.06833002
C       -0.32486761      -0.41882543       0.87484490
C        1.56123037       0.46524466       0.13590169
C        2.85891959      -0.30430038       0.26520476
C        0.79937879       0.45447448      -1.07282673
C       -0.46863268       0.85140163      -1.13618490
H       -2.42189931      -1.19296935      -0.83567736
H       -3.19015054      -0.48618942       0.59028136
H       -3.21973399       0.37060799      -0.97102851
H       -1.58288339       1.36704208       0.60281864
H       -0.18353077       0.01812174       1.86922683
H       -0.70429611      -1.41199726       1.12828285
H        1.70504307       1.46501974       0.56069408
H        2.80271480      -1.31312984      -0.15229476
H        3.13471215      -0.41637040       1.31837997
H        3.67737001       0.20115443      -0.25731192
H        0.41570580      -1.04781978      -0.62982630
H       -0.93265780       1.20543674      -2.04989165
19
Frame=15 idx=007419 GeodesicLength=2.219362577780236 rxn_smarts="[C:1]([C@:2]1([H:11])[C:3]([H:12])([H:13])[C@@:4]([C:5]([H:15])([H:16])[H:17])([H:14])[C:6]([H:18])=[C:7]1[H:19])([H:8])([H:9])[H:10]>>[C:1]([C:2]([C:3]([H:12])([H:13])[H:18])([C:7](=[C:6]=[C:4]([C:5]([H:15])([H:16])[H:17])[H:14])[H:19])[H:11])([H:8])([H:9])[H:10]"
C       -2.62282547      -0.23893452      -0.30736774
C       -1.31330550       0.44057340       0.07326373
C       -0.32619027      -0.44855984       0.85980202
C        1.57395863       0.49300011       0.13601362
C        2.86773062      -0.28246874       0.27494075
C        0.79210767       0.42056839      -1.04907417
C       -0.46554387       0.84868229      -1.12559689
H       -2.44582798      -1.17453102      -0.84669022
H       -3.19607547      -0.47700743       0.59289606
H       -3.22490326       0.39974326      -0.95928962
H       -1.57172664       1.35780887       0.61951127
H       -0.17994249      -0.02025241       1.85838369
H       -0.72557245      -1.43278322       1.11846960
H        1.72645108       1.50388080       0.53079359
H        2.80088264      -1.30476287      -0.10735827
H        3.15052731      -0.36556151       1.32920346
H        3.68631241       0.19944854      -0.26967439
H        0.39275228      -1.11634457      -0.68181448
H       -0.91880922       1.19750047      -2.04641202
19
Frame=16 idx=007419 GeodesicLength=2.3659406588012724 rxn_smarts="[C:1]([C@:2]1([H:11])[C:3]([H:12])([H:13])[C@@:4]([C:5]([H:15])([H:16])[H:17])([H:14])[C:6]([H:18])=[C:7]1[H:19])([H:8])([H:9])[H:10]>>[C:1]([C:2]([C:3]([H:12])([H:13])[H:18])([C:7](=[C:6]=[C:4]([C:5]([H:15])([H:16])[H:17])[H:14])[H:19])[H:11])([H:8])([H:9])[H:10]"
C       -2.63148467      -0.22395405      -0.30433262
C       -1.31190675       0.43370536       0.07889529
C       -0.32604746      -0.48153158       0.84232111
C        1.58654301       0.52493052       0.13377319
C        2.87406068      -0.25927068       0.28764492
C        0.78512868       0.38585643      -1.02408931
C       -0.46148795       0.84526737      -1.11490136
H       -2.47049711      -1.15434469      -0.85767405
H       -3.20036677      -0.46803014       0.59719427
H       -3.22904847       0.43095944      -0.94435342
H       -1.55736248       1.34655323       0.63845126
H       -0.17259020      -0.06361590       1.84536312
H       -0.74502805      -1.45682010       1.10475490
H        1.74896632       1.54731618       0.49350521
H        2.79311862      -1.29546932      -0.05294673
H        3.16307571      -0.30851513       1.34260469
H        3.69402903       0.19281803      -0.28043168
H        0.36510881      -1.18435529      -0.74314958
H       -0.90421095       1.18850032      -2.04262920
