12
Frame=0 idx=011804 GeodesicLength=0.0 rxn_smarts="[N:1]#[C:2][C@@:3]1([H:8])[O:4][C@@:5]2([H:9])[C:6]([H:10])([H:11])[C@@:7]12[H:12]>>[N+:1](#[C-:2])[C@@:3]1([H:8])[O:4][C@@:5]2([H:9])[C:6]([H:10])([H:11])[C@@:7]12[H:12]"
N        2.64956695       0.34383639       0.43909834
C        1.91988285       1.05383393      -0.16084925
C        0.93912147      -0.43274063       0.26241517
O        0.16709854      -0.16697631       1.39336564
C       -1.01917345      -0.30601009       0.59654893
C       -1.10071888       0.77069487      -0.41004152
C       -0.23028520      -0.41975468      -0.68848816
H        1.47315971      -1.37510580       0.30665119
H       -1.82003695      -0.90912533       0.99893760
H       -2.01565453       0.79009584      -0.98850220
H       -0.63407581       1.72905938      -0.21223534
H       -0.32888470      -1.07780753      -1.53690039
12
Frame=1 idx=011804 GeodesicLength=0.04553395247315812 rxn_smarts="[N:1]#[C:2][C@@:3]1([H:8])[O:4][C@@:5]2([H:9])[C:6]([H:10])([H:11])[C@@:7]12[H:12]>>[N+:1](#[C-:2])[C@@:3]1([H:8])[O:4][C@@:5]2([H:9])[C:6]([H:10])([H:11])[C@@:7]12[H:12]"
N        2.67185392       0.31823351       0.38307476
C        1.92235592       1.07948204      -0.11557396
C        0.94255708      -0.42589263       0.26638008
O        0.16196262      -0.16208699       1.39522090
C       -1.02064336      -0.30658377       0.59477498
C       -1.10315458       0.76885445      -0.41342629
C       -0.22644933      -0.41826305      -0.68665777
H        1.45870087      -1.37901271       0.32146661
H       -1.82161763      -0.91050349       0.99575574
H       -2.01570307       0.78349435      -0.99586793
H       -0.64665523       1.73111547      -0.21161794
H       -0.32320721      -1.07883719      -1.53352920
12
Frame=2 idx=011804 GeodesicLength=0.09031019542495772 rxn_smarts="[N:1]#[C:2][C@@:3]1([H:8])[O:4][C@@:5]2([H:9])[C:6]([H:10])([H:11])[C@@:7]12[H:12]>>[N+:1](#[C-:2])[C@@:3]1([H:8])[O:4][C@@:5]2([H:9])[C:6]([H:10])([H:11])[C@@:7]12[H:12]"
N        2.68935498       0.29631459       0.32133035
C        1.92624778       1.10260619      -0.06724737
C        0.94568978      -0.41967150       0.27121882
O        0.15606993      -0.15841304       1.39769539
C       -1.02250204      -0.30732080       0.59299916
C       -1.10469279       0.76710754      -0.41662797
C       -0.22253270      -0.41729084      -0.68440428
H        1.44567926      -1.38202540       0.33711934
H       -1.82418757      -0.91161953       0.99199489
H       -2.01455845       0.77780880      -1.00340542
H       -0.65736092       1.73267359      -0.21079131
H       -0.31720727      -1.08016960      -1.52988159
12
Frame=3 idx=011804 GeodesicLength=0.13445506507171348 rxn_smarts="[N:1]#[C:2][C@@:3]1([H:8])[O:4][C@@:5]2([H:9])[C:6]([H:10])([H:11])[C@@:7]12[H:12]>>[N+:1](#[C-:2])[C@@:3]1([H:8])[O:4][C@@:5]2([H:9])[C:6]([H:10])([H:11])[C@@:7]12[H:12]"
N        2.70131610       0.27887738       0.25464930
C        1.93198401       1.12263785      -0.01626406
C        0.94848423      -0.41411669       0.27685425
O        0.14945484      -0.15605705       1.40079093
C       -1.02476116      -0.30821797       0.59126131
C       -1.10529809       0.76548558      -0.41965862
C       -0.21862994      -0.41697556      -0.68175320
H        1.43445266      -1.38414800       0.35328338
H       -1.82779485      -0.91238064       0.98777762
H       -2.01222543       0.77315913      -1.01108269
H       -0.66591272       1.73374485      -0.20989419
H       -0.31106964      -1.08200888      -1.52596403
12
Frame=4 idx=011804 GeodesicLength=0.17789026410411923 rxn_smarts="[N:1]#[C:2][C@@:3]1([H:8])[O:4][C@@:5]2([H:9])[C:6]([H:10])([H:11])[C@@:7]12[H:12]>>[N+:1](#[C-:2])[C@@:3]1([H:8])[O:4][C@@:5]2([H:9])[C:6]([H:10])([H:11])[C@@:7]12[H:12]"
N        2.70713939       0.26676595       0.18504490
C        1.94005303       1.13886442       0.03609054
C        0.95091064      -0.40923290       0.28303114
O        0.14227151      -0.15498142       1.40430294
C       -1.02738738      -0.30926058       0.58956946
C       -1.10496878       0.76394637      -0.42247815
C       -0.21491360      -0.41742307      -0.67873847
H        1.42523293      -1.38536502       0.36947253
H       -1.83237486      -0.91271876       0.98320427
H       -2.00880289       0.76957451      -1.01867463
H       -0.67205132       1.73421488      -0.20903487
H       -0.30510868      -1.08438438      -1.52178965
12
Frame=5 idx=011804 GeodesicLength=0.2211770617643991 rxn_smarts="[N:1]#[C:2][C@@:3]1([H:8])[O:4][C@@:5]2([H:9])[C:6]([H:10])([H:11])[C@@:7]12[H:12]>>[N+:1](#[C-:2])[C@@:3]1([H:8])[O:4][C@@:5]2([H:9])[C:6]([H:10])([H:11])[C@@:7]12[H:12]"
N        2.70662876       0.26036512       0.11365478
C        1.95069412       1.15105273       0.08943549
C        0.95299334      -0.40500984       0.28954830
O        0.13468241      -0.15513232       1.40814093
C       -1.03032644      -0.31039567       0.58796466
C       -1.10376618       0.76249068      -0.42513879
C       -0.21148387      -0.41871820      -0.67543753
H        1.41811366      -1.38579784       0.38533045
H       -1.83784855      -0.91251679       0.97845975
H       -2.00440577       0.76702723      -1.02618487
H       -0.67574262       1.73412406      -0.20839460
H       -0.29953885      -1.08748917      -1.51737857
12
Frame=6 idx=011804 GeodesicLength=0.26505809851983864 rxn_smarts="[N:1]#[C:2][C@@:3]1([H:8])[O:4][C@@:5]2([H:9])[C:6]([H:10])([H:11])[C@@:7]12[H:12]>>[N+:1](#[C-:2])[C@@:3]1([H:8])[O:4][C@@:5]2([H:9])[C:6]([H:10])([H:11])[C@@:7]12[H:12]"
N        2.69964723       0.26003650       0.04124847
C        1.96409357       1.15904643       0.14372476
C        0.95475789      -0.40143160       0.29621093
O        0.12683025      -0.15648246       1.41220511
C       -1.03352964      -0.31156005       0.58647621
C       -1.10172857       0.76110033      -0.42770990
C       -0.20842133      -0.42094279      -0.67191412
H        1.41312184      -1.38555236       0.40056055
H       -1.84417043      -0.91161031       0.97372093
H       -1.99909874       0.76544781      -1.03365424
H       -0.67694569       1.73348950      -0.20817716
H       -0.29455638      -1.09154101      -1.51269154
12
Frame=7 idx=011804 GeodesicLength=0.3101581542922724 rxn_smarts="[N:1]#[C:2][C@@:3]1([H:8])[O:4][C@@:5]2([H:9])[C:6]([H:10])([H:11])[C@@:7]12[H:12]>>[N+:1](#[C-:2])[C@@:3]1([H:8])[O:4][C@@:5]2([H:9])[C:6]([H:10])([H:11])[C@@:7]12[H:12]"
N        2.68600774       0.26637037      -0.03121201
C        1.98030092       1.16267114       0.19887551
C        0.95625372      -0.39853733       0.30276851
O        0.11893125      -0.15911680       1.41634398
C       -1.03692585      -0.31266343       0.58510652
C       -1.09880447       0.75971225      -0.43026473
C       -0.20584869      -0.42425271      -0.66822581
H        1.41036313      -1.38471634       0.41474798
H       -1.85137537      -0.90963003       0.96915558
H       -1.99285956       0.76478192      -1.04111916
H       -0.67553193       1.73225155      -0.20854424
H       -0.29051088      -1.09687060      -1.50763213
12
Frame=8 idx=011804 GeodesicLength=0.3571714350760894 rxn_smarts="[N:1]#[C:2][C@@:3]1([H:8])[O:4][C@@:5]2([H:9])[C:6]([H:10])([H:11])[C@@:7]12[H:12]>>[N+:1](#[C-:2])[C@@:3]1([H:8])[O:4][C@@:5]2([H:9])[C:6]([H:10])([H:11])[C@@:7]12[H:12]"
N        2.66575808       0.27954982      -0.10257434
C        1.99972102       1.16159368       0.25424480
C        0.95744246      -0.39622391       0.30903938
O        0.11105061      -0.16272258       1.42045503
C       -1.04047385      -0.31367292       0.58392395
C       -1.09514660       0.75833189      -0.43283837
C       -0.20381652      -0.42858832      -0.66443444
H        1.40948789      -1.38339870       0.42777518
H       -1.85919122      -0.90680996       0.96490505
H       -1.98587036       0.76486763      -1.04850570
H       -0.67157704       1.73044877      -0.20973395
H       -0.28738446      -1.10337539      -1.50225658
12
Frame=9 idx=011804 GeodesicLength=0.4055973403284883 rxn_smarts="[N:1]#[C:2][C@@:3]1([H:8])[O:4][C@@:5]2([H:9])[C:6]([H:10])([H:11])[C@@:7]12[H:12]>>[N+:1](#[C-:2])[C@@:3]1([H:8])[O:4][C@@:5]2([H:9])[C:6]([H:10])([H:11])[C@@:7]12[H:12]"
N        2.63953415       0.29999177      -0.17029505
C        2.02181044       1.15587829       0.30891659
C        0.95852298      -0.39461845       0.31452079
O        0.10372651      -0.16742300       1.42419391
C       -1.04396110      -0.31444236       0.58286085
C       -1.09072639       0.75683653      -0.43554450
C       -0.20250782      -0.43409206      -0.66071378
H        1.41057860      -1.38180359       0.43888049
H       -1.86756540      -0.90245322       0.96126847
H       -1.97829025       0.76561789      -1.05574302
H       -0.66519803       1.72797013      -0.21183928
H       -0.28592368      -1.11146192      -1.49650547
12
Frame=10 idx=011804 GeodesicLength=0.45581500154888177 rxn_smarts="[N:1]#[C:2][C@@:3]1([H:8])[O:4][C@@:5]2([H:9])[C:6]([H:10])([H:11])[C@@:7]12[H:12]>>[N+:1](#[C-:2])[C@@:3]1([H:8])[O:4][C@@:5]2([H:9])[C:6]([H:10])([H:11])[C@@:7]12[H:12]"
N        2.60796781       0.32707591      -0.23346138
C        2.04692231       1.14549268       0.36173495
C        0.95943895      -0.39354952       0.31923104
O        0.09686245      -0.17256092       1.42758965
C       -1.04738468      -0.31499817       0.58201285
C       -1.08583551       0.75529231      -0.43836966
C       -0.20183842      -0.44050915      -0.65710270
H        1.41287811      -1.38013877       0.44840151
H       -1.87605891      -0.89728628       0.95824671
H       -1.97040548       0.76680209      -1.06275972
H       -0.65686278       1.72501383      -0.21490761
H       -0.28568385      -1.12063400      -1.49061565
12
Frame=11 idx=011804 GeodesicLength=0.5071528405126039 rxn_smarts="[N:1]#[C:2][C@@:3]1([H:8])[O:4][C@@:5]2([H:9])[C:6]([H:10])([H:11])[C@@:7]12[H:12]>>[N+:1](#[C-:2])[C@@:3]1([H:8])[O:4][C@@:5]2([H:9])[C:6]([H:10])([H:11])[C@@:7]12[H:12]"
N        2.57207107       0.36070493      -0.29023662
C        2.07421183       1.13090127       0.41185325
C        0.96039226      -0.39314169       0.32283637
O        0.09083147      -0.17823939       1.43043771
C       -1.05057956      -0.31525829       0.58131818
C       -1.08044033       0.75361418      -0.44141936
C       -0.20184163      -0.44788020      -0.65375174
H        1.41635141      -1.37867365       0.45587131
H       -1.88468876      -0.89075216       0.95610544
H       -1.96231889       0.76833318      -1.06953032
H       -0.64684750       1.72157276      -0.21892439
H       -0.28714136      -1.13118093      -1.48455982
12
Frame=12 idx=011804 GeodesicLength=0.5601768679055922 rxn_smarts="[N:1]#[C:2][C@@:3]1([H:8])[O:4][C@@:5]2([H:9])[C:6]([H:10])([H:11])[C@@:7]12[H:12]>>[N+:1](#[C-:2])[C@@:3]1([H:8])[O:4][C@@:5]2([H:9])[C:6]([H:10])([H:11])[C@@:7]12[H:12]"
N        2.53190383       0.40015426      -0.34098379
C        2.10418007       1.11199500       0.45878025
C        0.96129556      -0.39320298       0.32564180
O        0.08544027      -0.18381801       1.43285648
C       -1.05355923      -0.31523885       0.58080279
C       -1.07476520       0.75182562      -0.44465821
C       -0.20238372      -0.45591930      -0.65055147
H        1.42031945      -1.37743747       0.46197702
H       -1.89304640      -0.88357631       0.95454411
H       -1.95416554       0.76997000      -1.07611548
H       -0.63556467       1.71770903      -0.22383183
H       -0.28965441      -1.14246098      -1.47846166
12
Frame=13 idx=011804 GeodesicLength=0.6143674106377809 rxn_smarts="[N:1]#[C:2][C@@:3]1([H:8])[O:4][C@@:5]2([H:9])[C:6]([H:10])([H:11])[C@@:7]12[H:12]>>[N+:1](#[C-:2])[C@@:3]1([H:8])[O:4][C@@:5]2([H:9])[C:6]([H:10])([H:11])[C@@:7]12[H:12]"
N        2.48814963       0.44557330      -0.38446773
C        2.13584735       1.08921829       0.50220349
C        0.96233995      -0.39391789       0.32734887
O        0.08099086      -0.18961867       1.43466377
C       -1.05615348      -0.31487238       0.58038324
C       -1.06867385       0.74985944      -0.44822653
C       -0.20342964      -0.46468996      -0.64763448
H        1.42488792      -1.37667659       0.46625286
H       -1.90122050      -0.87505218       0.95388881
H       -1.94591952       0.77168945      -1.08252628
H       -0.62310167       1.71341166      -0.22975858
H       -0.29371705      -1.15492448      -1.47212744
12
Frame=14 idx=011804 GeodesicLength=0.6701893802402277 rxn_smarts="[N:1]#[C:2][C@@:3]1([H:8])[O:4][C@@:5]2([H:9])[C:6]([H:10])([H:11])[C@@:7]12[H:12]>>[N+:1](#[C-:2])[C@@:3]1([H:8])[O:4][C@@:5]2([H:9])[C:6]([H:10])([H:11])[C@@:7]12[H:12]"
N        2.44094099       0.49613731      -0.42076167
C        2.16962942       1.06272282       0.54121925
C        0.96348556      -0.39516925       0.32827881
O        0.07726850      -0.19504721       1.43604525
C       -1.05842609      -0.31420724       0.58009264
C       -1.06234622       0.74775449      -0.45205436
C       -0.20482788      -0.47394806      -0.64492150
H        1.42949690      -1.37651197       0.46937522
H       -1.90898311      -0.86588713       0.95383630
H       -1.93768397       0.77332009      -1.08881531
H       -0.60986817       1.70881598      -0.23649182
H       -0.29868594      -1.16797983      -1.46580283
12
Frame=15 idx=011804 GeodesicLength=0.7279329151771624 rxn_smarts="[N:1]#[C:2][C@@:3]1([H:8])[O:4][C@@:5]2([H:9])[C:6]([H:10])([H:11])[C@@:7]12[H:12]>>[N+:1](#[C-:2])[C@@:3]1([H:8])[O:4][C@@:5]2([H:9])[C:6]([H:10])([H:11])[C@@:7]12[H:12]"
N        2.39026855       0.55174744      -0.44937876
C        2.20531987       1.03268451       0.57536670
C        0.96479369      -0.39701238       0.32845730
O        0.07431785      -0.20007761       1.43700268
C       -1.06030870      -0.31322794       0.57989335
C       -1.05574275       0.74549193      -0.45619360
C       -0.20648987      -0.48364065      -0.64242008
H        1.43403196      -1.37707463       0.47143138
H       -1.91628778      -0.85598899       0.95438906
H       -1.92941449       0.77480450      -1.09505029
H       -0.59595772       1.70393410      -0.24406782
H       -0.30453062      -1.18164028      -1.45942992
12
Frame=16 idx=011804 GeodesicLength=0.7879445824637203 rxn_smarts="[N:1]#[C:2][C@@:3]1([H:8])[O:4][C@@:5]2([H:9])[C:6]([H:10])([H:11])[C@@:7]12[H:12]>>[N+:1](#[C-:2])[C@@:3]1([H:8])[O:4][C@@:5]2([H:9])[C:6]([H:10])([H:11])[C@@:7]12[H:12]"
N        2.33613376       0.61230203      -0.46957517
C        2.24262725       0.99932964       0.60407392
C        0.96633519      -0.39952316       0.32785229
O        0.07220775      -0.20474034       1.43749839
C       -1.06170645      -0.31191889       0.57972331
C       -1.04881754       0.74305920      -0.46070760
C       -0.20832016      -0.49371226      -0.64016710
H        1.43840894      -1.37850757       0.47246663
H       -1.92305908      -0.84519641       0.95557638
H       -1.92108203       0.77609533      -1.10127328
H       -0.58144606       1.69877822      -0.25256473
H       -0.31128157      -1.19596577      -1.45290304
