11
Frame=0 idx=004784 GeodesicLength=0.0 rxn_smarts="[C:1]([c:2]1[c:3]([H:10])[o:4][n:5][c:6]1[H:11])([H:7])([H:8])[H:9]>>[C:1](=[C:2]1[C:3]([H:9])([H:10])[O:4][N:5]=[C:6]1[H:11])([H:7])[H:8]"
C       -1.48465538      -0.06883028       0.33409675
C       -0.08939418       0.14950309       0.30712210
C        0.50261947      -0.89253360      -0.41337626
O        1.67005338      -0.39711544      -0.97722611
N        1.87907036       0.85578713      -0.45622311
C        0.91639468       1.16064589       0.36035983
H       -2.11471562       0.18274435       1.18394259
H       -1.99453205      -0.01590440      -0.61898750
H       -0.86091435      -1.23071213      -0.59402754
H        0.65045058      -1.87158879       0.03511741
H        0.92562310       2.12800419       0.83920179
11
Frame=1 idx=004784 GeodesicLength=0.04543679909423289 rxn_smarts="[C:1]([c:2]1[c:3]([H:10])[o:4][n:5][c:6]1[H:11])([H:7])([H:8])[H:9]>>[C:1](=[C:2]1[C:3]([H:9])([H:10])[O:4][N:5]=[C:6]1[H:11])([H:7])[H:8]"
C       -1.48189052      -0.06692004       0.33302152
C       -0.08484876       0.13942428       0.31822498
C        0.50938962      -0.89884098      -0.40997845
O        1.68230524      -0.40392558      -0.96202175
N        1.88777706       0.85011854      -0.44295979
C        0.91128122       1.16148681       0.35309476
H       -2.10147589       0.16062430       1.19717998
H       -2.00640190       0.01872255      -0.60952615
H       -0.86943408      -1.21969607      -0.61763972
H        0.65264119      -1.88138307       0.03251410
H        0.90065682       2.14038926       0.80809052
11
Frame=2 idx=004784 GeodesicLength=0.09097013312038348 rxn_smarts="[C:1]([c:2]1[c:3]([H:10])[o:4][n:5][c:6]1[H:11])([H:7])([H:8])[H:9]>>[C:1](=[C:2]1[C:3]([H:9])([H:10])[O:4][N:5]=[C:6]1[H:11])([H:7])[H:8]"
C       -1.47917918      -0.06494427       0.33195443
C       -0.08056709       0.12976697       0.32869929
C        0.51616738      -0.90513038      -0.40658588
O        1.69466193      -0.41071875      -0.94653689
N        1.89678849       0.84432703      -0.42883154
C        0.90596365       1.16233694       0.34527954
H       -2.08837709       0.13752768       1.20970281
H       -2.01864354       0.05355004      -0.59840413
H       -0.87767534      -1.20763721      -0.64168485
H        0.65496450      -1.89095432       0.03035199
H        0.87589630       2.15187627       0.77605523
11
Frame=3 idx=004784 GeodesicLength=0.13639367927971038 rxn_smarts="[C:1]([c:2]1[c:3]([H:10])[o:4][n:5][c:6]1[H:11])([H:7])([H:8])[H:9]>>[C:1](=[C:2]1[C:3]([H:9])([H:10])[O:4][N:5]=[C:6]1[H:11])([H:7])[H:8]"
C       -1.47649534      -0.06289888       0.33077064
C       -0.07653040       0.12056760       0.33844732
C        0.52290245      -0.91120154      -0.40315348
O        1.70693579      -0.41737374      -0.93065222
N        1.90604389       0.83817885      -0.41359674
C        0.90042850       1.16305789       0.33677143
H       -2.07518166       0.11335159       1.22122839
H       -2.03148011       0.08830147      -0.58546715
H       -0.88569304      -1.19431936      -0.66600679
H        0.65752560      -1.89989084       0.02863969
H        0.85154432       2.16222696       0.74301892
11
Frame=4 idx=004784 GeodesicLength=0.18174647176770609 rxn_smarts="[C:1]([c:2]1[c:3]([H:10])[o:4][n:5][c:6]1[H:11])([H:7])([H:8])[H:9]>>[C:1](=[C:2]1[C:3]([H:9])([H:10])[O:4][N:5]=[C:6]1[H:11])([H:7])[H:8]"
C       -1.47394406      -0.06075221       0.32933938
C       -0.07281906       0.11179905       0.34755143
C        0.52966639      -0.91730494      -0.39960203
O        1.71912830      -0.42392723      -0.91465514
N        1.91472000       0.83254446      -0.39879186
C        0.89483600       1.16362047       0.32787066
H       -2.06235394       0.08898559       1.23146461
H       -2.04454400       0.12278922      -0.57113444
H       -0.89332609      -1.18037203      -0.69028912
H        0.66050038      -1.90851639       0.02779237
H        0.82813609       2.17113399       0.71045413
11
Frame=5 idx=004784 GeodesicLength=0.22712557122225174 rxn_smarts="[C:1]([c:2]1[c:3]([H:10])[o:4][n:5][c:6]1[H:11])([H:7])([H:8])[H:9]>>[C:1](=[C:2]1[C:3]([H:9])([H:10])[O:4][N:5]=[C:6]1[H:11])([H:7])[H:8]"
C       -1.47149385      -0.05849991       0.32772450
C       -0.06935277       0.10340905       0.35610548
C        0.53643179      -0.92336803      -0.39596706
O        1.73130406      -0.43041460      -0.89834302
N        1.92318633       0.82704977      -0.38374780
C        0.88929637       1.16392972       0.31873002
H       -2.04971261       0.06388554       1.24055230
H       -2.05799012       0.15722275      -0.55511197
H       -0.90066097      -1.16542597      -0.71478986
H        0.66373740      -1.91680051       0.02752934
H        0.80525437       2.17901219       0.67731807
11
Frame=6 idx=004784 GeodesicLength=0.27249766421061494 rxn_smarts="[C:1]([c:2]1[c:3]([H:10])[o:4][n:5][c:6]1[H:11])([H:7])([H:8])[H:9]>>[C:1](=[C:2]1[C:3]([H:9])([H:10])[O:4][N:5]=[C:6]1[H:11])([H:7])[H:8]"
C       -1.46917446      -0.05606313       0.32578735
C       -0.06615589       0.09540307       0.36411292
C        0.54320628      -0.92943889      -0.39218308
O        1.74334845      -0.43682232      -0.88184638
N        1.93109502       0.82196499      -0.36912836
C        0.88386898       1.16393690       0.30948043
H       -2.03735085       0.03836682       1.24827945
H       -2.07170656       0.19144722      -0.53759968
H       -0.90767357      -1.14971823      -0.73927927
H        0.66738147      -1.92474444       0.02807578
H        0.78316110       2.18566802       0.64430084
11
Frame=7 idx=004784 GeodesicLength=0.31807485929383317 rxn_smarts="[C:1]([c:2]1[c:3]([H:10])[o:4][n:5][c:6]1[H:11])([H:7])([H:8])[H:9]>>[C:1](=[C:2]1[C:3]([H:9])([H:10])[O:4][N:5]=[C:6]1[H:11])([H:7])[H:8]"
C       -1.46700056      -0.05344477       0.32359891
C       -0.06319710       0.08774589       0.37165375
C        0.55001373      -0.93555254      -0.38828111
O        1.75535254      -0.44321508      -0.86505410
N        1.93854606       0.81723777      -0.35464491
C        0.87861819       1.16363057       0.30018850
H       -2.02524843       0.01225548       1.25475357
H       -2.08578013       0.22561864      -0.51841906
H       -0.91434797      -1.13310229      -0.76399063
H        0.67137874      -1.93246628       0.02930547
H        0.76166494       2.19129261       0.61088960
11
Frame=8 idx=004784 GeodesicLength=0.36341770006975976 rxn_smarts="[C:1]([c:2]1[c:3]([H:10])[o:4][n:5][c:6]1[H:11])([H:7])([H:8])[H:9]>>[C:1](=[C:2]1[C:3]([H:9])([H:10])[O:4][N:5]=[C:6]1[H:11])([H:7])[H:8]"
C       -1.46490473      -0.05065938       0.32107693
C       -0.06048455       0.08036538       0.37876505
C        0.55679590      -0.94168882      -0.38417349
O        1.76721376      -0.44955298      -0.84799313
N        1.94540670       0.81293011      -0.34080136
C        0.87352652       1.16298118       0.29095714
H       -2.01344874      -0.01439895       1.25973177
H       -2.09985827       0.25969067      -0.49755307
H       -0.92062110      -1.11558006      -0.78875496
H        0.67561030      -1.93990813       0.03134963
H        0.74076420       2.19582097       0.57739549
11
Frame=9 idx=004784 GeodesicLength=0.40880897491680135 rxn_smarts="[C:1]([c:2]1[c:3]([H:10])[o:4][n:5][c:6]1[H:11])([H:7])([H:8])[H:9]>>[C:1](=[C:2]1[C:3]([H:9])([H:10])[O:4][N:5]=[C:6]1[H:11])([H:7])[H:8]"
C       -1.46295242      -0.04758820       0.31810921
C       -0.05801944       0.07334172       0.38539434
C        0.56356810      -0.94784248      -0.37984050
O        1.77881520      -0.45581499      -0.83080351
N        1.95161117       0.80903448      -0.32771122
C        0.86862596       1.16201631       0.28173393
H       -2.00194372      -0.04145667       1.26310620
H       -2.11415841       0.29345222      -0.47514358
H       -0.92659847      -1.09736383      -0.81343882
H        0.68031150      -1.94696357       0.03434184
H        0.72074053       2.19918501       0.54425211
11
Frame=10 idx=004784 GeodesicLength=0.45425494521966625 rxn_smarts="[C:1]([c:2]1[c:3]([H:10])[o:4][n:5][c:6]1[H:11])([H:7])([H:8])[H:9]>>[C:1](=[C:2]1[C:3]([H:9])([H:10])[O:4][N:5]=[C:6]1[H:11])([H:7])[H:8]"
C       -1.46115671      -0.04426180       0.31476681
C       -0.05580549       0.06660986       0.39162713
C        0.57034087      -0.95407280      -0.37530971
O        1.79023293      -0.46203098      -0.81350721
N        1.95733045       0.80550757      -0.31520593
C        0.86391892       1.16077979       0.27258951
H       -1.99082436      -0.06899869       1.26492047
H       -2.12856136       0.32704784      -0.45098146
H       -0.93221034      -1.07836556      -0.83818286
H        0.68537900      -1.95380759       0.03819260
H        0.70135608       2.20159235       0.51109064
11
Frame=11 idx=004784 GeodesicLength=0.49979923398391735 rxn_smarts="[C:1]([c:2]1[c:3]([H:10])[o:4][n:5][c:6]1[H:11])([H:7])([H:8])[H:9]>>[C:1](=[C:2]1[C:3]([H:9])([H:10])[O:4][N:5]=[C:6]1[H:11])([H:7])[H:8]"
C       -1.45948705      -0.04068146       0.31113937
C       -0.05380769       0.06012441       0.39754314
C        0.57708089      -0.96033762      -0.37062514
O        1.80147916      -0.46818475      -0.79597820
N        1.96281070       0.80214827      -0.30270308
C        0.85942162       1.15924473       0.26361298
H       -1.97997833      -0.09736943       1.26523463
H       -2.14301217       0.36063474      -0.42476631
H       -0.93747280      -1.05830215      -0.86315954
H        0.69068067      -1.96046110       0.04269378
H        0.68228500       2.20318435       0.47700837
11
Frame=12 idx=004784 GeodesicLength=0.5453932155066007 rxn_smarts="[C:1]([c:2]1[c:3]([H:10])[o:4][n:5][c:6]1[H:11])([H:7])([H:8])[H:9]>>[C:1](=[C:2]1[C:3]([H:9])([H:10])[O:4][N:5]=[C:6]1[H:11])([H:7])[H:8]"
C       -1.45797939      -0.03676032       0.30708271
C       -0.05206618       0.05393886       0.40306949
C        0.58379382      -0.96666262      -0.36572142
O        1.81244935      -0.47426331      -0.77841895
N        1.96782557       0.79909163      -0.29078351
C        0.85509671       1.15748240       0.25467795
H       -1.96952067      -0.12621024       1.26379335
H       -2.15748737       0.39389781      -0.39667483
H       -0.94239062      -1.03749233      -0.88812384
H        0.69636076      -1.96685278       0.04811817
H        0.66391802       2.20383091       0.44298088
11
Frame=13 idx=004784 GeodesicLength=0.5909536325868455 rxn_smarts="[C:1]([c:2]1[c:3]([H:10])[o:4][n:5][c:6]1[H:11])([H:7])([H:8])[H:9]>>[C:1](=[C:2]1[C:3]([H:9])([H:10])[O:4][N:5]=[C:6]1[H:11])([H:7])[H:8]"
C       -1.45666248      -0.03244992       0.30250609
C       -0.05061658       0.04806501       0.40814529
C        0.59047450      -0.97306580      -0.36055094
O        1.82305479      -0.48022458      -0.76102927
N        1.97232174       0.79637250      -0.27975849
C        0.85091111       1.15553287       0.24567570
H       -1.95953339      -0.15528315       1.26045015
H       -2.17191982       0.42664101      -0.36682390
H       -0.94697838      -1.01618989      -0.91291007
H        0.70248987      -1.97293088       0.05465274
H        0.64645863       2.20353284       0.40964270
11
Frame=14 idx=004784 GeodesicLength=0.6363919007782153 rxn_smarts="[C:1]([c:2]1[c:3]([H:10])[o:4][n:5][c:6]1[H:11])([H:7])([H:8])[H:9]>>[C:1](=[C:2]1[C:3]([H:9])([H:10])[O:4][N:5]=[C:6]1[H:11])([H:7])[H:8]"
C       -1.45551747      -0.02770830       0.29735659
C       -0.04945180       0.04251745       0.41275411
C        0.59706254      -0.97951646      -0.35507546
O        1.83314359      -0.48599535      -0.74393057
N        1.97631868       0.79396450      -0.26967044
C        0.84688063       1.15338990       0.23662461
H       -1.94997909      -0.18451652       1.25503781
H       -2.18615987       0.45869233      -0.33526370
H       -0.95136158      -0.99456285      -0.93738544
H        0.70907394      -1.97859041       0.06236174
H        0.62999043       2.20232572       0.37719076
11
Frame=15 idx=004784 GeodesicLength=0.6819093799309848 rxn_smarts="[C:1]([c:2]1[c:3]([H:10])[o:4][n:5][c:6]1[H:11])([H:7])([H:8])[H:9]>>[C:1](=[C:2]1[C:3]([H:9])([H:10])[O:4][N:5]=[C:6]1[H:11])([H:7])[H:8]"
C       -1.45459982      -0.02250913       0.29168064
C       -0.04859339       0.03728816       0.41689886
C        0.60362613      -0.98608575      -0.34933701
O        1.84285821      -0.49167347      -0.72713753
N        1.97991251       0.79179705      -0.26035118
C        0.84294970       1.15111260       0.22738166
H       -1.94090142      -0.21382707       1.24767909
H       -2.20032353       0.49004288      -0.30186140
H       -0.95546013      -0.97255693      -0.96174080
H        0.71613051      -1.98397698       0.07122521
H        0.61440122       2.20038864       0.34556246
11
Frame=16 idx=004784 GeodesicLength=0.7273322139246579 rxn_smarts="[C:1]([c:2]1[c:3]([H:10])[o:4][n:5][c:6]1[H:11])([H:7])([H:8])[H:9]>>[C:1](=[C:2]1[C:3]([H:9])([H:10])[O:4][N:5]=[C:6]1[H:11])([H:7])[H:8]"
C       -1.45386926      -0.01680906       0.28541963
C       -0.04803930       0.03238286       0.42057097
C        0.61009369      -0.99274981      -0.34325958
O        1.85203420      -0.49719892      -0.71077004
N        1.98303894       0.78989013      -0.25203462
C        0.83913604       1.14868571       0.21799274
H       -1.93229349      -0.24317000       1.23815667
H       -2.21413764       0.52055793      -0.26671199
H       -0.95938114      -0.95037865      -0.98581621
H        0.72363532      -1.98897062       0.08137072
H        0.59978264       2.19776045       0.31508171
