15
Frame=0 idx=001353 GeodesicLength=0.0 rxn_smarts="[C:1]([C:2]([C:3]([H:11])([H:12])[H:13])([N:4]([C:5](=[O:6])[H:15])[H:14])[H:10])([H:7])([H:8])[H:9]>>[C:1]([C:2]([C:3]([H:11])([H:12])[H:13])([N+:4]1([H:14])[C-:5]([H:15])[O:6]1)[H:10])([H:7])([H:8])[H:9]"
C       -1.40867444       0.12585279       0.92009993
C       -0.24210559      -0.38221654       0.09043344
C       -0.52311131      -0.42311059      -1.40341280
N        0.92939121       0.45772863       0.31972524
C        2.25683172       0.07806413      -0.15295265
O        2.20530679      -0.11971391       1.19675473
H       -2.27939297      -0.51220535       0.77003573
H       -1.68754716       1.14169021       0.62666265
H       -1.16774780       0.12156848       1.98509614
H        0.04248476      -1.37982552       0.43371476
H        0.39021637      -0.67832280      -1.94214203
H       -0.89207263       0.54119348      -1.75896652
H       -1.27756741      -1.18026465      -1.61987155
H        0.81649887       1.23475456       0.96351256
H        2.83748964       0.97480714      -0.42868963
15
Frame=1 idx=001353 GeodesicLength=0.04630541525347085 rxn_smarts="[C:1]([C:2]([C:3]([H:11])([H:12])[H:13])([N:4]([C:5](=[O:6])[H:15])[H:14])[H:10])([H:7])([H:8])[H:9]>>[C:1]([C:2]([C:3]([H:11])([H:12])[H:13])([N+:4]1([H:14])[C-:5]([H:15])[O:6]1)[H:10])([H:7])([H:8])[H:9]"
C       -1.40207184       0.11573321       0.92580149
C       -0.23926949      -0.38184028       0.08435356
C       -0.53104230      -0.41609847      -1.40752206
N        0.93113059       0.46151852       0.30576061
C        2.26441311       0.06165739      -0.12204963
O        2.18322649      -0.10948669       1.22842514
H       -2.26854015      -0.53034627       0.78427817
H       -1.69486622       1.12847476       0.63504466
H       -1.14792098       0.11474917       1.98764139
H        0.05060404      -1.38037033       0.42039792
H        0.37766841      -0.67117117      -1.95436774
H       -0.90079288       0.55036074      -1.75688971
H       -1.28949614      -1.17011777      -1.62143496
H        0.80907194       1.27883224       0.89503913
H        2.85788542       0.94810495      -0.40447795
15
Frame=2 idx=001353 GeodesicLength=0.0927471282713397 rxn_smarts="[C:1]([C:2]([C:3]([H:11])([H:12])[H:13])([N:4]([C:5](=[O:6])[H:15])[H:14])[H:10])([H:7])([H:8])[H:9]>>[C:1]([C:2]([C:3]([H:11])([H:12])[H:13])([N+:4]1([H:14])[C-:5]([H:15])[O:6]1)[H:10])([H:7])([H:8])[H:9]"
C       -1.39480282       0.10613983       0.93125211
C       -0.23637974      -0.38168283       0.07824141
C       -0.53907872      -0.40941164      -1.41144709
N        0.93289492       0.46475032       0.29204220
C        2.27079881       0.04715462      -0.09080284
O        2.16036370      -0.09921757       1.25903963
H       -2.25718048      -0.54724459       0.79811087
H       -1.70053339       1.11587368       0.64337796
H       -1.12781504       0.10823133       1.98980406
H        0.05865084      -1.38096175       0.40726103
H        0.36470338      -0.66459474      -1.96636068
H       -0.90928465       0.55916030      -1.75483449
H       -1.30162532      -1.16005026      -1.62244646
H        0.80276333       1.31807435       0.82498424
H        2.87652519       0.92377894      -0.37822195
15
Frame=3 idx=001353 GeodesicLength=0.1391771459687997 rxn_smarts="[C:1]([C:2]([C:3]([H:11])([H:12])[H:13])([N:4]([C:5](=[O:6])[H:15])[H:14])[H:10])([H:7])([H:8])[H:9]>>[C:1]([C:2]([C:3]([H:11])([H:12])[H:13])([N+:4]1([H:14])[C-:5]([H:15])[O:6]1)[H:10])([H:7])([H:8])[H:9]"
C       -1.38711229       0.09711366       0.93647290
C       -0.23345172      -0.38178040       0.07212531
C       -0.54723009      -0.40320100      -1.41523363
N        0.93482088       0.46746857       0.27869080
C        2.27631949       0.03479580      -0.05959402
O        2.13725582      -0.08919377       1.28834646
H       -2.24582564      -0.56270907       0.81132638
H       -1.70457352       1.10411876       0.65180930
H       -1.10776665       0.10188474       1.99169414
H        0.06661597      -1.38167425       0.39432787
H        0.35135420      -0.65905535      -1.97819940
H       -0.91736362       0.56755041      -1.75286823
H       -1.31422039      -1.15012226      -1.62298222
H        0.79753665       1.35245906       0.75417711
H        2.89364092       0.90234511      -0.35009280
15
Frame=4 idx=001353 GeodesicLength=0.18562367743820918 rxn_smarts="[C:1]([C:2]([C:3]([H:11])([H:12])[H:13])([N:4]([C:5](=[O:6])[H:15])[H:14])[H:10])([H:7])([H:8])[H:9]>>[C:1]([C:2]([C:3]([H:11])([H:12])[H:13])([N+:4]1([H:14])[C-:5]([H:15])[O:6]1)[H:10])([H:7])([H:8])[H:9]"
C       -1.37908790       0.08861372       0.94151278
C       -0.23049889      -0.38207522       0.06599520
C       -0.55549244      -0.39738900      -1.41889744
N        0.93692027       0.46975142       0.26570117
C        2.28107983       0.02431194      -0.02842646
O        2.11381181      -0.07947905       1.31651305
H       -2.23451136      -0.57694370       0.82402610
H       -1.70718579       1.09318242       0.66038875
H       -1.08787562       0.09565761       1.99338405
H        0.07449187      -1.38249199       0.38152562
H        0.33766075      -0.65425444      -1.98998297
H       -0.92520178       0.57557174      -1.75094908
H       -1.32710219      -1.14044734      -1.62309266
H        0.79360827       1.38239683       0.68258770
H        2.90938316       0.88359507      -0.32028580
15
Frame=5 idx=001353 GeodesicLength=0.2321774392388896 rxn_smarts="[C:1]([C:2]([C:3]([H:11])([H:12])[H:13])([N:4]([C:5](=[O:6])[H:15])[H:14])[H:10])([H:7])([H:8])[H:9]>>[C:1]([C:2]([C:3]([H:11])([H:12])[H:13])([N+:4]1([H:14])[C-:5]([H:15])[O:6]1)[H:10])([H:7])([H:8])[H:9]"
C       -1.37078347       0.08057455       0.94636987
C       -0.22750389      -0.38254372       0.05983715
C       -0.56388752      -0.39193603      -1.42244296
N        0.93921945       0.47167249       0.25304281
C        2.28518184       0.01559243       0.00270587
O        2.09011268      -0.07003715       1.34366474
H       -2.22329743      -0.59007864       0.83621021
H       -1.70848198       1.08304701       0.66913213
H       -1.06815991       0.08944766       1.99488244
H        0.08234877      -1.38341399       0.36880802
H        0.32358587      -0.65019947      -2.00174296
H       -0.93281479       0.58330447      -1.74906313
H       -1.34036649      -1.13093166      -1.62277996
H        0.79094380       1.40810897       0.61027631
H        2.92390306       0.86739311      -0.28890055
15
Frame=6 idx=001353 GeodesicLength=0.27889311528909966 rxn_smarts="[C:1]([C:2]([C:3]([H:11])([H:12])[H:13])([N:4]([C:5](=[O:6])[H:15])[H:14])[H:10])([H:7])([H:8])[H:9]>>[C:1]([C:2]([C:3]([H:11])([H:12])[H:13])([N+:4]1([H:14])[C-:5]([H:15])[O:6]1)[H:10])([H:7])([H:8])[H:9]"
C       -1.36221445       0.07295757       0.95107885
C       -0.22445748      -0.38314731       0.05365379
C       -0.57239203      -0.38679013      -1.42589849
N        0.94170239       0.47329322       0.24069866
C        2.28862541       0.00851267       0.03377596
O        2.06607158      -0.06092173       1.36991254
H       -2.21215397      -0.60222881       0.84795182
H       -1.70852061       1.07369333       0.67805239
H       -1.04865026       0.08318682       1.99626322
H        0.09020423      -1.38442235       0.35617164
H        0.30912390      -0.64681202      -2.01354312
H       -0.94019617       0.59080630      -1.74724892
H       -1.35394567      -1.12154629      -1.62206395
H        0.78960195       1.42977378       0.53727296
H        2.93720117       0.85364494      -0.25607734
15
Frame=7 idx=001353 GeodesicLength=0.3258981231323014 rxn_smarts="[C:1]([C:2]([C:3]([H:11])([H:12])[H:13])([N:4]([C:5](=[O:6])[H:15])[H:14])[H:10])([H:7])([H:8])[H:9]>>[C:1]([C:2]([C:3]([H:11])([H:12])[H:13])([N+:4]1([H:14])[C-:5]([H:15])[O:6]1)[H:10])([H:7])([H:8])[H:9]"
C       -1.35333314       0.06571555       0.95549639
C       -0.22133755      -0.38381279       0.04743631
C       -0.58106860      -0.38189446      -1.42913379
N        0.94435483       0.47460545       0.22867572
C        2.29139268       0.00307071       0.06482407
O        2.04176696      -0.05215121       1.39518491
H       -2.20099627      -0.61340546       0.85910576
H       -1.70731137       1.06496082       0.68700463
H       -1.02924161       0.07680879       1.99730248
H        0.09812958      -1.38531941       0.34358196
H        0.29414787      -0.64401612      -2.02517748
H       -0.94743211       0.59801689      -1.74536795
H       -1.36789431      -1.11213287      -1.62080654
H        0.78963568       1.44728196       0.46359858
H        2.94918738       0.84227215      -0.22172506
15
Frame=8 idx=001353 GeodesicLength=0.37307920517192555 rxn_smarts="[C:1]([C:2]([C:3]([H:11])([H:12])[H:13])([N:4]([C:5](=[O:6])[H:15])[H:14])[H:10])([H:7])([H:8])[H:9]>>[C:1]([C:2]([C:3]([H:11])([H:12])[H:13])([N+:4]1([H:14])[C-:5]([H:15])[O:6]1)[H:10])([H:7])([H:8])[H:9]"
C       -1.34428817       0.05885373       0.95982426
C       -0.21815767      -0.38456477       0.04121613
C       -0.58980476      -0.37726068      -1.43232363
N        0.94718041       0.47573483       0.21699413
C        2.29355345      -0.00087437       0.09565238
O        2.01719560      -0.04388133       1.41964008
H       -2.18999202      -0.62373337       0.86987498
H       -1.70498745       1.05704099       0.69615771
H       -1.01017849       0.07027771       1.99836554
H        0.10608895      -1.38630940       0.33109073
H        0.27882008      -0.64186706      -2.03694171
H       -0.95438131       0.60509389      -1.74362752
H       -1.38208775      -1.10282402      -1.61919404
H        0.79111325       1.46098645       0.38949976
H        2.95992590       0.83332740      -0.18622879
15
Frame=9 idx=001353 GeodesicLength=0.42045450726846556 rxn_smarts="[C:1]([C:2]([C:3]([H:11])([H:12])[H:13])([N:4]([C:5](=[O:6])[H:15])[H:14])[H:10])([H:7])([H:8])[H:9]>>[C:1]([C:2]([C:3]([H:11])([H:12])[H:13])([N+:4]1([H:14])[C-:5]([H:15])[O:6]1)[H:10])([H:7])([H:8])[H:9]"
C       -1.33509236       0.05231292       0.96385973
C       -0.21491700      -0.38531707       0.03499174
C       -0.59866859      -0.37282584      -1.43524852
N        0.95019118       0.47669332       0.20568495
C        2.29514744      -0.00331529       0.12627089
O        1.99253038      -0.03610462       1.44313022
H       -2.17915385      -0.63322891       0.88002676
H       -1.70161807       1.04972227       0.70532228
H       -0.99142294       0.06353148       1.99911782
H        0.11411808      -1.38715288       0.31865096
H        0.26304793      -0.64023375      -2.04848586
H       -0.96114434       0.61194663      -1.74177314
H       -1.39659001      -1.09348144      -1.61701620
H        0.79417956       1.47071414       0.31505177
H        2.96939260       0.82673906      -0.14958340
15
Frame=10 idx=001353 GeodesicLength=0.4681558680464244 rxn_smarts="[C:1]([C:2]([C:3]([H:11])([H:12])[H:13])([N:4]([C:5](=[O:6])[H:15])[H:14])[H:10])([H:7])([H:8])[H:9]>>[C:1]([C:2]([C:3]([H:11])([H:12])[H:13])([N+:4]1([H:14])[C-:5]([H:15])[O:6]1)[H:10])([H:7])([H:8])[H:9]"
C       -1.32571916       0.04609552       0.96768772
C       -0.21160673      -0.38605383       0.02875777
C       -0.60771112      -0.36858442      -1.43808208
N        0.95336848       0.47758756       0.19479100
C        2.29617879      -0.00436370       0.15673349
O        1.96778847      -0.02885523       1.46590876
H       -2.16838020      -0.64204037       0.88967061
H       -1.69728099       1.04307366       0.71452888
H       -0.97289982       0.05660589       1.99976879
H        0.12226787      -1.38793405       0.30626006
H        0.24673582      -0.63912443      -2.06003756
H       -0.96782634       0.61866315      -1.74000563
H       -1.41141454      -1.08417242      -1.61448879
H        0.79893701       1.47665575       0.24031917
H        2.97756245       0.82244692      -0.11181218
15
Frame=11 idx=001353 GeodesicLength=0.5160687795417352 rxn_smarts="[C:1]([C:2]([C:3]([H:11])([H:12])[H:13])([N:4]([C:5](=[O:6])[H:15])[H:14])[H:10])([H:7])([H:8])[H:9]>>[C:1]([C:2]([C:3]([H:11])([H:12])[H:13])([N+:4]1([H:14])[C-:5]([H:15])[O:6]1)[H:10])([H:7])([H:8])[H:9]"
C       -1.31619241       0.04017253       0.97136425
C       -0.20820684      -0.38672598       0.02256224
C       -0.61667379      -0.36448674      -1.44071366
N        0.95659356       0.47838961       0.18423724
C        2.29643172      -0.00399796       0.18671508
O        1.94278207      -0.02231175       1.48771479
H       -2.15767343      -0.65003939       0.89887057
H       -1.69188122       1.03697256       0.72382992
H       -0.95480118       0.04941627       2.00034064
H        0.13047966      -1.38848025       0.29398295
H        0.23010634      -0.63857351      -2.07149018
H       -0.97396036       0.62521570      -1.73824795
H       -1.42629928      -1.07465051      -1.61141513
H        0.80523223       1.47861521       0.16552590
H        2.98406294       0.82048420      -0.07327665
15
Frame=12 idx=001353 GeodesicLength=0.5641716640758171 rxn_smarts="[C:1]([C:2]([C:3]([H:11])([H:12])[H:13])([N:4]([C:5](=[O:6])[H:15])[H:14])[H:10])([H:7])([H:8])[H:9]>>[C:1]([C:2]([C:3]([H:11])([H:12])[H:13])([N+:4]1([H:14])[C-:5]([H:15])[O:6]1)[H:10])([H:7])([H:8])[H:9]"
C       -1.30662171       0.03454342       0.97484864
C       -0.20474600      -0.38729839       0.01639672
C       -0.62570441      -0.36051510      -1.44317785
N        0.95993985       0.47924400       0.17410824
C        2.29613819      -0.00231701       0.21628872
O        1.91779914      -0.01651064       1.50867236
H       -2.14714083      -0.65741612       0.90758660
H       -1.68569873       1.03146390       0.73314313
H       -0.93712931       0.04202779       2.00081692
H        0.13879244      -1.38885479       0.28178032
H        0.21307531      -0.63845749      -2.08284627
H       -0.97989460       0.63166228      -1.73651347
H       -1.44131109      -1.06512622      -1.60791035
H        0.81335814       1.47675540       0.09081098
H        2.98914362       0.82079898      -0.03400468
15
Frame=13 idx=001353 GeodesicLength=0.612393091022101 rxn_smarts="[C:1]([C:2]([C:3]([H:11])([H:12])[H:13])([N:4]([C:5](=[O:6])[H:15])[H:14])[H:10])([H:7])([H:8])[H:9]>>[C:1]([C:2]([C:3]([H:11])([H:12])[H:13])([N+:4]1([H:14])[C-:5]([H:15])[O:6]1)[H:10])([H:7])([H:8])[H:9]"
C       -1.29708469       0.02917313       0.97813429
C       -0.20122770      -0.38776330       0.01027450
C       -0.63479416      -0.35665618      -1.44545713
N        0.96341723       0.48022780       0.16439799
C        2.29538385       0.00066072       0.24537442
O        1.89299928      -0.01151245       1.52876062
H       -2.13687559      -0.66424794       0.91581001
H       -1.67887842       1.02651588       0.74243368
H       -0.91994671       0.03442364       2.00119308
H        0.14722553      -1.38907360       0.26966185
H        0.19565738      -0.63886437      -2.09405338
H       -0.98552425       0.63807665      -1.73480512
H       -1.45654550      -1.05550478      -1.60395424
H        0.82335809       1.47111508       0.01635421
H        2.99283566       0.82342972       0.00587521
15
Frame=14 idx=001353 GeodesicLength=0.6607404270222497 rxn_smarts="[C:1]([C:2]([C:3]([H:11])([H:12])[H:13])([N:4]([C:5](=[O:6])[H:15])[H:14])[H:10])([H:7])([H:8])[H:9]>>[C:1]([C:2]([C:3]([H:11])([H:12])[H:13])([N+:4]1([H:14])[C-:5]([H:15])[O:6]1)[H:10])([H:7])([H:8])[H:9]"
C       -1.28754198       0.02404647       0.98121544
C       -0.19764472      -0.38807665       0.00420826
C       -0.64392104      -0.35287820      -1.44755395
N        0.96696595       0.48139774       0.15512122
C        2.29409800       0.00490647       0.27392394
O        1.86841478      -0.00736136       1.54799060
H       -2.12678208      -0.67055971       0.92352795
H       -1.67143570       1.02203950       0.75166012
H       -0.90320441       0.02663224       2.00147455
H        0.15578593      -1.38904871       0.25763799
H        0.17781555      -0.63979888      -2.10507845
H       -0.99076417       0.64446248      -1.73314316
H       -1.47196489      -1.04569297      -1.59956893
H        0.83521831       1.46160411      -0.05765253
H        2.99496047       0.82832746       0.04623695
15
Frame=15 idx=001353 GeodesicLength=0.7090997765137705 rxn_smarts="[C:1]([C:2]([C:3]([H:11])([H:12])[H:13])([N:4]([C:5](=[O:6])[H:15])[H:14])[H:10])([H:7])([H:8])[H:9]>>[C:1]([C:2]([C:3]([H:11])([H:12])[H:13])([N+:4]1([H:14])[C-:5]([H:15])[O:6]1)[H:10])([H:7])([H:8])[H:9]"
C       -1.27811799       0.01913004       0.98413737
C       -0.19401351      -0.38819812      -0.00177476
C       -0.65302016      -0.34911651      -1.44944329
N        0.97056220       0.48286141       0.14626903
C        2.29232386       0.01033766       0.30184613
O        1.84409001      -0.00407493       1.56634263
H       -2.11694621      -0.67648188       0.93083491
H       -1.66360530       1.01798261       0.76082814
H       -0.88704298       0.01866164       2.00169998
H        0.16447462      -1.38876552       0.24572459
H        0.15967891      -0.64116551      -2.11588318
H       -0.99556392       0.65090314      -1.73150332
H       -1.48745779      -1.03568447      -1.59473618
H        0.84907561       1.44823020      -0.13112813
H        2.99556264       0.83538023       0.08678609
15
Frame=16 idx=001353 GeodesicLength=0.7575829722557901 rxn_smarts="[C:1]([C:2]([C:3]([H:11])([H:12])[H:13])([N:4]([C:5](=[O:6])[H:15])[H:14])[H:10])([H:7])([H:8])[H:9]>>[C:1]([C:2]([C:3]([H:11])([H:12])[H:13])([N+:4]1([H:14])[C-:5]([H:15])[O:6]1)[H:10])([H:7])([H:8])[H:9]"
C       -1.26865046       0.01442662       0.98690294
C       -0.19030373      -0.38807536      -0.00767788
C       -0.66201897      -0.34534793      -1.45113340
N        0.97407643       0.48463033       0.13782886
C        2.28982019       0.01694596       0.32908105
O        1.81992633      -0.00164452       1.58379844
H       -2.10710395      -0.68193730       0.93769315
H       -1.65524220       1.01420140       0.76995048
H       -0.87130983       0.01057777       2.00187094
H        0.17329014      -1.38804961       0.23388567
H        0.14118073      -0.64300995      -2.12645567
H       -0.99971050       0.65733325      -1.72987880
H       -1.50291666      -1.02529045      -1.58949382
H        0.86473587       1.43074872      -0.20378223
H        2.99422660       0.84449107       0.12741025
