16
Frame=0 idx=006611 GeodesicLength=0.0 rxn_smarts="[C:1]([C@@:2]([O:3][H:12])([C:4]([N:5]([C:6](=[O:7])[H:16])[H:15])([H:13])[H:14])[H:11])([H:8])([H:9])[H:10]>>[C:1](=[C:2]([O:3][H:12])[H:11])([H:8])[H:9].[C:4](=[N:5][H:15])([H:13])[H:14].[C:6](=[O:7])([H:10])[H:16]"
C       -1.32413409       0.49113941      -0.65048274
C       -0.81863725      -0.73011902      -0.97309753
O       -0.12601217      -0.87100479      -2.15316262
C        0.98745941      -0.93579675       0.62549682
N        1.33119506       0.31920813       0.67582288
C        0.38106243       1.24391774       1.32157869
O       -0.33296651       0.76842119       2.23468906
H       -2.01890970       0.56055604       0.17646617
H       -1.34008910       1.26555142      -1.40935393
H       -0.25557244       1.29491483       0.22299698
H       -1.15153658      -1.63818385      -0.48684125
H       -0.01966816      -1.80066165      -2.35650741
H        0.38034360      -1.28686815       1.44966647
H        1.52729324      -1.60615271      -0.02737240
H        1.90597473       0.69345404      -0.06770587
H        0.87419749       2.23162416       1.41780661
16
Frame=1 idx=006611 GeodesicLength=0.22029214055017654 rxn_smarts="[C:1]([C@@:2]([O:3][H:12])([C:4]([N:5]([C:6](=[O:7])[H:16])[H:15])([H:13])[H:14])[H:11])([H:8])([H:9])[H:10]>>[C:1](=[C:2]([O:3][H:12])[H:11])([H:8])[H:9].[C:4](=[N:5][H:15])([H:13])[H:14].[C:6](=[O:7])([H:10])[H:16]"
C       -1.31118917       0.55718613      -0.72792696
C       -0.82391368      -0.69811823      -0.93793479
O       -0.22822820      -1.02035336      -2.13322346
C        1.06986566      -0.90960772       0.54469777
N        1.36296360       0.35330802       0.69543491
C        0.33679217       1.19626201       1.37828081
O       -0.39655024       0.61767366       2.21079808
H       -2.05992293       0.70034149       0.04077696
H       -1.24999676       1.28002011      -1.53356758
H       -0.25214281       1.31977029       0.21628765
H       -1.21517863      -1.53393376      -0.36864521
H       -0.17026403      -1.97534531      -2.20619361
H        0.52784883      -1.36153375       1.36536116
H        1.65634262      -1.50486629      -0.14023231
H        1.95694306       0.79705434       0.00762476
H        0.79663052       2.18214237       1.58846183
16
Frame=2 idx=006611 GeodesicLength=0.4275189686694607 rxn_smarts="[C:1]([C@@:2]([O:3][H:12])([C:4]([N:5]([C:6](=[O:7])[H:16])[H:15])([H:13])[H:14])[H:11])([H:8])([H:9])[H:10]>>[C:1](=[C:2]([O:3][H:12])[H:11])([H:8])[H:9].[C:4](=[N:5][H:15])([H:13])[H:14].[C:6](=[O:7])([H:10])[H:16]"
C       -1.29003819       0.61168023      -0.80238385
C       -0.82729782      -0.66829194      -0.91041836
O       -0.32601514      -1.16141260      -2.08912792
C        1.14078566      -0.87580292       0.46274953
N        1.39195748       0.38267948       0.71883152
C        0.29436390       1.14498692       1.42738676
O       -0.44875319       0.47505970       2.17621342
H       -2.07806219       0.82102552      -0.08975336
H       -1.16560052       1.27581268      -1.64994946
H       -0.25008918       1.34473763       0.20951366
H       -1.26584202      -1.42422892      -0.26515952
H       -0.32198376      -2.12140569      -2.03563087
H        0.66007933      -1.42066835       1.26540250
H        1.76347398      -1.39120232      -0.25474586
H        2.00312376       0.88963474       0.09275095
H        0.71989790       2.11739582       1.74432083
16
Frame=3 idx=006611 GeodesicLength=0.6289713405254397 rxn_smarts="[C:1]([C@@:2]([O:3][H:12])([C:4]([N:5]([C:6](=[O:7])[H:16])[H:15])([H:13])[H:14])[H:11])([H:8])([H:9])[H:10]>>[C:1](=[C:2]([O:3][H:12])[H:11])([H:8])[H:9].[C:4](=[N:5][H:15])([H:13])[H:14].[C:6](=[O:7])([H:10])[H:16]"
C       -1.26487427       0.65740375      -0.87273054
C       -0.83223219      -0.64012913      -0.88943898
O       -0.42566264      -1.28894984      -2.02725505
C        1.19835712      -0.83851041       0.38145009
N        1.41763674       0.40369818       0.74320935
C        0.25596443       1.09043192       1.46957619
O       -0.48784775       0.34264709       2.13689637
H       -2.08030627       0.92679571      -0.21259570
H       -1.09180093       1.25774846      -1.75838677
H       -0.24946217       1.36857765       0.20286736
H       -1.30873184      -1.31210720      -0.17812897
H       -0.44094443      -2.23397700      -1.84186968
H        0.77591825      -1.46793832       1.15495815
H        1.84557852      -1.27213802      -0.36837552
H        2.04079632       0.96533383       0.17889041
H        0.64761112       2.04111334       1.88093330
16
Frame=4 idx=006611 GeodesicLength=0.8283333542988749 rxn_smarts="[C:1]([C@@:2]([O:3][H:12])([C:4]([N:5]([C:6](=[O:7])[H:16])[H:15])([H:13])[H:14])[H:11])([H:8])([H:9])[H:10]>>[C:1](=[C:2]([O:3][H:12])[H:11])([H:8])[H:9].[C:4](=[N:5][H:15])([H:13])[H:14].[C:6](=[O:7])([H:10])[H:16]"
C       -1.23742848       0.69331473      -0.93898644
C       -0.83580592      -0.61521043      -0.87277902
O       -0.51165494      -1.40078984      -1.94813295
C        1.24621627      -0.79786774       0.30385876
N        1.44101693       0.41780246       0.76882938
C        0.22128278       1.03586546       1.50541153
O       -0.51712429       0.22303294       2.09521961
H       -2.07241319       1.01552458      -0.32830925
H       -1.03268121       1.22559140      -1.86067441
H       -0.24984580       1.39159601       0.19450047
H       -1.34524002      -1.20270388      -0.10827946
H       -0.55086562      -2.31573471      -1.64381566
H        0.87742460      -1.50339352       1.03870936
H        1.90874797      -1.14923155      -0.47580968
H        2.07551358       1.02520469       0.26835781
H        0.58285735       1.95699940       2.00189995
16
Frame=5 idx=006611 GeodesicLength=1.0276471978805288 rxn_smarts="[C:1]([C@@:2]([O:3][H:12])([C:4]([N:5]([C:6](=[O:7])[H:16])[H:15])([H:13])[H:14])[H:11])([H:8])([H:9])[H:10]>>[C:1](=[C:2]([O:3][H:12])[H:11])([H:8])[H:9].[C:4](=[N:5][H:15])([H:13])[H:14].[C:6](=[O:7])([H:10])[H:16]"
C       -1.20872207       0.72235195      -1.00219859
C       -0.83994291      -0.59234985      -0.85915026
O       -0.58977922      -1.49754305      -1.85658490
C        1.28484971      -0.75601712       0.23014399
N        1.46214675       0.42406220       0.79439661
C        0.19012485       0.98038545       1.53689270
O       -0.53836446       0.11329494       2.05394690
H       -2.05727845       1.09264318      -0.43871179
H       -0.98680606       1.18289973      -1.95804470
H       -0.25120625       1.41376406       0.18500479
H       -1.37923430      -1.09548903      -0.05308093
H       -0.63886126      -2.36903697      -1.44070808
H        0.96767834      -1.52996295       0.91939055
H        1.95483029      -1.02510124      -0.57620391
H        2.10549156       1.06909913       0.35636250
H        0.52507346       1.86699958       2.10854513
16
Frame=6 idx=006611 GeodesicLength=1.2275510093882736 rxn_smarts="[C:1]([C@@:2]([O:3][H:12])([C:4]([N:5]([C:6](=[O:7])[H:16])[H:15])([H:13])[H:14])[H:11])([H:8])([H:9])[H:10]>>[C:1](=[C:2]([O:3][H:12])[H:11])([H:8])[H:9].[C:4](=[N:5][H:15])([H:13])[H:14].[C:6](=[O:7])([H:10])[H:16]"
C       -1.17905006       0.74501450      -1.06330463
C       -0.84418681      -0.57150414      -0.84726307
O       -0.65718438      -1.58043518      -1.75424728
C        1.31644987      -0.71280777       0.16023869
N        1.48145030       0.42364680       0.81929242
C        0.16179132       0.92409145       1.56517052
O       -0.55380227       0.01144968       2.01347990
H       -2.03694601       1.15940834      -0.54581837
H       -0.95243475       1.13041508      -2.05100874
H       -0.25391390       1.43538397       0.17420872
H       -1.41182659      -0.99045839      -0.01025477
H       -0.71426623      -2.39754814      -1.23696819
H        1.04949149      -1.54812241       0.79782923
H        1.98832147      -0.89962234      -0.66824443
H        2.13230121       1.09916884       0.44279017
H        0.47380532       1.77191972       2.20409985
16
Frame=7 idx=006611 GeodesicLength=1.4284042485518424 rxn_smarts="[C:1]([C@@:2]([O:3][H:12])([C:4]([N:5]([C:6](=[O:7])[H:16])[H:15])([H:13])[H:14])[H:11])([H:8])([H:9])[H:10]>>[C:1](=[C:2]([O:3][H:12])[H:11])([H:8])[H:9].[C:4](=[N:5][H:15])([H:13])[H:14].[C:6](=[O:7])([H:10])[H:16]"
C       -1.14812352       0.76223016      -1.12319484
C       -0.84908042      -0.55218215      -0.83633729
O       -0.71717376      -1.65063275      -1.64289229
C        1.34172497      -0.66866293       0.09395148
N        1.49908132       0.41662933       0.84330708
C        0.13560192       0.86634313       1.59132862
O       -0.56547917      -0.08452867       1.97393262
H       -2.01182500       1.21803407      -0.65129553
H       -0.92750880       1.06909975      -2.13971273
H       -0.25792367       1.45676657       0.16208635
H       -1.44304647      -0.88654646       0.02289773
H       -0.77540899      -2.40367482      -1.03323482
H        1.12461952      -1.55886894       0.67431807
H        2.01069657      -0.77271801      -0.75197644
H        2.15567808       1.11661012       0.52630464
H        0.42816743       1.67210159       2.29051735
16
Frame=8 idx=006611 GeodesicLength=1.6305200486142135 rxn_smarts="[C:1]([C@@:2]([O:3][H:12])([C:4]([N:5]([C:6](=[O:7])[H:16])[H:15])([H:13])[H:14])[H:11])([H:8])([H:9])[H:10]>>[C:1](=[C:2]([O:3][H:12])[H:11])([H:8])[H:9].[C:4](=[N:5][H:15])([H:13])[H:14].[C:6](=[O:7])([H:10])[H:16]"
C       -1.11657106       0.77401715      -1.18221742
C       -0.85463175      -0.53420765      -0.82589688
O       -0.76989691      -1.70861294      -1.52393483
C        1.36154999      -0.62368400       0.03118501
N        1.51523289       0.40334788       0.86609490
C        0.11118614       0.80728556       1.61580586
O       -0.57532611      -0.17511996       1.93476558
H       -1.98308224       1.26874214      -0.75576803
H       -0.91099988       0.99979270      -2.22330574
H       -0.26321262       1.47831250       0.14790546
H       -1.47126271      -0.78361523       0.04872528
H       -0.82482344      -2.38942441      -0.83167551
H        1.19306750      -1.56242434       0.54855878
H        2.02435497      -0.64473181      -0.82641231
H        2.17654841       1.12234994       0.60685105
H        0.38786681       1.56797246       2.36931879
16
Frame=9 idx=006611 GeodesicLength=1.8341570414772694 rxn_smarts="[C:1]([C@@:2]([O:3][H:12])([C:4]([N:5]([C:6](=[O:7])[H:16])[H:15])([H:13])[H:14])[H:11])([H:8])([H:9])[H:10]>>[C:1](=[C:2]([O:3][H:12])[H:11])([H:8])[H:9].[C:4](=[N:5][H:15])([H:13])[H:14].[C:6](=[O:7])([H:10])[H:16]"
C       -1.08600891       0.78036412      -1.24019235
C       -0.86059305      -0.51735959      -0.81586377
O       -0.81603988      -1.75400809      -1.40031978
C        1.37641201      -0.57870255      -0.02730757
N        1.53017908       0.38344942       0.88792473
C        0.08839367       0.74815175       1.63870251
O       -0.58572856      -0.25868351       1.89574125
H       -1.95256352       1.31109263      -0.85813086
H       -0.90445849       0.92400417      -2.30071775
H       -0.26857186       1.50068603       0.12990588
H       -1.49355720      -0.68272455       0.06950148
H       -0.86111298      -2.35688747      -0.63628342
H        1.25323449      -1.55942751       0.42115765
H        2.03117478      -0.51719375      -0.88990405
H        2.19627778       1.11594341       0.68481551
H        0.35296264       1.46129547       2.44097053
16
Frame=10 idx=006611 GeodesicLength=2.0392777701773004 rxn_smarts="[C:1]([C@@:2]([O:3][H:12])([C:4]([N:5]([C:6](=[O:7])[H:16])[H:15])([H:13])[H:14])[H:11])([H:8])([H:9])[H:10]>>[C:1](=[C:2]([O:3][H:12])[H:11])([H:8])[H:9].[C:4](=[N:5][H:15])([H:13])[H:14].[C:6](=[O:7])([H:10])[H:16]"
C       -1.05943963       0.78129610      -1.29655726
C       -0.86614853      -0.50147777      -0.80632343
O       -0.85462070      -1.78634921      -1.27662669
C        1.38719989      -0.53487332      -0.08026442
N        1.54431615       0.35670141       0.90920670
C        0.06730711       0.69133709       1.65999052
O       -0.59900741      -0.33204417       1.85724937
H       -1.92375854       1.34399460      -0.95593848
H       -0.91057215       0.84418423      -2.37062628
H       -0.27213242       1.52482998       0.10557172
H       -1.50707960      -0.58617357       0.08712201
H       -0.88371111      -2.30940811      -0.45313553
H        1.30286037      -1.55064804       0.29384841
H        2.03423493      -0.39294641      -0.94003890
H        2.21678108       1.09651313       0.76090126
H        0.32377057       1.35506408       2.50562100
16
Frame=11 idx=006611 GeodesicLength=2.2454950579524167 rxn_smarts="[C:1]([C@@:2]([O:3][H:12])([C:4]([N:5]([C:6](=[O:7])[H:16])[H:15])([H:13])[H:14])[H:11])([H:8])([H:9])[H:10]>>[C:1](=[C:2]([O:3][H:12])[H:11])([H:8])[H:9].[C:4](=[N:5][H:15])([H:13])[H:14].[C:6](=[O:7])([H:10])[H:16]"
C       -1.04000843       0.77730167      -1.35083853
C       -0.87028054      -0.48624944      -0.79727946
O       -0.88463250      -1.80592415      -1.15795187
C        1.39519481      -0.49335967      -0.12644478
N        1.55803052       0.32306522       0.93050488
C        0.04798591       0.63932429       1.67990032
O       -0.61679870      -0.39231675       1.82036202
H       -1.90057792       1.36700439      -1.04674132
H       -0.93157094       0.76298177      -2.43221042
H       -0.27177807       1.55172143       0.07245140
H       -1.51052395      -0.49612311       0.10292818
H       -0.89235766      -2.25160438      -0.28791615
H        1.34079293      -1.53706333       0.16900282
H        2.03685265      -0.27486286      -0.97503729
H        2.23953534       1.06346349       0.83571843
H        0.30013656       1.25264143       2.56355178
16
Frame=12 idx=006611 GeodesicLength=2.4524350967679722 rxn_smarts="[C:1]([C@@:2]([O:3][H:12])([C:4]([N:5]([C:6](=[O:7])[H:16])[H:15])([H:13])[H:14])[H:11])([H:8])([H:9])[H:10]>>[C:1](=[C:2]([O:3][H:12])[H:11])([H:8])[H:9].[C:4](=[N:5][H:15])([H:13])[H:14].[C:6](=[O:7])([H:10])[H:16]"
C       -1.02957208       0.76918267      -1.40308397
C       -0.87200199      -0.47115560      -0.78866318
O       -0.90569691      -1.81407002      -1.04799821
C        1.40191308      -0.45452752      -0.16528179
N        1.57158241       0.28289095       0.95234546
C        0.03034657       0.59359217       1.69901141
O       -0.63966413      -0.43835713       1.78612514
H       -1.88570816       1.38072160      -1.12939930
H       -0.96872125       0.68185763      -2.48552147
H       -0.26604434       1.58198211       0.02884656
H       -1.50429603      -0.41318140       0.11751577
H       -0.88821674      -2.18819054      -0.14347799
H        1.36757604      -1.51914302       0.04835627
H        2.04201465      -0.16461418      -0.99442855
H        2.26511736       1.01704596       0.90985994
H        0.28137153       1.15596633       2.61579391
16
Frame=13 idx=006611 GeodesicLength=2.659985965247184 rxn_smarts="[C:1]([C@@:2]([O:3][H:12])([C:4]([N:5]([C:6](=[O:7])[H:16])[H:15])([H:13])[H:14])[H:11])([H:8])([H:9])[H:10]>>[C:1](=[C:2]([O:3][H:12])[H:11])([H:8])[H:9].[C:4](=[N:5][H:15])([H:13])[H:14].[C:6](=[O:7])([H:10])[H:16]"
C       -1.02897189       0.75772683      -1.45348862
C       -0.87086537      -0.45552437      -0.78032836
O       -0.91800032      -1.81264342      -0.94817568
C        1.40864906      -0.41819604      -0.19706687
N        1.58491230       0.23674457       0.97469134
C        0.01425542       0.55416803       1.71802703
O       -0.66718253      -0.47093869       1.75505615
H       -1.88075306       1.38631340      -1.20420644
H       -1.02018658       0.60155256      -2.53061203
H       -0.25457803       1.61569395      -0.02619520
H       -1.48984372      -0.33655079       0.13109644
H       -0.87354779      -2.12255935      -0.01926952
H        1.38510681      -1.49686131      -0.06740309
H        2.05168309      -0.06254157      -0.99899043
H        2.29288278       0.95833496       0.98325026
H        0.26643984       1.06528123       2.66361504
16
Frame=14 idx=006611 GeodesicLength=2.8684743071597625 rxn_smarts="[C:1]([C@@:2]([O:3][H:12])([C:4]([N:5]([C:6](=[O:7])[H:16])[H:15])([H:13])[H:14])[H:11])([H:8])([H:9])[H:10]>>[C:1](=[C:2]([O:3][H:12])[H:11])([H:8])[H:9].[C:4](=[N:5][H:15])([H:13])[H:14].[C:6](=[O:7])([H:10])[H:16]"
C       -1.03778448       0.74348579      -1.50260163
C       -0.86650382      -0.43861917      -0.77243665
O       -0.92230839      -1.80330213      -0.85835471
C        1.41645682      -0.38359868      -0.22227924
N        1.59780813       0.18500733       0.99762558
C       -0.00056542       0.52032779       1.73756549
O       -0.69881596      -0.49148076       1.72691615
H       -1.88544975       1.38528620      -1.27192847
H       -1.08590098       0.52125738      -2.56777585
H       -0.23724842       1.65253131      -0.09372401
H       -1.46837251      -0.26437306       0.14340813
H       -0.85000772      -2.05649247       0.08700814
H        1.39550902      -1.46951960      -0.17848434
H        2.06713514       0.03193092      -0.98967460
H        2.32189697       0.88821308       1.05629138
H        0.25415135       0.97934606       2.70844463
16
Frame=15 idx=006611 GeodesicLength=3.0782395190599985 rxn_smarts="[C:1]([C@@:2]([O:3][H:12])([C:4]([N:5]([C:6](=[O:7])[H:16])[H:15])([H:13])[H:14])[H:11])([H:8])([H:9])[H:10]>>[C:1](=[C:2]([O:3][H:12])[H:11])([H:8])[H:9].[C:4](=[N:5][H:15])([H:13])[H:14].[C:6](=[O:7])([H:10])[H:16]"
C       -1.05584670       0.72668807      -1.55048240
C       -0.85897572      -0.41974997      -0.76507273
O       -0.91923606      -1.78725578      -0.77751228
C        1.42599679      -0.35002301      -0.24161315
N        1.60989196       0.12801015       1.02069998
C       -0.01427387       0.49084749       1.75812927
O       -0.73378066      -0.50166018       1.70112532
H       -1.89981048       1.37864375      -1.33351410
H       -1.16317118       0.44051102      -2.59662895
H       -0.21437735       1.69186170      -0.17503152
H       -1.44080923      -0.19477608       0.15437154
H       -0.81951928      -1.99048482       0.17834743
H        1.40075647      -1.43620862      -0.28530086
H        2.08888823       0.11954476      -0.96753086
H        2.35071323       0.80777718       1.12863208
H        0.24355382       0.89627433       2.75138124
16
Frame=16 idx=006611 GeodesicLength=3.2898357516850334 rxn_smarts="[C:1]([C@@:2]([O:3][H:12])([C:4]([N:5]([C:6](=[O:7])[H:16])[H:15])([H:13])[H:14])[H:11])([H:8])([H:9])[H:10]>>[C:1](=[C:2]([O:3][H:12])[H:11])([H:8])[H:9].[C:4](=[N:5][H:15])([H:13])[H:14].[C:6](=[O:7])([H:10])[H:16]"
C       -1.08262863       0.70723589      -1.59729784
C       -0.84817997      -0.39828687      -0.75864862
O       -0.90921396      -1.76521827      -0.70447759
C        1.43786618      -0.31648624      -0.25543190
N        1.62069468       0.06594024       1.04365549
C       -0.02717439       0.46454110       1.78008342
O       -0.77161683      -0.50267613       1.67664884
H       -1.92287181       1.36741070      -1.38943347
H       -1.25221141       0.35802796      -2.61640643
H       -0.18585809       1.73271267      -0.27240478
H       -1.40727689      -0.12573117       0.16360863
H       -0.78316029      -1.92414559       0.25749018
H        1.40248436      -1.39551213      -0.38832365
H        2.11734549       0.20120551      -0.93302522
H        2.37824896       0.71738329       1.20057975
H        0.23355258       0.81359902       2.79338319
