19
Frame=0 idx=006354 GeodesicLength=0.0 rxn_smarts="[C:1]([C:2]([C@@:3]([O:4][H:14])([C:5]([C:6]([O:7][H:19])([H:17])[H:18])([H:15])[H:16])[H:13])([H:11])[H:12])([H:8])([H:9])[H:10]>>[C:1]([C:2]([C@:3]1([H:13])[C:5]([H:15])([H:16])[C:6]([H:17])([H:18])[O:7]1)([H:11])[H:12])([H:8])([H:9])[H:10].[O:4]([H:14])[H:19]"
C        2.28890287      -0.63312909       0.73737114
C        1.43853495      -0.03177327      -0.36870312
C        0.00498823      -0.33544712      -0.32535221
O       -0.17635520       0.92371552       1.74640168
C       -0.99360404       0.35042921      -1.16693406
C       -2.31324626      -0.20935985      -0.63531220
O       -2.10961696      -0.27239464       0.71777387
H        3.34702859      -0.45372926       0.54665135
H        2.01339057      -0.18349165       1.68959758
H        2.13549690      -1.71153999       0.80982285
H        1.70692690      -0.49669334      -1.33865236
H        1.60986957       1.03760447      -0.49572164
H       -0.29389329      -1.29177453       0.08961861
H       -0.24255056       1.88007944       1.74667088
H       -0.72699855       0.22841419      -2.22949471
H       -0.94862954       1.42370719      -0.96064986
H       -2.49336131      -1.20607629      -1.08412449
H       -3.16481735       0.42081834      -0.93621656
H       -1.08206546       0.56064068       1.45725326
19
Frame=1 idx=006354 GeodesicLength=0.11752136404317448 rxn_smarts="[C:1]([C:2]([C@@:3]([O:4][H:14])([C:5]([C:6]([O:7][H:19])([H:17])[H:18])([H:15])[H:16])[H:13])([H:11])[H:12])([H:8])([H:9])[H:10]>>[C:1]([C:2]([C@:3]1([H:13])[C:5]([H:15])([H:16])[C:6]([H:17])([H:18])[O:7]1)([H:11])[H:12])([H:8])([H:9])[H:10].[O:4]([H:14])[H:19]"
C        2.29229983      -0.63597125       0.73622177
C        1.43942593      -0.03024485      -0.36583775
C        0.00275923      -0.33055797      -0.31107668
O       -0.17517761       0.93350681       1.73332889
C       -0.98975124       0.34669960      -1.17179952
C       -2.31016663      -0.20224299      -0.63288899
O       -2.08647406      -0.28734444       0.71884330
H        3.34992912      -0.45164147       0.54708886
H        2.01653223      -0.19603343       1.69301499
H        2.14336807      -1.71563323       0.80118672
H        1.70847008      -0.48922596      -1.33756791
H        1.60890913       1.04046712      -0.48602237
H       -0.27824741      -1.30787030       0.06889929
H       -0.26734568       1.88809893       1.74708318
H       -0.73093536       0.19977395      -2.23232626
H       -0.94035539       1.42340131      -0.98643637
H       -2.50759197      -1.19322321      -1.08546565
H       -3.15815814       0.44248159      -0.91002464
H       -1.11749014       0.56555979       1.47377912
19
Frame=2 idx=006354 GeodesicLength=0.2347484739961832 rxn_smarts="[C:1]([C:2]([C@@:3]([O:4][H:14])([C:5]([C:6]([O:7][H:19])([H:17])[H:18])([H:15])[H:16])[H:13])([H:11])[H:12])([H:8])([H:9])[H:10]>>[C:1]([C:2]([C@:3]1([H:13])[C:5]([H:15])([H:16])[C:6]([H:17])([H:18])[O:7]1)([H:11])[H:12])([H:8])([H:9])[H:10].[O:4]([H:14])[H:19]"
C        2.29555287      -0.63857859       0.73509460
C        1.44023063      -0.02867018      -0.36307174
C        0.00058774      -0.32636921      -0.29734345
O       -0.17453160       0.94299392       1.72013955
C       -0.98573951       0.34247104      -1.17687419
C       -2.30703307      -0.19456649      -0.63005820
O       -2.06337132      -0.30105075       0.71980953
H        3.35265543      -0.44894807       0.54790518
H        2.01912760      -0.20862418       1.69634864
H        2.15142351      -1.71947736       0.79235860
H        1.71046226      -0.48135527      -1.33657146
H        1.60760201       1.04338961      -0.47624690
H       -0.26229867      -1.32287867       0.04768192
H       -0.29237691       1.89499574       1.74749723
H       -0.73525519       0.17046260      -2.23482904
H       -0.93126253       1.42220233      -1.01286370
H       -2.52237710      -1.17980065      -1.08539001
H       -3.15047936       0.46465706      -0.88367466
H       -1.15291681       0.56914712       1.49008810
19
Frame=3 idx=006354 GeodesicLength=0.35177653636486494 rxn_smarts="[C:1]([C:2]([C@@:3]([O:4][H:14])([C:5]([C:6]([O:7][H:19])([H:17])[H:18])([H:15])[H:16])[H:13])([H:11])[H:12])([H:8])([H:9])[H:10]>>[C:1]([C:2]([C@:3]1([H:13])[C:5]([H:15])([H:16])[C:6]([H:17])([H:18])[O:7]1)([H:11])[H:12])([H:8])([H:9])[H:10].[O:4]([H:14])[H:19]"
C        2.29871748      -0.64097705       0.73394102
C        1.44097086      -0.02707133      -0.36042698
C       -0.00152531      -0.32283313      -0.28409541
O       -0.17427525       0.95224589       1.70683224
C       -0.98157268       0.33777324      -1.18212325
C       -2.30383337      -0.18634621      -0.62688942
O       -2.04044386      -0.31346722       0.72066914
H        3.35525633      -0.44574016       0.54898776
H        2.02131770      -0.22124648       1.69954599
H        2.15967187      -1.72308054       0.78333750
H        1.71284319      -0.47315167      -1.33567601
H        1.60599910       1.04633459      -0.46646455
H       -0.24611787      -1.33671881       0.02625967
H       -0.31784162       1.90079873       1.74802772
H       -0.73995112       0.14057618      -2.23695155
H       -0.92139858       1.42010521      -1.03986562
H       -2.53759907      -1.16583288      -1.08394465
H       -3.14176006       0.48730628      -0.85737766
H       -1.18845773       0.57132537       1.50621407
19
Frame=4 idx=006354 GeodesicLength=0.46864620821918124 rxn_smarts="[C:1]([C:2]([C@@:3]([O:4][H:14])([C:5]([C:6]([O:7][H:19])([H:17])[H:18])([H:15])[H:16])[H:13])([H:11])[H:12])([H:8])([H:9])[H:10]>>[C:1]([C:2]([C@:3]1([H:13])[C:5]([H:15])([H:16])[C:6]([H:17])([H:18])[O:7]1)([H:11])[H:12])([H:8])([H:9])[H:10].[O:4]([H:14])[H:19]"
C        2.30183893      -0.64317488       0.73272344
C        1.44166315      -0.02546584      -0.35792859
C       -0.00358102      -0.31988849      -0.27127711
O       -0.17428991       0.96133132       1.69340116
C       -0.97726033       0.33263337      -1.18751863
C       -2.30055434      -0.17759178      -0.62345132
O       -2.01780915      -0.32456871       0.72142011
H        3.35777133      -0.44208562       0.55023789
H        2.02322584      -0.23385667       1.70256501
H        2.16811464      -1.72643848       0.77414208
H        1.71554898      -0.46469385      -1.33489306
H        1.60414908       1.04927301      -0.45675798
H       -0.22977645      -1.34936534       0.00490384
H       -0.34384993       1.90548114       1.74881303
H       -0.74502241       0.11019196      -2.23864814
H       -0.91081366       1.41710405      -1.06738931
H       -2.55315119      -1.15132704      -1.08120282
H       -3.13197746       0.51040485      -0.83131432
H       -1.22422610       0.57203701       1.52217471
19
Frame=5 idx=006354 GeodesicLength=0.585513553329134 rxn_smarts="[C:1]([C:2]([C@@:3]([O:4][H:14])([C:5]([C:6]([O:7][H:19])([H:17])[H:18])([H:15])[H:16])[H:13])([H:11])[H:12])([H:8])([H:9])[H:10]>>[C:1]([C:2]([C@:3]1([H:13])[C:5]([H:15])([H:16])[C:6]([H:17])([H:18])[O:7]1)([H:11])[H:12])([H:8])([H:9])[H:10].[O:4]([H:14])[H:19]"
C        2.30496515      -0.64519491       0.73139743
C        1.44232270      -0.02388029      -0.35559329
C       -0.00558132      -0.31748741      -0.25882079
O       -0.17443114       0.97032465       1.67984020
C       -0.97280339       0.32708615      -1.19301451
C       -2.29719057      -0.16833534      -0.61982088
O       -1.99557716      -0.33434513       0.72206555
H        3.36024392      -0.43807277       0.55154411
H        2.02498360      -0.24642791       1.70535380
H        2.17675122      -1.72955495       0.76478072
H        1.71851344      -0.45606618      -1.33422707
H        1.60210433       1.05215962      -0.44720111
H       -0.21333118      -1.36074505      -0.01614193
H       -0.37047677       1.90904493       1.74998323
H       -0.75044299       0.07944406      -2.23986749
H       -0.89956714       1.41320601      -1.09533170
H       -2.56890733      -1.13633331      -1.07722811
H       -3.12117410       0.53387667      -0.80571775
H       -1.26040127       0.57130117       1.53799959
19
Frame=6 idx=006354 GeodesicLength=0.7023699919668488 rxn_smarts="[C:1]([C:2]([C@@:3]([O:4][H:14])([C:5]([C:6]([O:7][H:19])([H:17])[H:18])([H:15])[H:16])[H:13])([H:11])[H:12])([H:8])([H:9])[H:10]>>[C:1]([C:2]([C@:3]1([H:13])[C:5]([H:15])([H:16])[C:6]([H:17])([H:18])[O:7]1)([H:11])[H:12])([H:8])([H:9])[H:10].[O:4]([H:14])[H:19]"
C        2.30812711      -0.64702207       0.72994287
C        1.44296112      -0.02232789      -0.35344780
C       -0.00752928      -0.31555295      -0.24667536
O       -0.17460635       0.97930955       1.66612736
C       -0.96821448       0.32115813      -1.19859139
C       -2.29372619      -0.15858005      -0.61605601
O       -1.97382245      -0.34280702       0.72260980
H        3.36270199      -0.43373919       0.55282905
H        2.02668715      -0.25887903       1.70788590
H        2.18557309      -1.73241005       0.75530350
H        1.72167509      -0.44736136      -1.33368606
H        1.59991286       1.05497302      -0.43789392
H       -0.19684388      -1.37091775      -0.03666154
H       -0.39773220       1.91139290       1.75170448
H       -0.75621667       0.04838255      -2.24057572
H       -0.88771387       1.40840524      -1.12366461
H       -2.58478747      -1.12082677      -1.07214046
H       -3.10933003       0.55772535      -0.78069659
H       -1.29711553       0.56907741       1.55368650
19
Frame=7 idx=006354 GeodesicLength=0.819192462513417 rxn_smarts="[C:1]([C:2]([C@@:3]([O:4][H:14])([C:5]([C:6]([O:7][H:19])([H:17])[H:18])([H:15])[H:16])[H:13])([H:11])[H:12])([H:8])([H:9])[H:10]>>[C:1]([C:2]([C@:3]1([H:13])[C:5]([H:15])([H:16])[C:6]([H:17])([H:18])[O:7]1)([H:11])[H:12])([H:8])([H:9])[H:10].[O:4]([H:14])[H:19]"
C        2.31135247      -0.64865098       0.72833812
C        1.44358849      -0.02082529      -0.35151052
C       -0.00942707      -0.31402618      -0.23479371
O       -0.17472116       0.98836340       1.65224089
C       -0.96349870       0.31487387      -1.20422646
C       -2.29015384      -0.14834151      -0.61221533
O       -1.95260121      -0.34995190       0.72306856
H        3.36517171      -0.42912577       0.55402067
H        2.02842115      -0.27115057       1.71013271
H        2.19457283      -1.73498949       0.74574419
H        1.72498282      -0.43866115      -1.33327506
H        1.59761834       1.05768712      -0.42891888
H       -0.18036537      -1.37991189      -0.05647957
H       -0.42558965       1.91245163       1.75413626
H       -0.76233468       0.01708517      -2.24074055
H       -0.87530290       1.40270275      -1.15233611
H       -2.60070948      -1.10481017      -1.06602021
H       -3.09647884       0.58191938      -0.75640253
H       -1.33452491       0.56536157       1.56923753
19
Frame=8 idx=006354 GeodesicLength=0.9360570426085227 rxn_smarts="[C:1]([C:2]([C@@:3]([O:4][H:14])([C:5]([C:6]([O:7][H:19])([H:17])[H:18])([H:15])[H:16])[H:13])([H:11])[H:12])([H:8])([H:9])[H:10]>>[C:1]([C:2]([C@:3]1([H:13])[C:5]([H:15])([H:16])[C:6]([H:17])([H:18])[O:7]1)([H:11])[H:12])([H:8])([H:9])[H:10].[O:4]([H:14])[H:19]"
C        2.31466825      -0.65006537       0.72656447
C        1.44421681      -0.01939115      -0.34980479
C       -0.01127572      -0.31284226      -0.22312630
O       -0.17467238       0.99758424       1.63814550
C       -0.95866087       0.30825124      -1.20989440
C       -2.28646679      -0.13762902      -0.60835548
O       -1.93195694      -0.35579483       0.72345786
H        3.36768028      -0.42426442       0.55504482
H        2.03026754      -0.28316124       1.71206783
H        2.20374149      -1.73727330       0.73615204
H        1.72838859      -0.43006284      -1.33299919
H        1.59527084       1.06027314      -0.42037547
H       -0.16394173      -1.38776462      -0.07544429
H       -0.45399530       1.91210388       1.75747820
H       -0.76878660      -0.01438266      -2.24032843
H       -0.86238086       1.39609203      -1.18130189
H       -2.61660168      -1.08827471      -1.05896269
H       -3.08264951       0.60644411      -0.73296184
H       -1.37284541       0.56015778       1.58464404
19
Frame=9 idx=006354 GeodesicLength=1.0535820644127651 rxn_smarts="[C:1]([C:2]([C@@:3]([O:4][H:14])([C:5]([C:6]([O:7][H:19])([H:17])[H:18])([H:15])[H:16])[H:13])([H:11])[H:12])([H:8])([H:9])[H:10]>>[C:1]([C:2]([C@:3]1([H:13])[C:5]([H:15])([H:16])[C:6]([H:17])([H:18])[O:7]1)([H:11])[H:12])([H:8])([H:9])[H:10].[O:4]([H:14])[H:19]"
C        2.31811694      -0.65126373       0.72459444
C        1.44486233      -0.01807185      -0.34838316
C       -0.01307655      -0.31186705      -0.21157030
O       -0.17422992       1.00709571       1.62377347
C       -0.95371801       0.30135846      -1.21553318
C       -2.28262027      -0.12649811      -0.60454290
O       -1.91185220      -0.36044810       0.72376187
H        3.37027614      -0.41926276       0.55578074
H        2.03238157      -0.29476936       1.71364818
H        2.21303222      -1.73925471       0.72663336
H        1.73179312      -0.42177236      -1.33288352
H        1.59296890       1.06266622      -0.41245968
H       -0.14754838      -1.39455653      -0.09346467
H       -0.48283526       1.91006046       1.76214561
H       -0.77551882      -0.04584821      -2.23930415
H       -0.84909934       1.38861539      -1.21041232
H       -2.63229917      -1.07125584      -1.05112955
H       -3.06791581       0.63111349      -0.71050872
H       -1.41271748       0.55395888       1.59985448
19
Frame=10 idx=006354 GeodesicLength=1.1712159815687389 rxn_smarts="[C:1]([C:2]([C@@:3]([O:4][H:14])([C:5]([C:6]([O:7][H:19])([H:17])[H:18])([H:15])[H:16])[H:13])([H:11])[H:12])([H:8])([H:9])[H:10]>>[C:1]([C:2]([C@:3]1([H:13])[C:5]([H:15])([H:16])[C:6]([H:17])([H:18])[O:7]1)([H:11])[H:12])([H:8])([H:9])[H:10].[O:4]([H:14])[H:19]"
C        2.32169634      -0.65219239       0.72243442
C        1.44553322      -0.01685558      -0.34725673
C       -0.01482383      -0.31109096      -0.20015206
O       -0.17342993       1.01706392       1.60903258
C       -0.94865567       0.29415643      -1.22119369
C       -2.27863511      -0.11487952      -0.60079934
O       -1.89235101      -0.36374767       0.72403802
H        3.37295713      -0.41405615       0.55622358
H        2.03474396      -0.30589785       1.71487568
H        2.22245493      -1.74088473       0.71722327
H        1.73521516      -0.41380543      -1.33292577
H        1.59072326       1.06488331      -0.40522478
H       -0.13128621      -1.40029046      -0.11037776
H       -0.51206656       1.90614412       1.76834833
H       -0.78256663      -0.07743024      -2.23767585
H       -0.83537472       1.38022086      -1.23980614
H       -2.64785333      -1.05369492      -1.04248991
H       -3.05226028       0.65611705      -0.68910913
H       -1.45402071       0.54624020       1.61483527
19
Frame=11 idx=006354 GeodesicLength=1.288939857999395 rxn_smarts="[C:1]([C:2]([C@@:3]([O:4][H:14])([C:5]([C:6]([O:7][H:19])([H:17])[H:18])([H:15])[H:16])[H:13])([H:11])[H:12])([H:8])([H:9])[H:10]>>[C:1]([C:2]([C@:3]1([H:13])[C:5]([H:15])([H:16])[C:6]([H:17])([H:18])[O:7]1)([H:11])[H:12])([H:8])([H:9])[H:10].[O:4]([H:14])[H:19]"
C        2.32542013      -0.65282420       0.72007930
C        1.44623971      -0.01575607      -0.34645876
C       -0.01651526      -0.31043451      -0.18884052
O       -0.17218115       1.02763162       1.59383998
C       -0.94347716       0.28665528      -1.22687748
C       -2.27449582      -0.10276428      -0.59715856
O       -1.87343630      -0.36564912       0.72430881
H        3.37574244      -0.40866403       0.55632118
H        2.03741071      -0.31643645       1.71573685
H        2.23198308      -1.74213885       0.70799498
H        1.73861853      -0.40627066      -1.33314240
H        1.58858934       1.06690689      -0.39879398
H       -0.11518178      -1.40502503      -0.12610035
H       -0.54160220       1.90011738       1.77641310
H       -0.78992542      -0.10911017      -2.23543636
H       -0.82123135       1.37089879      -1.26948426
H       -2.66321059      -1.03558469      -1.03308692
H       -3.03570465       0.68146008      -0.66884142
H       -1.49704226       0.53698802       1.62952679
19
Frame=12 idx=006354 GeodesicLength=1.4067381268213741 rxn_smarts="[C:1]([C:2]([C@@:3]([O:4][H:14])([C:5]([C:6]([O:7][H:19])([H:17])[H:18])([H:15])[H:16])[H:13])([H:11])[H:12])([H:8])([H:9])[H:10]>>[C:1]([C:2]([C@:3]1([H:13])[C:5]([H:15])([H:16])[C:6]([H:17])([H:18])[O:7]1)([H:11])[H:12])([H:8])([H:9])[H:10].[O:4]([H:14])[H:19]"
C        2.32930369      -0.65311431       0.71752551
C        1.44699064      -0.01478857      -0.34602631
C       -0.01814722      -0.30982534      -0.17760637
O       -0.17038675       1.03896457       1.57808464
C       -0.93818312       0.27885856      -1.23258803
C       -2.27018288      -0.09012743      -0.59366009
O       -1.85509669      -0.36609713       0.72459375
H        3.37865202      -0.40308419       0.55601827
H        2.04043524      -0.32624807       1.71621999
H        2.24159873      -1.74298119       0.69903606
H        1.74196921      -0.39928750      -1.33354825
H        1.58661892       1.06871819      -0.39331117
H       -0.09926349      -1.40879960      -0.14053854
H       -0.57128519       1.89164057       1.78674694
H       -0.79759740      -0.14090595      -2.23256480
H       -0.80669710       1.36061976      -1.29946909
H       -2.67833025      -1.01689008      -1.02296516
H       -3.01826336       0.70716813      -0.64979559
H       -1.54213501       0.52617957       1.64384826
19
Frame=13 idx=006354 GeodesicLength=1.5245820995024544 rxn_smarts="[C:1]([C:2]([C@@:3]([O:4][H:14])([C:5]([C:6]([O:7][H:19])([H:17])[H:18])([H:15])[H:16])[H:13])([H:11])[H:12])([H:8])([H:9])[H:10]>>[C:1]([C:2]([C@:3]1([H:13])[C:5]([H:15])([H:16])[C:6]([H:17])([H:18])[O:7]1)([H:11])[H:12])([H:8])([H:9])[H:10].[O:4]([H:14])[H:19]"
C        2.33335502      -0.65300933       0.71477632
C        1.44779795      -0.01397061      -0.34600285
C       -0.01971440      -0.30917882      -0.16642727
O       -0.16794958       1.05127506       1.56162011
C       -0.93277474       0.27076019      -1.23833458
C       -2.26568654      -0.07693614      -0.59034493
O       -1.83730065      -0.36500026       0.72492577
H        3.38170172      -0.39731148       0.55526487
H        2.04386091      -0.33516492       1.71631052
H        2.25126959      -1.74335925       0.69045643
H        1.74523984      -0.39299265      -1.33415889
H        1.58487233       1.07029444      -0.38894142
H       -0.08356920      -1.41164475      -0.15360333
H       -0.60090378       1.88027738       1.79982348
H       -0.80557859      -0.17283135      -2.22904611
H       -0.79178675       1.34935891      -1.32979968
H       -2.69317741      -0.99757983      -1.01213483
H       -2.99996667       0.73327090      -0.63208180
H       -1.58968905       0.51374252       1.65769820
19
Frame=14 idx=006354 GeodesicLength=1.642359356703776 rxn_smarts="[C:1]([C:2]([C@@:3]([O:4][H:14])([C:5]([C:6]([O:7][H:19])([H:17])[H:18])([H:15])[H:16])[H:13])([H:11])[H:12])([H:8])([H:9])[H:10]>>[C:1]([C:2]([C@:3]1([H:13])[C:5]([H:15])([H:16])[C:6]([H:17])([H:18])[O:7]1)([H:11])[H:12])([H:8])([H:9])[H:10].[O:4]([H:14])[H:19]"
C        2.33757511      -0.65242768       0.71184204
C        1.44866749      -0.01331647      -0.34643724
C       -0.02121300      -0.30839816      -0.15528736
O       -0.16476781       1.06480913       1.54425446
C       -0.92725900       0.26235222      -1.24413653
C       -2.26098833      -0.06314258      -0.58725765
O       -1.82002447      -0.36222826       0.72532704
H        3.38489959      -0.39132095       0.55401853
H        2.04771917      -0.34297249       1.71599621
H        2.26095675      -1.74320071       0.68240047
H        1.74839838      -0.38754314      -1.33498603
H        1.58340626       1.07161160      -0.38588513
H       -0.06814035      -1.41357148      -0.16519647
H       -0.63014697       1.86542414       1.81625578
H       -0.81389050      -0.20494332      -2.22484513
H       -0.77652496       1.33705681      -1.36054860
H       -2.70771933      -0.97760424      -1.00060592
H       -2.98081772       0.75982487      -0.61581908
H       -1.64013032       0.49959070       1.67091062
19
Frame=15 idx=006354 GeodesicLength=1.7599522653120954 rxn_smarts="[C:1]([C:2]([C@@:3]([O:4][H:14])([C:5]([C:6]([O:7][H:19])([H:17])[H:18])([H:15])[H:16])[H:13])([H:11])[H:12])([H:8])([H:9])[H:10]>>[C:1]([C:2]([C@:3]1([H:13])[C:5]([H:15])([H:16])[C:6]([H:17])([H:18])[O:7]1)([H:11])[H:12])([H:8])([H:9])[H:10].[O:4]([H:14])[H:19]"
C        2.34194856      -0.65125712       0.70875267
C        1.44960134      -0.01283891      -0.34738862
C       -0.02264413      -0.30736463      -0.14417646
O       -0.16073515       1.07989639       1.52573387
C       -0.92164459       0.25361694      -1.25003078
C       -2.25607643      -0.04867394      -0.58444931
O       -1.80323008      -0.35758296       0.72581868
H        3.38823997      -0.38507057       0.55225009
H        2.05202717      -0.34938235       1.71527092
H        2.27059066      -1.74239507       0.67506897
H        1.75140506      -0.38312780      -1.33603405
H        1.58228402       1.07264321      -0.38438164
H       -0.05304256      -1.41457456      -0.17520211
H       -0.65855237       1.84623879       1.83677607
H       -0.82255931      -0.23731327      -2.21993232
H       -0.76093292       1.32363943      -1.39181978
H       -2.72194387      -0.95690380      -0.98835773
H       -2.96082698       0.78690522      -0.60114785
H       -1.69390841       0.48354499       1.68324937
19
Frame=16 idx=006354 GeodesicLength=1.8772481428967598 rxn_smarts="[C:1]([C:2]([C@@:3]([O:4][H:14])([C:5]([C:6]([O:7][H:19])([H:17])[H:18])([H:15])[H:16])[H:13])([H:11])[H:12])([H:8])([H:9])[H:10]>>[C:1]([C:2]([C@:3]1([H:13])[C:5]([H:15])([H:16])[C:6]([H:17])([H:18])[O:7]1)([H:11])[H:12])([H:8])([H:9])[H:10].[O:4]([H:14])[H:19]"
C        2.34642392      -0.64931827       0.70557728
C        1.45059832      -0.01254505      -0.34895542
C       -0.02402602      -0.30592681      -0.13309488
O       -0.15576174       1.09706031       1.50567205
C       -0.91594583       0.24451727      -1.25610167
C       -2.25095473      -0.03341404      -0.58197581
O       -1.78689830      -0.35078374       0.72641899
H        3.39169395      -0.37847663       0.54994171
H        2.05674799      -0.35394009       1.71416642
H        2.28004726      -1.74080295       0.66879209
H        1.75423364      -0.38001990      -1.33734001
H        1.58158366       1.07339837      -0.38479900
H       -0.03837451      -1.41467055      -0.18345883
H       -0.68538849       1.82140953       1.86247890
H       -0.83161375      -0.27007511      -2.21431182
H       -0.74501793       1.30902226      -1.42381895
H       -2.73587232      -0.93541330      -0.97535773
H       -2.93998572       0.81466558      -0.58822868
H       -1.75148940       0.46531312       1.69439535
