15
Frame=0 idx=007170 GeodesicLength=0.0 rxn_smarts="[C:1]([C@@:2]1([H:11])[C:3]([H:12])([H:13])[N:4]1[C:5]([C:6]#[N:7])([H:14])[H:15])([H:8])([H:9])[H:10]>>[C:1]([C:2]1=[N+:4]([C-:5]([C:6]#[N:7])[H:15])[C:3]1([H:12])[H:13])([H:8])([H:9])[H:10].[H:11][H:14]"
C       -1.72033732      -0.99149285       0.15361472
C       -0.74934493       0.11663243       0.02710129
C       -0.52881432       1.53870753       0.35547238
N        0.41638136       0.45020308       0.55159667
C        1.68280056       0.28694267       0.09585306
C        2.20526671      -1.03995165       0.11341784
N        2.60690708      -2.11863524       0.08729333
H       -2.18178411      -0.99476104       1.14530462
H       -1.22696308      -1.94923755      -0.01042597
H       -2.51114019      -0.87190086      -0.58609457
H        0.00123958       0.06887928      -1.47566905
H       -0.34189414       2.21265776      -0.48146393
H       -0.88403102       2.00590437       1.26959319
H        0.85648276       0.18917408      -1.52655775
H        2.37523102       1.09687806       0.28096412
15
Frame=1 idx=007170 GeodesicLength=0.05551999286218226 rxn_smarts="[C:1]([C@@:2]1([H:11])[C:3]([H:12])([H:13])[N:4]1[C:5]([C:6]#[N:7])([H:14])[H:15])([H:8])([H:9])[H:10]>>[C:1]([C:2]1=[N+:4]([C-:5]([C:6]#[N:7])[H:15])[C:3]1([H:12])[H:13])([H:8])([H:9])[H:10].[H:11][H:14]"
C       -1.72306828      -0.98867459       0.15364821
C       -0.75001496       0.11691767       0.01685088
C       -0.52908895       1.53547291       0.35995349
N        0.41608655       0.44577368       0.55098745
C        1.68227273       0.28673821       0.08401974
C        2.20898299      -1.03904981       0.11869712
N        2.61384178      -2.11665129       0.09862873
H       -2.18258556      -0.98535911       1.14602362
H       -1.23149489      -1.94841027      -0.00438966
H       -2.51488665      -0.87301221      -0.58584680
H       -0.00294652       0.06891805      -1.48809931
H       -0.34014862       2.21802541      -0.46937703
H       -0.88833463       1.99372856       1.27700327
H        0.86783045       0.18863743      -1.53143257
H        2.37355457       1.09694536       0.27333286
15
Frame=2 idx=007170 GeodesicLength=0.1110336539950893 rxn_smarts="[C:1]([C@@:2]1([H:11])[C:3]([H:12])([H:13])[N:4]1[C:5]([C:6]#[N:7])([H:14])[H:15])([H:8])([H:9])[H:10]>>[C:1]([C:2]1=[N+:4]([C-:5]([C:6]#[N:7])[H:15])[C:3]1([H:12])[H:13])([H:8])([H:9])[H:10].[H:11][H:14]"
C       -1.72579642      -0.98578448       0.15367849
C       -0.75070220       0.11723403       0.00668912
C       -0.52935373       1.53215752       0.36439005
N        0.41576825       0.44127774       0.55038907
C        1.68170008       0.28639861       0.07240770
C        2.21271665      -1.03804695       0.12397535
N        2.62087805      -2.11449073       0.10993642
H       -2.18330808      -0.97604611       1.14672748
H       -1.23605490      -1.94745868       0.00149509
H       -2.51869732      -0.87396159      -0.58549378
H       -0.00738031       0.06883044      -1.50053884
H       -0.33835052       2.22319316      -0.45725905
H       -0.89254932       1.98156519       1.28424008
H        0.87935950       0.18815399      -1.53630013
H        2.37177027       1.09697787       0.26566296
15
Frame=3 idx=007170 GeodesicLength=0.16655284815219878 rxn_smarts="[C:1]([C@@:2]1([H:11])[C:3]([H:12])([H:13])[N:4]1[C:5]([C:6]#[N:7])([H:14])[H:15])([H:8])([H:9])[H:10]>>[C:1]([C:2]1=[N+:4]([C-:5]([C:6]#[N:7])[H:15])[C:3]1([H:12])[H:13])([H:8])([H:9])[H:10].[H:11][H:14]"
C       -1.72853933      -0.98281807       0.15370186
C       -0.75140918       0.11757514      -0.00338480
C       -0.52960449       1.52875209       0.36879981
N        0.41543149       0.43669931       0.54979250
C        1.68108834       0.28592175       0.06098671
C        2.21647648      -1.03694983       0.12922497
N        2.62809427      -2.11213290       0.12126291
H       -2.18401941      -0.96677138       1.14739263
H       -1.24066195      -1.94639147       0.00728576
H       -2.52255679      -0.87476188      -0.58507997
H       -0.01209801       0.06862278      -1.51300032
H       -0.33649661       2.22816664      -0.44508159
H       -0.89665968       1.96938916       1.29133986
H        0.89107214       0.18772436      -1.54117882
H        2.36988273       1.09697429       0.25793848
15
Frame=4 idx=007170 GeodesicLength=0.22208559371904085 rxn_smarts="[C:1]([C@@:2]1([H:11])[C:3]([H:12])([H:13])[N:4]1[C:5]([C:6]#[N:7])([H:14])[H:15])([H:8])([H:9])[H:10]>>[C:1]([C:2]1=[N+:4]([C-:5]([C:6]#[N:7])[H:15])[C:3]1([H:12])[H:13])([H:8])([H:9])[H:10].[H:11][H:14]"
C       -1.73131335      -0.97976945       0.15371488
C       -0.75213724       0.11793482      -0.01337598
C       -0.52983513       1.52524713       0.37319266
N        0.41507925       0.43202409       0.54918738
C        1.68044132       0.28530738       0.04973473
C        2.22026905      -1.03576183       0.13442986
N        2.63555586      -2.10955592       0.13265642
H       -2.18474822      -0.95751080       1.14801140
H       -1.24534371      -1.94521153       0.01299570
H       -2.52647259      -0.87540597      -0.58461770
H       -0.01712921       0.06829876      -1.52549465
H       -0.33458166       2.23294596      -0.43282598
H       -0.90065856       1.95717564       1.29832371
H        0.90298001       0.18734705      -1.54608040
H        2.36789419       1.09693467       0.25014798
15
Frame=5 idx=007170 GeodesicLength=0.277619147832201 rxn_smarts="[C:1]([C@@:2]1([H:11])[C:3]([H:12])([H:13])[N:4]1[C:5]([C:6]#[N:7])([H:14])[H:15])([H:8])([H:9])[H:10]>>[C:1]([C:2]1=[N+:4]([C-:5]([C:6]#[N:7])[H:15])[C:3]1([H:12])[H:13])([H:8])([H:9])[H:10].[H:11][H:14]"
C       -1.73409319      -0.97665496       0.15372258
C       -0.75288447       0.11831922      -0.02327800
C       -0.53005046       1.52165945       0.37754793
N        0.41470969       0.42727443       0.54857940
C        1.67976124       0.28456396       0.03866192
C        2.22407968      -1.03448818       0.13959238
N        2.64315156      -2.10679740       0.14410956
H       -2.18542408      -0.94832834       1.14861249
H       -1.25006419      -1.94392347       0.01857151
H       -2.53045202      -0.87589410      -0.58406600
H       -0.02248725       0.06786235      -1.53801837
H       -0.33260976       2.23753024      -0.42052944
H       -0.90456113       1.94496313       1.30516080
H        0.91510779       0.18705888      -1.55099881
H        2.36581660       1.09685478       0.24233203
15
Frame=6 idx=007170 GeodesicLength=0.33315034402917454 rxn_smarts="[C:1]([C@@:2]1([H:11])[C:3]([H:12])([H:13])[N:4]1[C:5]([C:6]#[N:7])([H:14])[H:15])([H:8])([H:9])[H:10]>>[C:1]([C:2]1=[N+:4]([C-:5]([C:6]#[N:7])[H:15])[C:3]1([H:12])[H:13])([H:8])([H:9])[H:10].[H:11][H:14]"
C       -1.73686062      -0.97348765       0.15373615
C       -0.75364952       0.11873049      -0.03308485
C       -0.53025649       1.51800381       0.38183991
N        0.41431841       0.42247133       0.54797670
C        1.67905097       0.28370113       0.02778892
C        2.22789293      -1.03313378       0.14473074
N        2.65079955      -2.10388735       0.15553842
H       -2.18601083      -0.93925362       1.14921777
H       -1.25479422      -1.94253442       0.02400251
H       -2.53448920      -0.87624007      -0.58340104
H       -0.02818151       0.06729830      -1.55056467
H       -0.33058636       2.24191261      -0.40823752
H       -0.90838020       1.93279303       1.31181447
H        0.92748882       0.18689887      -1.55591760
H        2.36365827       1.09672732       0.23456009
15
Frame=7 idx=007170 GeodesicLength=0.38867670667873755 rxn_smarts="[C:1]([C@@:2]1([H:11])[C:3]([H:12])([H:13])[N:4]1[C:5]([C:6]#[N:7])([H:14])[H:15])([H:8])([H:9])[H:10]>>[C:1]([C:2]1=[N+:4]([C-:5]([C:6]#[N:7])[H:15])[C:3]1([H:12])[H:13])([H:8])([H:9])[H:10].[H:11][H:14]"
C       -1.73961270      -0.97027325       0.15375930
C       -0.75443203       0.11916668      -0.04279573
C       -0.53045399       1.51428381       0.38606247
N        0.41390585       0.41761864       0.54737831
C        1.67831541       0.28272349       0.01711263
C        2.23170356      -1.03170447       0.14984094
N        2.65848287      -2.10083495       0.16693718
H       -2.18650697      -0.93029002       1.14983285
H       -1.25952805      -1.94105162       0.02929497
H       -2.53858097      -0.87645177      -0.58262050
H       -0.03423587       0.06660608      -1.56313628
H       -0.32851095       2.24609361      -0.39596143
H       -0.91212079       1.92067301       1.31828007
H        0.94014627       0.18689197      -1.56083949
H        2.36142837       1.09654881       0.22685472
15
Frame=8 idx=007170 GeodesicLength=0.4441980520109584 rxn_smarts="[C:1]([C@@:2]1([H:11])[C:3]([H:12])([H:13])[N:4]1[C:5]([C:6]#[N:7])([H:14])[H:15])([H:8])([H:9])[H:10]>>[C:1]([C:2]1=[N+:4]([C-:5]([C:6]#[N:7])[H:15])[C:3]1([H:12])[H:13])([H:8])([H:9])[H:10].[H:11][H:14]"
C       -1.74234632      -0.96701715       0.15379577
C       -0.75523145       0.11962533      -0.05241112
C       -0.53064354       1.51050284       0.39020879
N        0.41347183       0.41271982       0.54678252
C        1.67755827       0.28163523       0.00663126
C        2.23550547      -1.03020668       0.15491867
N        2.66618671      -2.09764943       0.17830024
H       -2.18690848      -0.92144066       1.15046389
H       -1.26426072      -1.93948218       0.03445351
H       -2.54272530      -0.87653596      -0.58172000
H       -0.04067607       0.06578468      -1.57573778
H       -0.32638448       2.25007317      -0.38371333
H       -0.91578549       1.90861116       1.32455257
H        0.95310662       0.18706450      -1.56576425
H        2.35913294       1.09631533       0.21923927
15
Frame=9 idx=007170 GeodesicLength=0.4997144328452763 rxn_smarts="[C:1]([C@@:2]1([H:11])[C:3]([H:12])([H:13])[N:4]1[C:5]([C:6]#[N:7])([H:14])[H:15])([H:8])([H:9])[H:10]>>[C:1]([C:2]1=[N+:4]([C-:5]([C:6]#[N:7])[H:15])[C:3]1([H:12])[H:13])([H:8])([H:9])[H:10].[H:11][H:14]"
C       -1.74505802      -0.96372520       0.15385037
C       -0.75604706       0.12010353      -0.06193177
C       -0.53082628       1.50666465       0.39427049
N        0.41301598       0.40777899       0.54618822
C        1.67678393       0.28044089      -0.00365479
C        2.23929198      -1.02864738       0.15996114
N        2.67389335      -2.09434189       0.18961453
H       -2.18721145      -0.91270790       1.15111783
H       -1.26898658      -1.93783360       0.03948540
H       -2.54691966      -0.87650112      -0.58069441
H       -0.04752843       0.06483171      -1.58837341
H       -0.32420807       2.25385095      -0.37150791
H       -0.91937892       1.89661685       1.33062453
H        0.96640014       0.18744685      -1.57069087
H        2.35677909       1.09602267       0.21174063
15
Frame=10 idx=007170 GeodesicLength=0.5552240484655955 rxn_smarts="[C:1]([C@@:2]1([H:11])[C:3]([H:12])([H:13])[N:4]1[C:5]([C:6]#[N:7])([H:14])[H:15])([H:8])([H:9])[H:10]>>[C:1]([C:2]1=[N+:4]([C-:5]([C:6]#[N:7])[H:15])[C:3]1([H:12])[H:13])([H:8])([H:9])[H:10].[H:11][H:14]"
C       -1.74774334      -0.96040380       0.15392922
C       -0.75687761       0.12059768      -0.07135901
C       -0.53100405       1.50277336       0.39823697
N        0.41253751       0.40280116       0.54559468
C        1.67599713       0.27914576      -0.01374259
C        2.24305543      -1.02703398       0.16496607
N        2.68157950      -2.09092650       0.20085919
H       -2.18741036      -0.90409384       1.15180299
H       -1.27369876      -1.93611380       0.04440007
H       -2.55116100      -0.87635752      -0.57953674
H       -0.05481896       0.06374080      -1.60104728
H       -0.32198303       2.25742621      -0.35936317
H       -0.92290754       1.88470121       1.33648527
H        0.98006072       0.18807714      -1.57561640
H        2.35437438       1.09566612       0.20439073
15
Frame=11 idx=007170 GeodesicLength=0.610728319815179 rxn_smarts="[C:1]([C@@:2]1([H:11])[C:3]([H:12])([H:13])[N:4]1[C:5]([C:6]#[N:7])([H:14])[H:15])([H:8])([H:9])[H:10]>>[C:1]([C:2]1=[N+:4]([C-:5]([C:6]#[N:7])[H:15])[C:3]1([H:12])[H:13])([H:8])([H:9])[H:10].[H:11][H:14]"
C       -1.75040260      -0.95705717       0.15403852
C       -0.75772199       0.12110217      -0.08069406
C       -0.53117792       1.49883159       0.40209749
N        0.41203524       0.39778883       0.54500234
C        1.67520301       0.27775405      -0.02362675
C        2.24679048      -1.02537405       0.16993694
N        2.68924307      -2.08741105       0.21200482
H       -2.18750309      -0.89559806       1.15252832
H       -1.27840000      -1.93433024       0.04920266
H       -2.55545279      -0.87610697      -0.57823742
H       -0.06257576       0.06250322      -1.61376292
H       -0.31971175       2.26079561      -0.34729916
H       -0.92637887       1.87287459       1.34212299
H        0.99412771       0.18898581      -1.58053593
H        2.35192525       1.09524168       0.19722217
15
Frame=12 idx=007170 GeodesicLength=0.6662264273687099 rxn_smarts="[C:1]([C@@:2]1([H:11])[C:3]([H:12])([H:13])[N:4]1[C:5]([C:6]#[N:7])([H:14])[H:15])([H:8])([H:9])[H:10]>>[C:1]([C:2]1=[N+:4]([C-:5]([C:6]#[N:7])[H:15])[C:3]1([H:12])[H:13])([H:8])([H:9])[H:10].[H:11][H:14]"
C       -1.75303377      -0.95369041       0.15418679
C       -0.75857787       0.12161024      -0.08993821
C       -0.53135042       1.49484244       0.40583828
N        0.41150767       0.39274594       0.54441256
C        1.67440756       0.27627154      -0.03329862
C        2.25049000      -1.02367550       0.17487704
N        2.69687005      -2.08380937       0.22300711
H       -2.18748796      -0.88721684       1.15330276
H       -1.28308957      -1.93249122       0.05390651
H       -2.55979384      -0.87575638      -0.57678672
H       -0.07082573       0.06110210      -1.62652127
H       -0.31739685       2.26395542      -0.33534012
H       -0.92980450       1.86114986       1.34752089
H        1.00864551       0.19021730      -1.58544267
H        2.34943972       1.09474489       0.19027568
15
Frame=13 idx=007170 GeodesicLength=0.7217245525660703 rxn_smarts="[C:1]([C@@:2]1([H:11])[C:3]([H:12])([H:13])[N:4]1[C:5]([C:6]#[N:7])([H:14])[H:15])([H:8])([H:9])[H:10]>>[C:1]([C:2]1=[N+:4]([C-:5]([C:6]#[N:7])[H:15])[C:3]1([H:12])[H:13])([H:8])([H:9])[H:10].[H:11][H:14]"
C       -1.75564385      -0.95030386       0.15436801
C       -0.75944847       0.12211808      -0.09910341
C       -0.53151696       1.49079830       0.40946925
N        0.41095819       0.38765943       0.54380609
C        1.67361346       0.27469576      -0.04278777
C        2.25415215      -1.02195047       0.17974865
N        2.70449449      -2.08011145       0.23398309
H       -2.18737028      -0.87894487       1.15412243
H       -1.28777842      -1.93060162       0.05851385
H       -2.56419318      -0.87530601      -0.57518846
H       -0.07962820       0.05956404      -1.63934820
H       -0.31503430       2.26691424      -0.32346249
H       -0.93316497       1.84950138       1.35270715
H        1.02363999       0.19179611      -1.59035514
H        2.34692036       1.09417094       0.18352693
15
Frame=14 idx=007170 GeodesicLength=0.7772235643372584 rxn_smarts="[C:1]([C@@:2]1([H:11])[C:3]([H:12])([H:13])[N:4]1[C:5]([C:6]#[N:7])([H:14])[H:15])([H:8])([H:9])[H:10]>>[C:1]([C:2]1=[N+:4]([C-:5]([C:6]#[N:7])[H:15])[C:3]1([H:12])[H:13])([H:8])([H:9])[H:10].[H:11][H:14]"
C       -1.75822682      -0.94690538       0.15459165
C       -0.76033191       0.12261967      -0.10819314
C       -0.53168104       1.48670314       0.41297433
N        0.41038569       0.38253522       0.54318128
C        1.67282751       0.27303364      -0.05208737
C        2.25776653      -1.02020958       0.18454716
N        2.71208233      -2.07633818       0.24490186
H       -2.18714212      -0.87078292       1.15499842
H       -1.29245768      -1.92867046       0.06304078
H       -2.56864753      -0.87477054      -0.57343069
H       -0.08901871       0.05787665      -1.65224872
H       -0.31262658       2.26967029      -0.31169146
H       -0.93646990       1.83794244       1.35766402
H        1.03916258       0.19378245      -1.59526764
H        2.34437764       1.09351356       0.17701951
15
Frame=15 idx=007170 GeodesicLength=0.8327228995597974 rxn_smarts="[C:1]([C@@:2]1([H:11])[C:3]([H:12])([H:13])[N:4]1[C:5]([C:6]#[N:7])([H:14])[H:15])([H:8])([H:9])[H:10]>>[C:1]([C:2]1=[N+:4]([C-:5]([C:6]#[N:7])[H:15])[C:3]1([H:12])[H:13])([H:8])([H:9])[H:10].[H:11][H:14]"
C       -1.76077618      -0.94350291       0.15486686
C       -0.76122629       0.12310854      -0.11721191
C       -0.53184580       1.48256091       0.41633708
N        0.40978884       0.37737909       0.54253525
C        1.67205601       0.27129188      -0.06119099
C        2.26132129      -1.01846480       0.18926692
N        2.71960148      -2.07251073       0.25573839
H       -2.18679185      -0.86273357       1.15594259
H       -1.29711875      -1.92670654       0.06749969
H       -2.57315519      -0.87416309      -0.57149880
H       -0.09903826       0.05603128      -1.66522991
H       -0.31017770       2.27222177      -0.30005317
H       -0.93972703       1.82648624       1.36237397
H        1.05526845       0.19623603      -1.60017249
H        2.34182097       1.09276590       0.17079652
15
Frame=16 idx=007170 GeodesicLength=0.8882222003340098 rxn_smarts="[C:1]([C@@:2]1([H:11])[C:3]([H:12])([H:13])[N:4]1[C:5]([C:6]#[N:7])([H:14])[H:15])([H:8])([H:9])[H:10]>>[C:1]([C:2]1=[N+:4]([C-:5]([C:6]#[N:7])[H:15])[C:3]1([H:12])[H:13])([H:8])([H:9])[H:10].[H:11][H:14]"
C       -1.76328486      -0.94010501       0.15520383
C       -0.76212941       0.12357722      -0.12616485
C       -0.53201495       1.47837562       0.41953930
N        0.40916640       0.37219730       0.54186471
C        1.67130610       0.26947816      -0.07009161
C        2.26480366      -1.01672941       0.19390010
N        2.72701590      -2.06865375       0.26646582
H       -2.18630747      -0.85479880       1.15696753
H       -1.30175204      -1.92471924       0.07190569
H       -2.57771395      -0.87349875      -0.56937692
H       -0.10973155       0.05401718      -1.67829932
H       -0.30769241       2.27456695      -0.28857627
H       -0.94294489       1.81514682       1.36681761
H        1.07201850       0.19922503      -1.60506022
H        2.33926098       1.09192067       0.16490460
