13
Frame=0 idx=006412 GeodesicLength=0.0 rxn_smarts="[O:1]=[C:2]([C:3]1([C:6](=[O:7])[H:13])[C:4]([H:9])([H:10])[C:5]1([H:11])[H:12])[H:8]>>[O:1]=[C:2]([C:5]([C:4]([C+:3]=[C:6]([O-:7])[H:13])([H:9])[H:10])([H:11])[H:12])[H:8]"
O        2.19261291      -1.26298251      -0.40163843
C        1.24169473      -0.61581931      -0.75113502
C        0.25077557       0.69985254       0.52458145
C       -0.50142472      -0.26471811       1.22276116
C       -0.19138250      -0.96482610      -0.21187718
C       -0.40122608       1.73857192      -0.24609285
O       -0.85732615       2.71466947       0.30638711
H        1.27852322       0.06660735      -1.61597616
H       -1.56821422      -0.11794566       1.38803846
H       -0.00335856      -0.84559434       1.99325878
H       -1.00094560      -0.80343316      -0.91600737
H       -0.08167460      -2.01002261       0.06082408
H       -0.35805397       1.66564053      -1.35312399
13
Frame=1 idx=006412 GeodesicLength=0.06644240005463092 rxn_smarts="[O:1]=[C:2]([C:3]1([C:6](=[O:7])[H:13])[C:4]([H:9])([H:10])[C:5]1([H:11])[H:12])[H:8]>>[O:1]=[C:2]([C:5]([C:4]([C+:3]=[C:6]([O-:7])[H:13])([H:9])[H:10])([H:11])[H:12])[H:8]"
O        2.18720343      -1.28202912      -0.40117284
C        1.24690675      -0.61712805      -0.74591134
C        0.25005455       0.70228811       0.51672018
C       -0.48876122      -0.27127104       1.22266035
C       -0.20685866      -0.96647587      -0.20973973
C       -0.40294160       1.74144456      -0.25091060
O       -0.92415955       2.68689263       0.29700936
H        1.29990246       0.06694164      -1.60941174
H       -1.54969404      -0.10266884       1.40659474
H        0.02122984      -0.84372157       1.99140441
H       -1.01888445      -0.79478654      -0.90883210
H       -0.10201817      -2.01581877       0.04842286
H       -0.31197933       1.69633287      -1.35683353
13
Frame=2 idx=006412 GeodesicLength=0.13286543841943657 rxn_smarts="[O:1]=[C:2]([C:3]1([C:6](=[O:7])[H:13])[C:4]([H:9])([H:10])[C:5]1([H:11])[H:12])[H:8]>>[O:1]=[C:2]([C:5]([C:4]([C+:3]=[C:6]([O-:7])[H:13])([H:9])[H:10])([H:11])[H:12])[H:8]"
O        2.18151252      -1.30052308      -0.40137361
C        1.25198790      -0.61805913      -0.74077246
C        0.24920474       0.70459242       0.50919006
C       -0.47635994      -0.27784230       1.22253534
C       -0.22262356      -0.96795553      -0.20730914
C       -0.40455922       1.74428488      -0.25548397
O       -0.98990149       2.65643380       0.28377052
H        1.32092590       0.06775821      -1.60254542
H       -1.53068344      -0.08760037       1.42508955
H        0.04552756      -0.84203469       1.98914268
H       -1.03731292      -0.78628480      -0.90100376
H       -0.12221066      -2.02115634       0.03625940
H       -0.26550739       1.72838693      -1.35749919
13
Frame=3 idx=006412 GeodesicLength=0.19925568185833215 rxn_smarts="[O:1]=[C:2]([C:3]1([C:6](=[O:7])[H:13])[C:4]([H:9])([H:10])[C:5]1([H:11])[H:12])[H:8]>>[O:1]=[C:2]([C:5]([C:4]([C+:3]=[C:6]([O-:7])[H:13])([H:9])[H:10])([H:11])[H:12])[H:8]"
O        2.17560340      -1.31843452      -0.40232575
C        1.25695779      -0.61860061      -0.73577778
C        0.24823616       0.70676123       0.50203884
C       -0.46427415      -0.28445308       1.22242785
C       -0.23864131      -0.96932606      -0.20455319
C       -0.40606897       1.74714603      -0.25976080
O       -1.05420924       2.62355181       0.26652109
H        1.34154820       0.06910199      -1.59547307
H       -1.51124600      -0.07267137       1.44347263
H        0.06941413      -0.84061072       1.98656336
H       -1.05619840      -0.77801669      -0.89251484
H       -0.14215969      -2.02613473       0.02436314
H       -0.21896194       1.76168671      -1.35498149
13
Frame=4 idx=006412 GeodesicLength=0.26555845635923464 rxn_smarts="[O:1]=[C:2]([C:3]1([C:6](=[O:7])[H:13])[C:4]([H:9])([H:10])[C:5]1([H:11])[H:12])[H:8]>>[O:1]=[C:2]([C:5]([C:4]([C+:3]=[C:6]([O-:7])[H:13])([H:9])[H:10])([H:11])[H:12])[H:8]"
O        2.16949421      -1.33566162      -0.40405481
C        1.26182175      -0.61869725      -0.73092169
C        0.24716136       0.70875496       0.49526219
C       -0.45253656      -0.29111730       1.22229123
C       -0.25489951      -0.97060295      -0.20145278
C       -0.40750777       1.74994193      -0.26368537
O       -1.11652288       2.58846002       0.24521124
H        1.36178534       0.07107835      -1.58811448
H       -1.49139351      -0.05777577       1.46162739
H        0.09282362      -0.83945838       1.98361879
H       -1.07554004      -0.77004893      -0.88333458
H       -0.16183320      -2.03074619       0.01271493
H       -0.17285279       1.79587314      -1.34916206
13
Frame=5 idx=006412 GeodesicLength=0.3319050184595817 rxn_smarts="[O:1]=[C:2]([C:3]1([C:6](=[O:7])[H:13])[C:4]([H:9])([H:10])[C:5]1([H:11])[H:12])[H:8]>>[O:1]=[C:2]([C:5]([C:4]([C+:3]=[C:6]([O-:7])[H:13])([H:9])[H:10])([H:11])[H:12])[H:8]"
O        2.16316995      -1.35230571      -0.40659792
C        1.26657476      -0.61843858      -0.72626437
C        0.24604730       0.71058084       0.48875589
C       -0.44111851      -0.29775894       1.22212595
C       -0.27141430      -0.97181025      -0.19797296
C       -0.40883723       1.75272430      -0.26732094
O       -1.17702106       2.55080101       0.21991676
H        1.38159274       0.07356273      -1.58058752
H       -1.47109637      -0.04283738       1.47953177
H        0.11576999      -0.83844134       1.98038033
H       -1.09534921      -0.76242902      -0.87344756
H       -0.18126941      -2.03501699       0.00142410
H       -0.12704864       1.83136933      -1.33994354
13
Frame=6 idx=006412 GeodesicLength=0.3982605455205384 rxn_smarts="[O:1]=[C:2]([C:3]1([C:6](=[O:7])[H:13])[C:4]([H:9])([H:10])[C:5]1([H:11])[H:12])[H:8]>>[O:1]=[C:2]([C:5]([C:4]([C+:3]=[C:6]([O-:7])[H:13])([H:9])[H:10])([H:11])[H:12])[H:8]"
O        2.15669453      -1.36830905      -0.40997062
C        1.27125508      -0.61779265      -0.72182208
C        0.24487159       0.71221627       0.48252179
C       -0.43009080      -0.30441300       1.22192905
C       -0.28814805      -0.97301259      -0.19410301
C       -0.41016658       1.75546277      -0.27062550
O       -1.23501946       2.51103399       0.19070167
H        1.40103187       0.07667031      -1.57286588
H       -1.45041187      -0.02774824       1.49708998
H        0.13815236      -0.83761583       1.97687623
H       -1.11558477      -0.75525830      -0.86286978
H       -0.20038809      -2.03903128      -0.00952676
H       -0.08219581       1.86779759      -1.32733510
13
Frame=7 idx=006412 GeodesicLength=0.46470584137939563 rxn_smarts="[O:1]=[C:2]([C:3]1([C:6](=[O:7])[H:13])[C:4]([H:9])([H:10])[C:5]1([H:11])[H:12])[H:8]>>[O:1]=[C:2]([C:5]([C:4]([C+:3]=[C:6]([O-:7])[H:13])([H:9])[H:10])([H:11])[H:12])[H:8]"
O        2.15007960      -1.38371787      -0.41419988
C        1.27588871      -0.61679017      -0.71762086
C        0.24370713       0.71365521       0.47651724
C       -0.41945860      -0.31103392       1.22169389
C       -0.30509831      -0.97421353      -0.18982103
C       -0.41142921       1.75821231      -0.27355707
O       -1.29034230       2.46909687       0.15765676
H        1.42012853       0.08037116      -1.56498398
H       -1.42934779      -0.01241849       1.51421064
H        0.15992682      -0.83692910       1.97314265
H       -1.13622858      -0.74855091      -0.85160892
H       -0.21921324      -2.04279388      -0.02009789
H       -0.03861276       1.90511233      -1.31133156
13
Frame=8 idx=006412 GeodesicLength=0.5311602900610853 rxn_smarts="[O:1]=[C:2]([C:3]1([C:6](=[O:7])[H:13])[C:4]([H:9])([H:10])[C:5]1([H:11])[H:12])[H:8]>>[O:1]=[C:2]([C:5]([C:4]([C+:3]=[C:6]([O-:7])[H:13])([H:9])[H:10])([H:11])[H:12])[H:8]"
O        2.14336514      -1.39838630      -0.41930479
C        1.28046788      -0.61538253      -0.71367334
C        0.24250543       0.71486395       0.47069813
C       -0.40929259      -0.31763246       1.22139196
C       -0.32222422      -0.97550876      -0.18509244
C       -0.41282691       1.76082840      -0.27612648
O       -1.34231542       2.42549799       0.12101233
H        1.43878209       0.08467883      -1.55698162
H       -1.40798147       0.00319752       1.53069379
H        0.18100356      -0.83633142       1.96919650
H       -1.15722876      -0.74249320      -0.83966088
H       -0.23761807      -2.04638176      -0.03024208
H        0.00336333       1.94304973      -1.29191107
13
Frame=9 idx=006412 GeodesicLength=0.5977355817921584 rxn_smarts="[O:1]=[C:2]([C:3]1([C:6](=[O:7])[H:13])[C:4]([H:9])([H:10])[C:5]1([H:11])[H:12])[H:8]>>[O:1]=[C:2]([C:5]([C:4]([C+:3]=[C:6]([O-:7])[H:13])([H:9])[H:10])([H:11])[H:12])[H:8]"
O        2.13657549      -1.41245750      -0.42517743
C        1.28507774      -0.61366056      -0.70996220
C        0.24134258       0.71585192       0.46494782
C       -0.39958951      -0.32414104       1.22098184
C       -0.33951395      -0.97689834      -0.17994406
C       -0.41433205       1.76338925      -0.27835733
O       -1.39063880       2.38034339       0.08128760
H        1.45721713       0.08955888      -1.54879387
H       -1.38633224       0.01915798       1.54642030
H        0.20134537      -0.83574321       1.96505894
H       -1.17853372      -0.73706571      -0.82711231
H       -0.25567568      -2.04980908      -0.03995732
H        0.04305765       1.98147400      -1.26939198
13
Frame=10 idx=006412 GeodesicLength=0.6645134228952219 rxn_smarts="[O:1]=[C:2]([C:3]1([C:6](=[O:7])[H:13])[C:4]([H:9])([H:10])[C:5]1([H:11])[H:12])[H:8]>>[O:1]=[C:2]([C:5]([C:4]([C+:3]=[C:6]([O-:7])[H:13])([H:9])[H:10])([H:11])[H:12])[H:8]"
O        2.12971596      -1.42596007      -0.43185116
C        1.28972926      -0.61164491      -0.70650816
C        0.24018667       0.71661072       0.45918009
C       -0.39036085      -0.33054937       1.22046894
C       -0.35696273      -0.97844760      -0.17434746
C       -0.41612517       1.76578972      -0.28034670
O       -1.43509462       2.33394620       0.03869704
H        1.47546078       0.09498924      -1.54044588
H       -1.36443298       0.03548752       1.56131828
H        0.22098841      -0.83510110       1.96075341
H       -1.20015381      -0.73238568      -0.81394905
H       -0.27337089      -2.05314326      -0.04919651
H        0.08041997       2.02040859      -1.24377285
13
Frame=11 idx=006412 GeodesicLength=0.7314172267912786 rxn_smarts="[O:1]=[C:2]([C:3]1([C:6](=[O:7])[H:13])[C:4]([H:9])([H:10])[C:5]1([H:11])[H:12])[H:8]>>[O:1]=[C:2]([C:5]([C:4]([C+:3]=[C:6]([O-:7])[H:13])([H:9])[H:10])([H:11])[H:12])[H:8]"
O        2.12288398      -1.43890313      -0.43916329
C        1.29453693      -0.60936774      -0.70325109
C        0.23904061       0.71712828       0.45329719
C       -0.38166566      -0.33684022       1.21978447
C       -0.37450946      -0.98021140      -0.16834821
C       -0.41828425       1.76800190      -0.28214442
O       -1.47508504       2.28712522      -0.00581688
H        1.49371281       0.10093910      -1.53185864
H       -1.34241421       0.05215979       1.57514745
H        0.23981808      -0.83436331       1.95628478
H       -1.22197440      -0.72848753      -0.80029008
H       -0.29064544      -2.05644130      -0.05798530
H        0.11458605       2.05926033      -1.21565597
13
Frame=12 idx=006412 GeodesicLength=0.7984452422086679 rxn_smarts="[O:1]=[C:2]([C:3]1([C:6](=[O:7])[H:13])[C:4]([H:9])([H:10])[C:5]1([H:11])[H:12])[H:8]>>[O:1]=[C:2]([C:5]([C:4]([C+:3]=[C:6]([O-:7])[H:13])([H:9])[H:10])([H:11])[H:12])[H:8]"
O        2.11605872      -1.45131748      -0.44711302
C        1.29951026      -0.60685533      -0.70018476
C        0.23788568       0.71740184       0.44722032
C       -0.37348404      -0.34298737       1.21892195
C       -0.39214737      -0.98223265      -0.16193648
C       -0.42089417       1.76993127      -0.28385293
O       -1.51061339       2.24023121      -0.05191337
H        1.51201155       0.10734437      -1.52302820
H       -1.32029902       0.06914518       1.58782333
H        0.25789146      -0.83344817       1.95165054
H       -1.24399168      -0.72543180      -0.78612743
H       -0.30750621      -2.05974018      -0.06631091
H        0.14557821       2.09795911      -1.18514902
13
Frame=13 idx=006412 GeodesicLength=0.8657762759915695 rxn_smarts="[O:1]=[C:2]([C:3]1([C:6](=[O:7])[H:13])[C:4]([H:9])([H:10])[C:5]1([H:11])[H:12])[H:8]>>[O:1]=[C:2]([C:5]([C:4]([C+:3]=[C:6]([O-:7])[H:13])([H:9])[H:10])([H:11])[H:12])[H:8]"
O        2.10917879      -1.46335327      -0.45578717
C        1.30465057      -0.60416903      -0.69734293
C        0.23675941       0.71744633       0.44088921
C       -0.36574681      -0.34895520       1.21793097
C       -0.40990628      -0.98449970      -0.15506710
C       -0.42392141       1.77161535      -0.28552829
O       -1.54201806       2.19312021      -0.09971008
H        1.53039478       0.11413211      -1.51400449
H       -1.29806470       0.08643175       1.59939029
H        0.27533271      -0.83232198       1.94687991
H       -1.26625806      -0.72319144      -0.77140169
H       -0.32404816      -2.06304800      -0.07412651
H        0.17364721       2.13679286      -1.15212212
13
Frame=14 idx=006412 GeodesicLength=0.9332620277267272 rxn_smarts="[O:1]=[C:2]([C:3]1([C:6](=[O:7])[H:13])[C:4]([H:9])([H:10])[C:5]1([H:11])[H:12])[H:8]>>[O:1]=[C:2]([C:5]([C:4]([C+:3]=[C:6]([O-:7])[H:13])([H:9])[H:10])([H:11])[H:12])[H:8]"
O        2.10228787      -1.47509575      -0.46493135
C        1.31008488      -0.60140511      -0.69462157
C        0.23562825       0.71727140       0.43409073
C       -0.35845656      -0.35469328       1.21667595
C       -0.42774559      -0.98708116      -0.14783182
C       -0.42752335       1.77285205      -0.28751493
O       -1.56899246       2.14668597      -0.14786567
H        1.54924486       0.12122251      -1.50455903
H       -1.27579171       0.10392848       1.60964665
H        0.29210663      -0.83083854       1.94190282
H       -1.28869394      -0.72181163      -0.75623350
H       -0.34028393      -2.06642530      -0.08150009
H        0.19813505       2.17539036      -1.11725818
13
Frame=15 idx=006412 GeodesicLength=1.0006602600397134 rxn_smarts="[O:1]=[C:2]([C:3]1([C:6](=[O:7])[H:13])[C:4]([H:9])([H:10])[C:5]1([H:11])[H:12])[H:8]>>[O:1]=[C:2]([C:5]([C:4]([C+:3]=[C:6]([O-:7])[H:13])([H:9])[H:10])([H:11])[H:12])[H:8]"
O        2.09548764      -1.48660414      -0.47429916
C        1.31596936      -0.59859496      -0.69188156
C        0.23448530       0.71687186       0.42678031
C       -0.35161482      -0.36024302       1.21509438
C       -0.44560903      -0.98994912      -0.14032301
C       -0.43166514       1.77367748      -0.28986677
O       -1.59155757       2.10190113      -0.19523588
H        1.56886946       0.12857632      -1.49449956
H       -1.25357353       0.12148918       1.61848997
H        0.30816662      -0.82909902       1.93668481
H       -1.31117963      -0.72106627      -0.74073806
H       -0.35619273      -2.06985683      -0.08858495
H        0.21841407       2.21289740      -1.08162051
13
Frame=16 idx=006412 GeodesicLength=1.0680857719469405 rxn_smarts="[O:1]=[C:2]([C:3]1([C:6](=[O:7])[H:13])[C:4]([H:9])([H:10])[C:5]1([H:11])[H:12])[H:8]>>[O:1]=[C:2]([C:5]([C:4]([C+:3]=[C:6]([O-:7])[H:13])([H:9])[H:10])([H:11])[H:12])[H:8]"
O        2.08869686      -1.49796179      -0.48407031
C        1.32227889      -0.59576707      -0.68917779
C        0.23336360       0.71626636       0.41895171
C       -0.34513275      -0.36556422       1.21326479
C       -0.46355348      -0.99308251      -0.13248384
C       -0.43624610       1.77409915      -0.29262667
O       -1.61036545       2.05841192      -0.24222007
H        1.58922905       0.13610365      -1.48390493
H       -1.23136687       0.13910648       1.62605068
H        0.32367143      -0.82704745       1.93126099
H       -1.33381461      -0.72092834      -0.72481273
H       -0.37188541      -2.07332634      -0.09535513
H        0.23512484       2.24969017      -1.04487670
