15
Frame=0 idx=010488 GeodesicLength=0.0 rxn_smarts="[C:1]([c:2]1[c:3]([H:11])[n:4]([H:12])[c:5]([N:6]([H:13])[H:14])[c:7]1[H:15])([H:8])([H:9])[H:10]>>[C:1]([C:2]1=[C:3]([H:11])[N:4]([H:12])/[C:5]1=[C:7](\[N:6]([H:13])[H:14])[H:15])([H:8])([H:9])[H:10]"
C       -2.80721632       0.22255352      -0.00271618
C       -1.31498164       0.12367633       0.12962113
C       -0.59810948       1.15773229      -0.28219735
N        0.85629330       0.94689239      -0.24193554
C        1.16493847      -0.27878655       0.09908365
N        2.71346401      -0.88711514       0.10177076
C        1.40736126      -1.51605354       0.32333921
H       -3.17946079      -0.56726431      -0.66326077
H       -3.29157495       0.05101123       0.96352639
H       -3.17688474       1.18452938      -0.39726178
H       -0.85526318       2.12202781      -0.73065448
H        1.49215349       1.67907489       0.04265484
H        3.30243943      -0.68238737       0.89636845
H        3.20590080      -1.04150643      -0.76942079
H        1.08094030      -2.51438450       0.53108242
15
Frame=1 idx=010488 GeodesicLength=0.14195791219570092 rxn_smarts="[C:1]([c:2]1[c:3]([H:11])[n:4]([H:12])[c:5]([N:6]([H:13])[H:14])[c:7]1[H:15])([H:8])([H:9])[H:10]>>[C:1]([C:2]1=[C:3]([H:11])[N:4]([H:12])/[C:5]1=[C:7](\[N:6]([H:13])[H:14])[H:15])([H:8])([H:9])[H:10]"
C       -2.76133561       0.18082501      -0.00146475
C       -1.26505951       0.12956189       0.10160490
C       -0.57900264       1.19389775      -0.29353877
N        0.87290921       0.99019298      -0.26168041
C        1.15475702      -0.22084786       0.16482300
N        2.67952466      -0.89725223       0.10461494
C        1.32768156      -1.48462506       0.29535045
H       -3.12013860      -0.60567489      -0.67320941
H       -3.22368630      -0.02453090       0.96888346
H       -3.16670458       1.13813767      -0.36918145
H       -0.85865229       2.15556013      -0.73121857
H        1.51343830       1.72533220       0.00311321
H        3.28391874      -0.78307950       0.90532912
H        3.15220833      -1.03345811      -0.77991573
H        0.99014170      -2.46403909       0.56649001
15
Frame=2 idx=010488 GeodesicLength=0.2847527949432209 rxn_smarts="[C:1]([c:2]1[c:3]([H:11])[n:4]([H:12])[c:5]([N:6]([H:13])[H:14])[c:7]1[H:15])([H:8])([H:9])[H:10]>>[C:1]([C:2]1=[C:3]([H:11])[N:4]([H:12])/[C:5]1=[C:7](\[N:6]([H:13])[H:14])[H:15])([H:8])([H:9])[H:10]"
C       -2.71655130       0.14218460       0.00111136
C       -1.21839393       0.13638361       0.07666296
C       -0.56090247       1.22556413      -0.30776283
N        0.88810030       1.02726581      -0.27978197
C        1.14378180      -0.17132470       0.21167538
N        2.64653514      -0.90468237       0.10867060
C        1.25138433      -1.45017257       0.26988287
H       -3.06371235      -0.64268863      -0.67852081
H       -3.15650989      -0.09116069       0.97547845
H       -3.15480920       1.09260078      -0.34369683
H       -0.86071847       2.18620200      -0.73120229
H        1.53160751       1.76319370      -0.02559416
H        3.25622347      -0.87370231       0.91257527
H        3.10559799      -1.02800046      -0.78446966
H        0.90836711      -2.41166291       0.59497166
15
Frame=3 idx=010488 GeodesicLength=0.4278211904681119 rxn_smarts="[C:1]([c:2]1[c:3]([H:11])[n:4]([H:12])[c:5]([N:6]([H:13])[H:14])[c:7]1[H:15])([H:8])([H:9])[H:10]>>[C:1]([C:2]1=[C:3]([H:11])[N:4]([H:12])/[C:5]1=[C:7](\[N:6]([H:13])[H:14])[H:15])([H:8])([H:9])[H:10]"
C       -2.67306479       0.10653056       0.00491468
C       -1.17486202       0.14387927       0.05411265
C       -0.54368849       1.25307151      -0.32570978
N        0.90211654       1.05991652      -0.29672823
C        1.13166225      -0.12854651       0.24588460
N        2.61499815      -0.90979156       0.11433801
C        1.17968113      -1.41515457       0.24754067
H       -3.01025312      -0.67851531      -0.67939758
H       -3.09041022      -0.14923526       0.98350564
H       -3.14164278       1.04829108      -0.32070141
H       -0.86198201       2.21419906      -0.73124858
H        1.54688281       1.79555157      -0.04581422
H        3.22242778      -0.95533146       0.91877712
H        3.06416960      -1.02385620      -0.78454163
H        0.83396515      -2.36100870       0.61506806
15
Frame=4 idx=010488 GeodesicLength=0.5711425795278557 rxn_smarts="[C:1]([c:2]1[c:3]([H:11])[n:4]([H:12])[c:5]([N:6]([H:13])[H:14])[c:7]1[H:15])([H:8])([H:9])[H:10]>>[C:1]([C:2]1=[C:3]([H:11])[N:4]([H:12])/[C:5]1=[C:7](\[N:6]([H:13])[H:14])[H:15])([H:8])([H:9])[H:10]"
C       -2.63115834       0.07378429       0.01028104
C       -1.13448707       0.15152897       0.03273327
C       -0.52754915       1.27667097      -0.34784017
N        0.91501126       1.08868664      -0.31373488
C        1.11826014      -0.09115806       0.27152141
N        2.58565946      -0.91277017       0.12273246
C        1.11264568      -1.38087481       0.22574078
H       -2.96045581      -0.71247336      -0.67622105
H       -3.02514062      -0.20012219       0.99344471
H       -3.12777403       1.00595675      -0.29818736
H       -0.86293281       2.23972340      -0.73159184
H        1.55975150       1.82372565      -0.06161152
H        3.18386737      -1.03022711       0.92642305
H        3.02893401      -1.01880369      -0.77972382
H        0.76536842      -2.31364730       0.62603391
15
Frame=5 idx=010488 GeodesicLength=0.7141145681789477 rxn_smarts="[C:1]([c:2]1[c:3]([H:11])[n:4]([H:12])[c:5]([N:6]([H:13])[H:14])[c:7]1[H:15])([H:8])([H:9])[H:10]>>[C:1]([C:2]1=[C:3]([H:11])[N:4]([H:12])/[C:5]1=[C:7](\[N:6]([H:13])[H:14])[H:15])([H:8])([H:9])[H:10]"
C       -2.59062953       0.04336584       0.01646509
C       -1.09674610       0.15945142       0.01316445
C       -0.51182373       1.29724135      -0.37281285
N        0.92686915       1.11428533      -0.33042696
C        1.10384308      -0.05781750       0.29181871
N        2.55777255      -0.91406775       0.13304349
C        1.05018672      -1.34729804       0.20462717
H       -2.91296054      -0.74574924      -0.66997941
H       -2.96178619      -0.24431175       1.00451328
H       -3.11307712       0.96496441      -0.27781528
H       -0.86334920       2.26344079      -0.73050786
H        1.57050154       1.84862699      -0.07476291
H        3.14178222      -1.10034978       0.93334774
H        2.99705954      -1.01259156      -0.77135263
H        0.70235761      -2.26919051       0.63067797
15
Frame=6 idx=010488 GeodesicLength=0.8574638966961933 rxn_smarts="[C:1]([c:2]1[c:3]([H:11])[n:4]([H:12])[c:5]([N:6]([H:13])[H:14])[c:7]1[H:15])([H:8])([H:9])[H:10]>>[C:1]([C:2]1=[C:3]([H:11])[N:4]([H:12])/[C:5]1=[C:7](\[N:6]([H:13])[H:14])[H:15])([H:8])([H:9])[H:10]"
C       -2.55173730       0.01535681       0.02389450
C       -1.06188523       0.16726549      -0.00550005
C       -0.49718589       1.31504308      -0.40006615
N        0.93769172       1.13679087      -0.34746265
C        1.08822693      -0.02810316       0.30773452
N        2.53225436      -0.91374106       0.14612375
C        0.99170761      -1.31502410       0.18202464
H       -2.86849984      -0.77731324      -0.66084387
H       -2.89982522      -0.28300032       1.01701085
H       -3.09809676       0.92605837      -0.25754779
H       -0.86358689       2.28481317      -0.72922924
H        1.57972323       1.87053293      -0.08691967
H        3.09696157      -1.16613486       0.94163683
H        2.97079549      -1.00440624      -0.75892916
H        0.64345624      -2.22813774       0.62807349
15
Frame=7 idx=010488 GeodesicLength=1.000933991847485 rxn_smarts="[C:1]([c:2]1[c:3]([H:11])[n:4]([H:12])[c:5]([N:6]([H:13])[H:14])[c:7]1[H:15])([H:8])([H:9])[H:10]>>[C:1]([C:2]1=[C:3]([H:11])[N:4]([H:12])/[C:5]1=[C:7](\[N:6]([H:13])[H:14])[H:15])([H:8])([H:9])[H:10]"
C       -2.51437783      -0.01060097       0.03217720
C       -1.02954154       0.17507343      -0.02277793
C       -0.48327318       1.33095872      -0.42759410
N        0.94756972       1.15675224      -0.36420169
C        1.07167694      -0.00128966       0.32075253
N        2.50857894      -0.91208762       0.16134954
C        0.93696478      -1.28384658       0.15843319
H       -2.82631026      -0.80726083      -0.64999358
H       -2.83985778      -0.31736292       1.03027293
H       -3.08286173       0.88905543      -0.23752600
H       -0.86340551       2.30349387      -0.72892770
H        1.58778506       1.88990430      -0.09834676
H        3.05021699      -1.22846256       0.94951919
H        2.94831327      -0.99442390      -0.74341381
H        0.58852213      -2.18990297       0.62027700
15
Frame=8 idx=010488 GeodesicLength=1.1447044900681014 rxn_smarts="[C:1]([c:2]1[c:3]([H:11])[n:4]([H:12])[c:5]([N:6]([H:13])[H:14])[c:7]1[H:15])([H:8])([H:9])[H:10]>>[C:1]([C:2]1=[C:3]([H:11])[N:4]([H:12])/[C:5]1=[C:7](\[N:6]([H:13])[H:14])[H:15])([H:8])([H:9])[H:10]"
C       -2.47848692      -0.03466725       0.04122507
C       -0.99961710       0.18282697      -0.03860857
C       -0.47028587       1.34551413      -0.45391583
N        0.95652097       1.17446285      -0.38042399
C        1.05430137       0.02303835       0.33169602
N        2.48673553      -0.90934359       0.17858198
C        0.88551719      -1.25378385       0.13382592
H       -2.78618503      -0.83494976      -0.63835491
H       -2.78176422      -0.34884817       1.04380506
H       -3.06749191       0.85415223      -0.21678884
H       -0.86285174       2.31927242      -0.73125812
H        1.59505656       1.90696982      -0.10934625
H        3.00229239      -1.28757980       0.95661352
H        2.92926424      -0.98282738      -0.72527882
H        0.53699454      -2.15423697       0.60822776
15
Frame=9 idx=010488 GeodesicLength=1.2883334568942204 rxn_smarts="[C:1]([c:2]1[c:3]([H:11])[n:4]([H:12])[c:5]([N:6]([H:13])[H:14])[c:7]1[H:15])([H:8])([H:9])[H:10]>>[C:1]([C:2]1=[C:3]([H:11])[N:4]([H:12])/[C:5]1=[C:7](\[N:6]([H:13])[H:14])[H:15])([H:8])([H:9])[H:10]"
C       -2.44397564      -0.05725191       0.05046450
C       -0.97167285       0.19075174      -0.05217163
C       -0.45765654       1.35929046      -0.47793193
N        0.96472467       1.19031179      -0.39569004
C        1.03651297       0.04539024       0.34146708
N        2.46605231      -0.90592050       0.19699735
C        0.83717035      -1.22453362       0.10943468
H       -2.74715388      -0.86114599      -0.62675501
H       -2.72646171      -0.37783933       1.05698960
H       -3.05202628       0.82073765      -0.19671838
H       -0.86190453       2.33273759      -0.73576518
H        1.60186777       1.92202711      -0.11997416
H        2.95402045      -1.34401928       0.96079942
H        2.91147231      -0.97018181      -0.70561610
H        0.48903061      -2.12035413       0.59446979
15
Frame=10 idx=010488 GeodesicLength=1.4322101175323774 rxn_smarts="[C:1]([c:2]1[c:3]([H:11])[n:4]([H:12])[c:5]([N:6]([H:13])[H:14])[c:7]1[H:15])([H:8])([H:9])[H:10]>>[C:1]([C:2]1=[C:3]([H:11])[N:4]([H:12])/[C:5]1=[C:7](\[N:6]([H:13])[H:14])[H:15])([H:8])([H:9])[H:10]"
C       -2.41083468      -0.07837602       0.06009297
C       -0.94574402       0.19862575      -0.06410259
C       -0.44576177       1.37218506      -0.50005588
N        0.97222929       1.20438888      -0.41024725
C        1.01826278       0.06587989       0.35012700
N        2.44685464      -0.90193219       0.21693518
C        0.79150762      -1.19624195       0.08454587
H       -2.70965467      -0.88549035      -0.61504626
H       -2.67331678      -0.40484052       1.07000693
H       -3.03659320       0.78902375      -0.17640183
H       -0.86069483       2.34415609      -0.74277832
H        1.60831085       1.93519917      -0.13028079
H        2.90567420      -1.39767591       0.96304633
H        2.89582465      -0.95650469      -0.68420966
H        0.44393592      -2.08839697       0.57836829
15
Frame=11 idx=010488 GeodesicLength=1.5761908424303543 rxn_smarts="[C:1]([c:2]1[c:3]([H:11])[n:4]([H:12])[c:5]([N:6]([H:13])[H:14])[c:7]1[H:15])([H:8])([H:9])[H:10]>>[C:1]([C:2]1=[C:3]([H:11])[N:4]([H:12])/[C:5]1=[C:7](\[N:6]([H:13])[H:14])[H:15])([H:8])([H:9])[H:10]"
C       -2.37899966      -0.09819247       0.07001615
C       -0.92158669       0.20636776      -0.07463236
C       -0.43435266       1.38424215      -0.52050220
N        0.97915964       1.21689980      -0.42397363
C        0.99967109       0.08469342       0.35795347
N        2.42884502      -0.89757852       0.23827165
C        0.74836412      -1.16883091       0.05931701
H       -2.67367051      -0.90824253      -0.60326075
H       -2.62226357      -0.42996402       1.08288616
H       -3.02122370       0.75885723      -0.15601674
H       -0.85921879       2.35377142      -0.75220476
H        1.61439779       1.94669536      -0.14000907
H        2.85754275      -1.44871345       0.96287978
H        2.88172355      -0.94185968      -0.66118152
H        0.40161162      -2.05814557       0.56045680
15
Frame=12 idx=010488 GeodesicLength=1.7202603409219654 rxn_smarts="[C:1]([c:2]1[c:3]([H:11])[n:4]([H:12])[c:5]([N:6]([H:13])[H:14])[c:7]1[H:15])([H:8])([H:9])[H:10]>>[C:1]([C:2]1=[C:3]([H:11])[N:4]([H:12])/[C:5]1=[C:7](\[N:6]([H:13])[H:14])[H:15])([H:8])([H:9])[H:10]"
C       -2.34840830      -0.11683198       0.08010892
C       -0.89905057       0.21393205      -0.08392037
C       -0.42336529       1.39550047      -0.53940013
N        0.98559588       1.22794824      -0.43695215
C        0.98082274       0.10199254       0.36510369
N        2.41185492      -0.89303550       0.26089405
C        0.70748187      -1.14226656       0.03391267
H       -2.63912737      -0.92950227      -0.59155840
H       -2.57320863      -0.45347799       1.09551237
H       -3.00595477       0.73013622      -0.13563426
H       -0.85748985       2.36189886      -0.76353503
H        1.62023464       1.95661314      -0.14927510
H        2.80997868      -1.49703795       0.96017995
H        2.86880516      -0.92646418      -0.63671380
H        0.36183089      -2.02940510       0.54127760
15
Frame=13 idx=010488 GeodesicLength=1.8644097781797917 rxn_smarts="[C:1]([c:2]1[c:3]([H:11])[n:4]([H:12])[c:5]([N:6]([H:13])[H:14])[c:7]1[H:15])([H:8])([H:9])[H:10]>>[C:1]([C:2]1=[C:3]([H:11])[N:4]([H:12])/[C:5]1=[C:7](\[N:6]([H:13])[H:14])[H:15])([H:8])([H:9])[H:10]"
C       -2.31900436      -0.13443079       0.09025617
C       -0.87799620       0.22131832      -0.09208257
C       -0.41273136       1.40606674      -0.55685012
N        0.99160868       1.23762261      -0.44930486
C        0.96180502       0.11791798       0.37166012
N        2.39571282      -0.88849895       0.28466655
C        0.66861404      -1.11648539       0.00845450
H       -2.60589900      -0.94948149      -0.58001444
H       -2.52611460      -0.47552340       1.10782201
H       -2.99083520       0.70269162      -0.11546539
H       -0.85550718       2.36884231      -0.77611568
H        1.62594913       1.96501605      -0.15825405
H        2.76327948      -1.54251072       0.95496401
H        2.85673687      -0.91056695      -0.61098943
H        0.32438184      -2.00197794       0.52125318
15
Frame=14 idx=010488 GeodesicLength=2.008633479248606 rxn_smarts="[C:1]([c:2]1[c:3]([H:11])[n:4]([H:12])[c:5]([N:6]([H:13])[H:14])[c:7]1[H:15])([H:8])([H:9])[H:10]>>[C:1]([C:2]1=[C:3]([H:11])[N:4]([H:12])/[C:5]1=[C:7](\[N:6]([H:13])[H:14])[H:15])([H:8])([H:9])[H:10]"
C       -2.29073269      -0.15107510       0.10041386
C       -0.85831167       0.22847348      -0.09932773
C       -0.40241260       1.41596458      -0.57300078
N        0.99725569       1.24599724      -0.46111840
C        0.94266023       0.13256412       0.37766727
N        2.38028906      -0.88407395       0.30951184
C        0.63154896      -1.09146983      -0.01704435
H       -2.57401257      -0.96820933      -0.56869982
H       -2.48081407      -0.49631809       1.11978858
H       -2.97588353       0.67648412      -0.09541693
H       -0.85326596       2.37477660      -0.78965602
H        1.63160811       1.97196338      -0.16700420
H        2.71765344      -1.58500867       0.94742024
H        2.84534087      -0.89429394      -0.58409806
H        0.28907674      -1.97577461       0.50056449
15
Frame=15 idx=010488 GeodesicLength=2.1529164632287188 rxn_smarts="[C:1]([c:2]1[c:3]([H:11])[n:4]([H:12])[c:5]([N:6]([H:13])[H:14])[c:7]1[H:15])([H:8])([H:9])[H:10]>>[C:1]([C:2]1=[C:3]([H:11])[N:4]([H:12])/[C:5]1=[C:7](\[N:6]([H:13])[H:14])[H:15])([H:8])([H:9])[H:10]"
C       -2.26354598      -0.16685670       0.11051576
C       -0.83988812       0.23538694      -0.10576649
C       -0.39235596       1.42526442      -0.58791849
N        1.00258863       1.25313703      -0.47246680
C        0.92344326       0.14601912       0.38316893
N        2.36544442      -0.87987542       0.33528563
C        0.59607939      -1.06717874      -0.04251434
H       -2.54341372      -0.98579059      -0.55767926
H       -2.43723735      -0.51600105       1.13137414
H       -2.96112776       0.65142006      -0.07555337
H       -0.85075662       2.37987213      -0.80380542
H        1.63729878       1.97749272      -0.17560484
H        2.67334344      -1.62440577       0.93772253
H        2.83437314      -0.87780480      -0.55621081
H        0.25575447      -1.95067935       0.47945283
15
Frame=16 idx=010488 GeodesicLength=2.297249499679081 rxn_smarts="[C:1]([c:2]1[c:3]([H:11])[n:4]([H:12])[c:5]([N:6]([H:13])[H:14])[c:7]1[H:15])([H:8])([H:9])[H:10]>>[C:1]([C:2]1=[C:3]([H:11])[N:4]([H:12])/[C:5]1=[C:7](\[N:6]([H:13])[H:14])[H:15])([H:8])([H:9])[H:10]"
C       -2.23739606      -0.18185908       0.12051172
C       -0.82263500       0.24205650      -0.11149871
C       -0.38253330       1.43403960      -0.60165507
N        1.00764476       1.25909430      -0.48344912
C        0.90420203       0.15835915       0.38817396
N        2.35106879      -0.87598803       0.36184222
C        0.56201187      -1.04357159      -0.06792893
H       -2.51406040      -1.00229116      -0.54702602
H       -2.39529263      -0.53474051       1.14253936
H       -2.94658822       0.62742085      -0.05587580
H       -0.84797069       2.38429167      -0.81822621
H        1.64310286       1.98162381      -0.18416955
H        2.63053341      -1.66056648       0.92618838
H        2.82364652      -0.86127136      -0.52749678
H        0.22426606      -1.92659768       0.45807055
