18
Frame=0 idx=005191 GeodesicLength=0.0 rxn_smarts="[C:1]([C:2]([C:3]([O:4][H:13])([C:5]([C:6]([H:16])([H:17])[H:18])([H:14])[H:15])[H:12])([H:10])[H:11])([H:7])([H:8])[H:9]>>[C:1]([C:2](/[C:3](=[C:5](/[C:6]([H:16])([H:17])[H:18])[H:15])[H:12])([H:10])[H:11])([H:7])([H:8])[H:9].[O:4]([H:13])[H:14]"
C       -2.48168286      -0.05417145       0.19992772
C       -1.24177806       0.14018011      -0.65705471
C        0.04150774       0.29634301       0.08516143
O        0.18916619      -1.35601775       1.17974620
C        1.29169967       0.02285836      -0.50589395
C        2.54905533       0.71359191      -0.02970661
H       -3.38249122      -0.05343343      -0.41571570
H       -2.43856256      -1.00064107       0.73915372
H       -2.58135457       0.74196896       0.94016115
H       -1.13482699      -0.66661004      -1.38691570
H       -1.34040289       1.06319329      -1.24434831
H        0.00583753       0.90277384       0.98503228
H       -0.42750178      -2.09630852       1.14697636
H        1.04932013      -1.06535441       0.22332442
H        1.25524106      -0.25092204      -1.55906091
H        3.43350257       0.12677987      -0.28243834
H        2.67483685       1.70509552      -0.47430363
H        2.53843391       0.83067391       1.05595460
18
Frame=1 idx=005191 GeodesicLength=0.048598172153441824 rxn_smarts="[C:1]([C:2]([C:3]([O:4][H:13])([C:5]([C:6]([H:16])([H:17])[H:18])([H:14])[H:15])[H:12])([H:10])[H:11])([H:7])([H:8])[H:9]>>[C:1]([C:2](/[C:3](=[C:5](/[C:6]([H:16])([H:17])[H:18])[H:15])[H:12])([H:10])[H:11])([H:7])([H:8])[H:9].[O:4]([H:13])[H:14]"
C       -2.48373795      -0.04941765       0.20109121
C       -1.24424880       0.14037484      -0.65808749
C        0.03855137       0.29428845       0.08772888
O        0.19320613      -1.35806586       1.19032963
C        1.28925355       0.02325290      -0.50569677
C        2.54659290       0.71150140      -0.02634651
H       -3.38483165      -0.05827109      -0.41409076
H       -2.43707671      -0.98978479       0.75073733
H       -2.58594652       0.75447765       0.93263713
H       -1.13995436      -0.67013302      -1.38442114
H       -1.34268386       1.06050538      -1.24948241
H        0.00323876       0.91698515       0.97672752
H       -0.40531967      -2.11056722       1.12577760
H        1.05887041      -1.07960210       0.22483792
H        1.25384513      -0.23920004      -1.56181388
H        3.43002145       0.12182651      -0.27643365
H        2.67504365       1.70181464      -0.47255326
H        2.53517616       0.83001486       1.05905865
18
Frame=2 idx=005191 GeodesicLength=0.09715499109570731 rxn_smarts="[C:1]([C:2]([C:3]([O:4][H:13])([C:5]([C:6]([H:16])([H:17])[H:18])([H:14])[H:15])[H:12])([H:10])[H:11])([H:7])([H:8])[H:9]>>[C:1]([C:2](/[C:3](=[C:5](/[C:6]([H:16])([H:17])[H:18])[H:15])[H:12])([H:10])[H:11])([H:7])([H:8])[H:9].[O:4]([H:13])[H:14]"
C       -2.48580524      -0.04470449       0.20217977
C       -1.24672013       0.14058138      -0.65914211
C        0.03556403       0.29218953       0.09036305
O        0.19730020      -1.36068508       1.20029669
C        1.28675913       0.02363121      -0.50552306
C        2.54407439       0.70936268      -0.02295527
H       -3.38715954      -0.06308611      -0.41242839
H       -2.43562261      -0.97888058       0.76211253
H       -2.59055811       0.76678579       0.92502075
H       -1.14509952      -0.67356373      -1.38199630
H       -1.34496700       1.05785912      -1.25455047
H        0.00062935       0.93090691       0.96824898
H       -0.38306897      -2.12368361       1.10571077
H        1.06874580      -1.09408284       0.22612003
H        1.25238613      -0.22722438      -1.56452629
H        3.42648338       0.11692126      -0.27056592
H        2.67514610       1.69856822      -0.47057935
H        2.53191262       0.82910472       1.06221460
18
Frame=3 idx=005191 GeodesicLength=0.14568037527030453 rxn_smarts="[C:1]([C:2]([C:3]([O:4][H:13])([C:5]([C:6]([H:16])([H:17])[H:18])([H:14])[H:15])[H:12])([H:10])[H:11])([H:7])([H:8])[H:9]>>[C:1]([C:2](/[C:3](=[C:5](/[C:6]([H:16])([H:17])[H:18])[H:15])[H:12])([H:10])[H:11])([H:7])([H:8])[H:9].[O:4]([H:13])[H:14]"
C       -2.48788570      -0.04000711       0.20320712
C       -1.24918999       0.14079159      -0.66020867
C        0.03254565       0.29005304       0.09307318
O        0.20145518      -1.36384844       1.20969553
C        1.28421711       0.02399061      -0.50535785
C        2.54149814       0.70718908      -0.01953572
H       -3.38947377      -0.06787911      -0.41071936
H       -2.43420267      -0.96788150       0.77333379
H       -2.59519303       0.77894939       0.91729411
H       -1.15026226      -0.67693037      -1.37961037
H       -1.34724512       1.05522998      -1.25957090
H       -0.00199073       0.94457461       0.95958899
H       -0.36077666      -2.13584104       1.08659030
H        1.07896798      -1.10878189       0.22720591
H        1.25086627      -0.21502847      -1.56716815
H        3.42289115       0.11207517      -0.26482461
H        2.67513767       1.69536001      -0.46841066
H        2.52864078       0.82798446       1.06541735
18
Frame=4 idx=005191 GeodesicLength=0.19417922717319924 rxn_smarts="[C:1]([C:2]([C:3]([O:4][H:13])([C:5]([C:6]([H:16])([H:17])[H:18])([H:14])[H:15])[H:12])([H:10])[H:11])([H:7])([H:8])[H:9]>>[C:1]([C:2](/[C:3](=[C:5](/[C:6]([H:16])([H:17])[H:18])[H:15])[H:12])([H:10])[H:11])([H:7])([H:8])[H:9].[O:4]([H:13])[H:14]"
C       -2.48997938      -0.03530835       0.20418366
C       -1.25165669       0.14099931      -0.66127970
C        0.02949640       0.28788584       0.09586579
O        0.20567860      -1.36753345       1.21856349
C        1.28162819       0.02432897      -0.50518994
C        2.53886323       0.70499038      -0.01608977
H       -3.39177332      -0.07265056      -0.40895518
H       -2.43281769      -0.95675372       0.78443962
H       -2.59985250       0.79100657       0.90944510
H       -1.15544180      -0.68025405      -1.37723991
H       -1.34951393       1.05259899      -1.26455748
H       -0.00462045       0.95801726       0.95073895
H       -0.33847430      -2.14717471       1.06827773
H        1.08955632      -1.12368799       0.22811995
H        1.24928718      -0.20263849      -1.56971592
H        3.41924796       0.10729759      -0.25920328
H        2.67501271       1.69219379      -0.46606658
H        2.52535949       0.82668263       1.06866348
18
Frame=5 idx=005191 GeodesicLength=0.24265500334777196 rxn_smarts="[C:1]([C:2]([C:3]([O:4][H:13])([C:5]([C:6]([H:16])([H:17])[H:18])([H:14])[H:15])[H:12])([H:10])[H:11])([H:7])([H:8])[H:9]>>[C:1]([C:2](/[C:3](=[C:5](/[C:6]([H:16])([H:17])[H:18])[H:15])[H:12])([H:10])[H:11])([H:7])([H:8])[H:9].[O:4]([H:13])[H:14]"
C       -2.49208590      -0.03059539       0.20511820
C       -1.25411930       0.14120024      -0.66234925
C        0.02641607       0.28569608       0.09874561
O        0.20997509      -1.37171940       1.22693102
C        1.27899249       0.02464456      -0.50501006
C        2.53616906       0.70277339      -0.01261838
H       -3.39405724      -0.07740302      -0.40712721
H       -2.43146629      -0.94546987       0.79546090
H       -2.60453786       0.80298616       0.90146372
H       -1.16063756      -0.68355076      -1.37486603
H       -1.35177164       1.04995115      -1.26952124
H       -0.00725929       0.97126044       0.94168940
H       -0.31618704      -2.15779291       1.05065799
H        1.10052777      -1.13879090       0.22888199
H        1.24764982      -0.19007686      -1.57214970
H        3.41555642       0.10259441      -0.25369568
H        2.67476785       1.68907149      -0.46356215
H        2.52206755       0.82522120       1.07195085
18
Frame=6 idx=005191 GeodesicLength=0.29111166416145434 rxn_smarts="[C:1]([C:2]([C:3]([O:4][H:13])([C:5]([C:6]([H:16])([H:17])[H:18])([H:14])[H:15])[H:12])([H:10])[H:11])([H:7])([H:8])[H:9]>>[C:1]([C:2](/[C:3](=[C:5](/[C:6]([H:16])([H:17])[H:18])[H:15])[H:12])([H:10])[H:11])([H:7])([H:8])[H:9].[O:4]([H:13])[H:14]"
C       -2.49420541      -0.02585910       0.20601821
C       -1.25657808       0.14139201      -0.66341262
C        0.02330413       0.28349347       0.10171618
O        0.21434729      -1.37638636       1.23482395
C        1.27630994       0.02493563      -0.50481023
C        2.53341608       0.70054266      -0.00912184
H       -3.39632581      -0.08213921      -0.40522719
H       -2.43014645      -0.93400939       0.80642025
H       -2.60925100       0.81490826       0.89334370
H       -1.16584943      -0.68683200      -1.37247423
H       -1.35401958       1.04727549      -1.27447067
H       -0.00990706       0.98432761       0.93243076
H       -0.29393430      -2.16778321       1.03363415
H        1.11189805      -1.15408126       0.22950942
H        1.24595478      -0.17736436      -1.57445252
H        3.41181964       0.09796775      -0.24829483
H        2.67440264       1.68599301      -0.46091069
H        2.51876457       0.82361900       1.07527819
18
Frame=7 idx=005191 GeodesicLength=0.3395467572181642 rxn_smarts="[C:1]([C:2]([C:3]([O:4][H:13])([C:5]([C:6]([H:16])([H:17])[H:18])([H:14])[H:15])[H:12])([H:10])[H:11])([H:7])([H:8])[H:9]>>[C:1]([C:2](/[C:3](=[C:5](/[C:6]([H:16])([H:17])[H:18])[H:15])[H:12])([H:10])[H:11])([H:7])([H:8])[H:9].[O:4]([H:13])[H:14]"
C       -2.49633625      -0.02109242       0.20689083
C       -1.25903144       0.14157170      -0.66446463
C        0.02016045       0.28128497       0.10478114
O        0.21879828      -1.38152060       1.24226253
C        1.27358067       0.02520009      -0.50458303
C        2.53060340       0.69830270      -0.00560068
H       -3.39857653      -0.08686723      -0.40324549
H       -2.42885433      -0.92235117       0.81734125
H       -2.61399242       0.82679075       0.88507550
H       -1.17107610      -0.69010747      -1.37005016
H       -1.35625556       1.04456069      -1.27941201
H       -0.01256137       0.99723439       0.92295487
H       -0.27174619      -2.17721044       1.01711635
H        1.12368225      -1.16955070       0.23001659
H        1.24420287      -0.16451884      -1.57660819
H        3.40803940       0.09342267      -0.24299535
H        2.67391458       1.68295894      -0.45812297
H        2.51544829       0.82189198       1.07864345
18
Frame=8 idx=005191 GeodesicLength=0.3879465509919866 rxn_smarts="[C:1]([C:2]([C:3]([O:4][H:13])([C:5]([C:6]([H:16])([H:17])[H:18])([H:14])[H:15])[H:12])([H:10])[H:11])([H:7])([H:8])[H:9]>>[C:1]([C:2](/[C:3](=[C:5](/[C:6]([H:16])([H:17])[H:18])[H:15])[H:12])([H:10])[H:11])([H:7])([H:8])[H:9].[O:4]([H:13])[H:14]"
C       -2.49847156      -0.01631410       0.20773130
C       -1.26147557       0.14175830      -0.66550421
C        0.01698627       0.27909615       0.10794300
O        0.22330091      -1.38707063       1.24929439
C        1.27080245       0.02542701      -0.50431432
C        2.52773265       0.69605406      -0.00207012
H       -3.40080607      -0.09152994      -0.40118875
H       -2.42760261      -0.91056918       0.82813756
H       -2.61873578       0.83855501       0.87673003
H       -1.17630375      -0.69334444      -1.36760684
H       -1.35848497       1.04183749      -1.28432588
H       -0.01521903       1.01001458       0.91324998
H       -0.24965054      -2.18610963       1.00107810
H        1.13588398      -1.18517968       0.23045776
H        1.24239462      -0.15160909      -1.57858846
H        3.40421670       0.08895310      -0.23780136
H        2.67330491       1.67995489      -0.45524945
H        2.51212739       0.82007610       1.08202726
18
Frame=9 idx=005191 GeodesicLength=0.43631374893043223 rxn_smarts="[C:1]([C:2]([C:3]([O:4][H:13])([C:5]([C:6]([H:16])([H:17])[H:18])([H:14])[H:15])[H:12])([H:10])[H:11])([H:7])([H:8])[H:9]>>[C:1]([C:2](/[C:3](=[C:5](/[C:6]([H:16])([H:17])[H:18])[H:15])[H:12])([H:10])[H:11])([H:7])([H:8])[H:9].[O:4]([H:13])[H:14]"
C       -2.50061456      -0.01151952       0.20854495
C       -1.26391224       0.14195011      -0.66652838
C        0.01378089       0.27693495       0.11120409
O        0.22785966      -1.39302424       1.25593520
C        1.26797721       0.02561330      -0.50399887
C        2.52480728       0.69380014       0.00147033
H       -3.40301933      -0.09613391      -0.39905180
H       -2.42639145      -0.89865136       0.83882588
H       -2.62348601       0.85021579       0.86830388
H       -1.18153383      -0.69655087      -1.36513632
H       -1.36071045       1.03909844      -1.28921736
H       -0.01787686       1.02267922       0.90331095
H       -0.22767102      -2.19452428       0.98545136
H        1.14851948      -1.20096238       0.23084511
H        1.24053242      -0.13865459      -1.58038373
H        3.40035945       0.08456395      -0.23271080
H        2.67257392       1.67698313      -0.45229485
H        2.50880545       0.81818211       1.08543034
18
Frame=10 idx=005191 GeodesicLength=0.48464755605277554 rxn_smarts="[C:1]([C:2]([C:3]([O:4][H:13])([C:5]([C:6]([H:16])([H:17])[H:18])([H:14])[H:15])[H:12])([H:10])[H:11])([H:7])([H:8])[H:9]>>[C:1]([C:2](/[C:3](=[C:5](/[C:6]([H:16])([H:17])[H:18])[H:15])[H:12])([H:10])[H:11])([H:7])([H:8])[H:9].[O:4]([H:13])[H:14]"
C       -2.50276339      -0.00670682       0.20933571
C       -1.26634142       0.14214923      -0.66753478
C        0.01054322       0.27481329       0.11456499
O        0.23247050      -1.39936280       1.26220090
C        1.26510310       0.02575647      -0.50363121
C        2.52182592       0.69154097       0.00502032
H       -3.40521456      -0.10067842      -0.39683066
H       -2.42521718      -0.88659543       0.84941076
H       -2.62824191       0.86177566       0.85980030
H       -1.18676485      -0.69972708      -1.36263220
H       -1.36293461       1.03634165      -1.29408920
H       -0.02053443       1.03523980       0.89312935
H       -0.20581444      -2.20249346       0.97018118
H        1.16159937      -1.21689089       0.23119446
H        1.23861601      -0.12567490      -1.58198367
H        3.39646713       0.08025393      -0.22771931
H        2.67172075       1.67404028      -0.44926806
H        2.50548078       0.81621851       1.08885112
18
Frame=11 idx=005191 GeodesicLength=0.5329489196174362 rxn_smarts="[C:1]([C:2]([C:3]([O:4][H:13])([C:5]([C:6]([H:16])([H:17])[H:18])([H:14])[H:15])[H:12])([H:10])[H:11])([H:7])([H:8])[H:9]>>[C:1]([C:2](/[C:3](=[C:5](/[C:6]([H:16])([H:17])[H:18])[H:15])[H:12])([H:10])[H:11])([H:7])([H:8])[H:9].[O:4]([H:13])[H:14]"
C       -2.50491794      -0.00187405       0.21010746
C       -1.26876427       0.14235754      -0.66852143
C        0.00727188       0.27274274       0.11802603
O        0.23712951      -1.40607017       1.26810443
C        1.26217898       0.02585401      -0.50320648
C        2.51878857       0.68927649       0.00858012
H       -3.40739222      -0.10516498      -0.39452116
H       -2.42407700      -0.87439787       0.85989807
H       -2.63300475       0.87323873       0.85122129
H       -1.19199667      -0.70287376      -1.36008919
H       -1.36516118       1.03356514      -1.29894410
H       -0.02319106       1.04770505       0.88269890
H       -0.18408506      -2.21005019       0.95521481
H        1.17513528      -1.23295789       0.23152073
H        1.23664584      -0.11268896      -1.58337978
H        3.39254101       0.07602125      -0.22282176
H        2.67074643       1.67112302      -0.44617688
H        2.50215265       0.81419389       1.09228893
18
Frame=12 idx=005191 GeodesicLength=0.5812185742848739 rxn_smarts="[C:1]([C:2]([C:3]([O:4][H:13])([C:5]([C:6]([H:16])([H:17])[H:18])([H:14])[H:15])[H:12])([H:10])[H:11])([H:7])([H:8])[H:9]>>[C:1]([C:2](/[C:3](=[C:5](/[C:6]([H:16])([H:17])[H:18])[H:15])[H:12])([H:10])[H:11])([H:7])([H:8])[H:9].[O:4]([H:13])[H:14]"
C       -2.50707823       0.00297927       0.21086328
C       -1.27118201       0.14257803      -0.66948670
C        0.00396544       0.27073532       0.12158730
O        0.24183161      -1.41313012       1.27365825
C        1.25920359       0.02590294      -0.50271994
C        2.51569532       0.68700621       0.01214941
H       -3.40955299      -0.10959255      -0.39212029
H       -2.42296918      -0.86206000       0.87028829
H       -2.63777509       0.88460458       0.84257234
H       -1.19722894      -0.70598920      -1.35750397
H       -1.36739418       1.03076940      -1.30378321
H       -0.02584582       1.06008194       0.87201468
H       -0.16248557      -2.21722050       0.94050592
H        1.18913841      -1.24915602       0.23184036
H        1.23462238      -0.09971710      -1.58456442
H        3.38858214       0.07186319      -0.21801303
H        2.66965257       1.66822705      -0.44303073
H        2.49882056       0.81211755       1.09574246
18
Frame=13 idx=005191 GeodesicLength=0.6294615268040163 rxn_smarts="[C:1]([C:2]([C:3]([O:4][H:13])([C:5]([C:6]([H:16])([H:17])[H:18])([H:14])[H:15])[H:12])([H:10])[H:11])([H:7])([H:8])[H:9]>>[C:1]([C:2](/[C:3](=[C:5](/[C:6]([H:16])([H:17])[H:18])[H:15])[H:12])([H:10])[H:11])([H:7])([H:8])[H:9].[O:4]([H:13])[H:14]"
C       -2.50924903       0.00785280       0.21160667
C       -1.27359823       0.14281318      -0.67042973
C        0.00062233       0.26880456       0.12524798
O        0.24656969      -1.42052465       1.27887277
C        1.25617790       0.02590088      -0.50216865
C        2.51255120       0.68472956       0.01572844
H       -3.41170360      -0.11396170      -0.38962504
H       -2.42189692      -0.84958488       0.88058110
H       -2.64255892       0.89587273       0.83386132
H       -1.20246329      -0.70907344      -1.35487518
H       -1.36964005       1.02795464      -1.30860772
H       -0.02849883       1.07237843       0.86107307
H       -0.14101484      -2.22402720       0.92601507
H        1.20361988      -1.26547924       0.23216653
H        1.23254933      -0.08677815      -1.58553356
H        3.38459727       0.06777594      -0.21328927
H        2.66844787       1.66534928      -0.43983582
H        2.49548823       0.80999728       1.09921201
18
Frame=14 idx=005191 GeodesicLength=0.6776663215921789 rxn_smarts="[C:1]([C:2]([C:3]([O:4][H:13])([C:5]([C:6]([H:16])([H:17])[H:18])([H:14])[H:15])[H:12])([H:10])[H:11])([H:7])([H:8])[H:9]>>[C:1]([C:2](/[C:3](=[C:5](/[C:6]([H:16])([H:17])[H:18])[H:15])[H:12])([H:10])[H:11])([H:7])([H:8])[H:9].[O:4]([H:13])[H:14]"
C       -2.51142127       0.01274570       0.21233858
C       -1.27601039       0.14306649      -0.67134938
C       -0.00275928       0.26695959       0.12900673
O        0.25134734      -1.42823973       1.28375845
C        1.25309634       0.02584491      -0.50154844
C        2.50934669       0.68244318       0.01931708
H       -3.41383345      -0.11827008      -0.38703311
H       -2.42084900      -0.83697557       0.89077456
H       -2.64734506       0.90703852       0.82508976
H       -1.20769589      -0.71212054      -1.35219851
H       -1.37189950       1.02512194      -1.31341884
H       -0.03114453       1.08459317       0.84986699
H       -0.11968330      -2.23047627       0.91170955
H        1.21858727      -1.28192026       0.23251480
H        1.23042082      -0.07388563      -1.58628021
H        3.38057589       0.06375810      -0.20864627
H        2.66712040       1.66248401      -0.43659700
H        2.49214691       0.80783249       1.10269527
18
Frame=15 idx=005191 GeodesicLength=0.7258522807461275 rxn_smarts="[C:1]([C:2]([C:3]([O:4][H:13])([C:5]([C:6]([H:16])([H:17])[H:18])([H:14])[H:15])[H:12])([H:10])[H:11])([H:7])([H:8])[H:9]>>[C:1]([C:2](/[C:3](=[C:5](/[C:6]([H:16])([H:17])[H:18])[H:15])[H:12])([H:10])[H:11])([H:7])([H:8])[H:9].[O:4]([H:13])[H:14]"
C       -2.51359993       0.01768154       0.21306840
C       -1.27842582       0.14332646      -0.67224347
C       -0.00618430       0.26520467       0.13286074
O        0.25616635      -1.43628573       1.28829479
C        1.24995478       0.02574225      -0.50085979
C        2.50607759       0.68014476       0.02292909
H       -3.41594649      -0.12254915      -0.38432464
H       -2.41980933      -0.82415656       0.90093853
H       -2.65215628       0.91816603       0.81620380
H       -1.21294005      -0.71515847      -1.34945006
H       -1.37418021       1.02223929      -1.31824075
H       -0.03379696       1.09671616       0.83839681
H       -0.09842784      -2.23661914       0.89750887
H        1.23406153      -1.29847533       0.23287486
H        1.22823519      -0.06102141      -1.58680538
H        3.37651248       0.05979978      -0.20406017
H        2.66567674       1.65962813      -0.43329720
H        2.48878254       0.80561671       1.10620557
18
Frame=16 idx=005191 GeodesicLength=0.7740266800910528 rxn_smarts="[C:1]([C:2]([C:3]([O:4][H:13])([C:5]([C:6]([H:16])([H:17])[H:18])([H:14])[H:15])[H:12])([H:10])[H:11])([H:7])([H:8])[H:9]>>[C:1]([C:2](/[C:3](=[C:5](/[C:6]([H:16])([H:17])[H:18])[H:15])[H:12])([H:10])[H:11])([H:7])([H:8])[H:9].[O:4]([H:13])[H:14]"
C       -2.51579408       0.02265729       0.21380015
C       -1.28084918       0.14359378      -0.67311204
C       -0.00965390       0.26355123       0.13680868
O        0.26102299      -1.44464930       1.29248929
C        1.24675815       0.02558926      -0.50010298
C        2.50275372       0.67783456       0.02656500
H       -3.41805373      -0.12680804      -0.38149427
H       -2.41878680      -0.81113015       0.91107408
H       -2.65700244       0.92925415       0.80720888
H       -1.21819874      -0.71818987      -1.34663216
H       -1.37648691       1.01930675      -1.32307387
H       -0.03645017       1.10875301       0.82666234
H       -0.07726541      -2.24245919       0.88338581
H        1.25005321      -1.31514307       0.23325457
H        1.22600015      -0.04820027      -1.58711145
H        3.37242117       0.05590219      -0.19953358
H        2.66412825       1.65678475      -0.42993467
H        2.48540372       0.80335295       1.10974620
