12
Frame=0 idx=001125 GeodesicLength=0.0 rxn_smarts="[O:1]=[C:2]([C:3]([C@@:4]1([H:10])[C:5]([H:11])([H:12])[O:6]1)([H:8])[H:9])[H:7]>>[C:5](=[O:6])([H:11])[H:12].[O:1]1[C@@:2]2([H:7])[C:3]([H:8])([H:9])[C@@:4]12[H:10]"
O        0.87949584       1.02468465       0.85345130
C        1.65192563       0.20644798       0.20589569
C        0.80737871      -0.37811380      -0.80910054
C       -0.07251763      -0.15203446       0.45244908
C       -1.65641776       0.31142917       0.08378145
O       -2.23936080      -0.70588803      -0.39773995
H        2.58032725      -0.15831352       0.64694360
H        1.03797122      -1.38536451      -1.13789490
H        0.42946940       0.27262756      -1.60020774
H       -0.01057210      -0.91890043       1.22266794
H       -1.99441274       0.70850451       1.07053124
H       -1.41328698       1.17492088      -0.59077717
12
Frame=1 idx=001125 GeodesicLength=0.0889960731034873 rxn_smarts="[O:1]=[C:2]([C:3]([C@@:4]1([H:10])[C:5]([H:11])([H:12])[O:6]1)([H:8])[H:9])[H:7]>>[C:5](=[O:6])([H:11])[H:12].[O:1]1[C@@:2]2([H:7])[C:3]([H:8])([H:9])[C@@:4]12[H:10]"
O        0.88634061       1.02607403       0.85750253
C        1.65375818       0.20700584       0.20434991
C        0.80695606      -0.38776827      -0.80654606
C       -0.07092784      -0.16838478       0.45316850
C       -1.67072594       0.32975331       0.08529303
O       -2.21733882      -0.70099998      -0.41425038
H        2.59729622      -0.14217629       0.62514852
H        1.04587003      -1.39567146      -1.12829668
H        0.42470669       0.25668127      -1.60045084
H       -0.01145701      -0.93069608       1.22779668
H       -2.03039218       0.70768989       1.07033333
H       -1.41408600       1.19849252      -0.57404853
12
Frame=2 idx=001125 GeodesicLength=0.1779758648521557 rxn_smarts="[O:1]=[C:2]([C:3]([C@@:4]1([H:10])[C:5]([H:11])([H:12])[O:6]1)([H:8])[H:9])[H:7]>>[C:5](=[O:6])([H:11])[H:12].[O:1]1[C@@:2]2([H:7])[C:3]([H:8])([H:9])[C@@:4]12[H:10]"
O        0.89335849       1.02730158       0.86176078
C        1.65562171       0.20731718       0.20303457
C        0.80675600      -0.39753053      -0.80390842
C       -0.06914168      -0.18530975       0.45400691
C       -1.68504979       0.34773100       0.08691163
O       -2.19562750      -0.69509156      -0.42971102
H        2.61416941      -0.12539222       0.60244390
H        1.05426121      -1.40580716      -1.11892231
H        0.42009668       0.24075667      -1.60039335
H       -0.01213789      -0.94312796       1.23292868
H       -2.06770005       0.70759956       1.06853653
H       -1.41460659       1.22155319      -0.55668790
12
Frame=3 idx=001125 GeodesicLength=0.2669410421921284 rxn_smarts="[O:1]=[C:2]([C:3]([C@@:4]1([H:10])[C:5]([H:11])([H:12])[O:6]1)([H:8])[H:9])[H:7]>>[C:5](=[O:6])([H:11])[H:12].[O:1]1[C@@:2]2([H:7])[C:3]([H:8])([H:9])[C@@:4]12[H:10]"
O        0.90058159       1.02836253       0.86623275
C        1.65753291       0.20735051       0.20196977
C        0.80677967      -0.40740628      -0.80118188
C       -0.06713771      -0.20281982       0.45497713
C       -1.69938959       0.36541551       0.08864441
O       -2.17420032      -0.68825189      -0.44409051
H        2.63090142      -0.10793178       0.57876999
H        1.06312483      -1.41577888      -1.10978120
H        0.41565619       0.22486611      -1.60002771
H       -0.01261119      -0.95621424       1.23807343
H       -2.10639679       0.70827538       1.06507143
H       -1.41484103       1.24413283      -0.53865763
12
Frame=4 idx=001125 GeodesicLength=0.3558890433167685 rxn_smarts="[O:1]=[C:2]([C:3]([C@@:4]1([H:10])[C:5]([H:11])([H:12])[O:6]1)([H:8])[H:9])[H:7]>>[C:5](=[O:6])([H:11])[H:12].[O:1]1[C@@:2]2([H:7])[C:3]([H:8])([H:9])[C@@:4]12[H:10]"
O        0.90804270       1.02924498       0.87092822
C        1.65950991       0.20707064       0.20117918
C        0.80702783      -0.41739986      -0.79835791
C       -0.06489364      -0.22093068       0.45609315
C       -1.71374511       0.38285547       0.09050331
O       -2.15302859      -0.68056258      -0.45734574
H        2.64744223      -0.08975595       0.55405719
H        1.07244005      -1.42558949      -1.10088414
H        0.41139848       0.20902464      -1.59933936
H       -0.01286946      -0.96997820       1.24323860
H       -2.14654537       0.70976794       1.05983923
H       -1.41477902       1.26625309      -0.51991174
12
Frame=5 idx=001125 GeodesicLength=0.44482074407720607 rxn_smarts="[O:1]=[C:2]([C:3]([C@@:4]1([H:10])[C:5]([H:11])([H:12])[O:6]1)([H:8])[H:9])[H:7]>>[C:5](=[O:6])([H:11])[H:12].[O:1]1[C@@:2]2([H:7])[C:3]([H:8])([H:9])[C@@:4]12[H:10]"
O        0.91577522       1.02993853       0.87585708
C        1.66157329       0.20644233       0.20068665
C        0.80750166      -0.42751728      -0.79542876
C       -0.06238524      -0.23966206       0.45737139
C       -1.72811544       0.40009669       0.09250783
O       -2.13208026      -0.67209562      -0.46943231
H        2.66372939      -0.07081966       0.52823182
H        1.08218884      -1.43524516      -1.09224422
H        0.40733249       0.19324585      -1.59831473
H       -0.01290035      -0.98444741       1.24843699
H       -2.18820916       0.71212812       1.05271918
H       -1.41441044       1.28793567      -0.50039093
12
Frame=6 idx=001125 GeodesicLength=0.5337338603911079 rxn_smarts="[O:1]=[C:2]([C:3]([C@@:4]1([H:10])[C:5]([H:11])([H:12])[O:6]1)([H:8])[H:9])[H:7]>>[C:5](=[O:6])([H:11])[H:12].[O:1]1[C@@:2]2([H:7])[C:3]([H:8])([H:9])[C@@:4]12[H:10]"
O        0.92381429       1.03042847       0.88103040
C        1.66374648       0.20542815       0.20051802
C        0.80820224      -0.43776277      -0.79238508
C       -0.05958573      -0.25903803       0.45882964
C       -1.74249908       0.41718033       0.09468444
O       -2.11132149      -0.66291806      -0.48029317
H        2.67968758      -0.05107291       0.50121431
H        1.09235321      -1.44474799      -1.08387731
H        0.40346258       0.17754607      -1.59693474
H       -0.01268519      -0.99965372       1.25368077
H       -2.23145042       0.71541612       1.04355749
H       -1.41372445       1.30919434      -0.48002479
12
Frame=7 idx=001125 GeodesicLength=0.6226259542866723 rxn_smarts="[O:1]=[C:2]([C:3]([C@@:4]1([H:10])[C:5]([H:11])([H:12])[O:6]1)([H:8])[H:9])[H:7]>>[C:5](=[O:6])([H:11])[H:12].[O:1]1[C@@:2]2([H:7])[C:3]([H:8])([H:9])[C@@:4]12[H:10]"
O        0.93219686       1.03069744       0.88646034
C        1.66605610       0.20398896       0.20069984
C        0.80913070      -0.44814062      -0.78921704
C       -0.05646562      -0.27908765       0.46048773
C       -1.75689373       0.43414383       0.09706823
O       -2.09071706      -0.65309165      -0.48986081
H        2.69522524      -0.03045736       0.47291988
H        1.10291640      -1.45409944      -1.07580263
H        0.39978825       0.16194241      -1.59517712
H       -0.01219931      -1.01563492       1.25898356
H       -2.27632823       0.71970051       1.03216594
H       -1.41270959       1.33003848      -0.45872791
12
Frame=8 idx=001125 GeodesicLength=0.7115388882636405 rxn_smarts="[O:1]=[C:2]([C:3]([C@@:4]1([H:10])[C:5]([H:11])([H:12])[O:6]1)([H:8])[H:9])[H:7]>>[C:5](=[O:6])([H:11])[H:12].[O:1]1[C@@:2]2([H:7])[C:3]([H:8])([H:9])[C@@:4]12[H:10]"
O        0.94095148       1.03073019       0.89218982
C        1.66852781       0.20208057       0.20127292
C        0.81029236      -0.45866526      -0.78592290
C       -0.05299519      -0.29985782       0.46237792
C       -1.77130106       0.45102561       0.09970371
O       -2.07022780      -0.64269086      -0.49806393
H        2.71024598      -0.00887752       0.44323276
H        1.11387410      -1.46332559      -1.06805793
H        0.39630923       0.14645574      -1.59303791
H       -0.01141460      -1.03246278       1.26438041
H       -2.32290974       0.72509245       1.01832802
H       -1.41135258       1.35049527      -0.43640288
12
Frame=9 idx=001125 GeodesicLength=0.8003380297047321 rxn_smarts="[O:1]=[C:2]([C:3]([C@@:4]1([H:10])[C:5]([H:11])([H:12])[O:6]1)([H:8])[H:9])[H:7]>>[C:5](=[O:6])([H:11])[H:12].[O:1]1[C@@:2]2([H:7])[C:3]([H:8])([H:9])[C@@:4]12[H:10]"
O        0.95015135       1.03049788       0.89813756
C        1.67120912       0.19967659       0.20221867
C        0.81167428      -0.46931278      -0.78246466
C       -0.04912847      -0.32134325       0.46449407
C       -1.78570754       0.46784451       0.10264558
O       -2.04982081      -0.63170471      -0.50480672
H        2.72456867       0.01364188       0.41213138
H        1.12517757      -1.47235498      -1.06061339
H        0.39299486       0.13108737      -1.59042583
H       -0.01028084      -1.05008989       1.26983638
H       -2.37118684       0.73155147       1.00174398
H       -1.40965134       1.37050592      -0.41289702
12
Frame=10 idx=001125 GeodesicLength=0.8891476950395901 rxn_smarts="[O:1]=[C:2]([C:3]([C@@:4]1([H:10])[C:5]([H:11])([H:12])[O:6]1)([H:8])[H:9])[H:7]>>[C:5](=[O:6])([H:11])[H:12].[O:1]1[C@@:2]2([H:7])[C:3]([H:8])([H:9])[C@@:4]12[H:10]"
O        0.95981079       1.02999971       0.90439760
C        1.67412885       0.19674081       0.20358975
C        0.81328906      -0.48009990      -0.77886768
C       -0.04482503      -0.34362193       0.46689050
C       -1.80012434       0.48462983       0.10596814
O       -2.02945358      -0.62026512      -0.50996112
H        2.73805558       0.03721419       0.37950464
H        1.13684682      -1.48123857      -1.05357108
H        0.38983264       0.11588572      -1.58737511
H       -0.00873767      -1.06865893       1.27541808
H       -2.42122029       0.73930970       0.98211729
H       -1.40760284       1.39010449      -0.38811100
12
Frame=11 idx=001125 GeodesicLength=0.9779185888303459 rxn_smarts="[O:1]=[C:2]([C:3]([C@@:4]1([H:10])[C:5]([H:11])([H:12])[O:6]1)([H:8])[H:9])[H:7]>>[C:5](=[O:6])([H:11])[H:12].[O:1]1[C@@:2]2([H:7])[C:3]([H:8])([H:9])[C@@:4]12[H:10]"
O        0.96998984       1.02921951       0.91093998
C        1.67733549       0.19326345       0.20536884
C        0.81512659      -0.49100512      -0.77512270
C       -0.04002571      -0.36672110       0.46958156
C       -1.81454873       0.50138762       0.10976106
O       -2.00909096      -0.60842177      -0.51337287
H        2.75048742       0.06182639       0.34534350
H        1.14885813      -1.48992763      -1.04696334
H        0.38676851       0.10087330      -1.58383320
H       -0.00669626      -1.08819114       1.28112164
H       -2.47299145       0.74845400       0.95904407
H       -1.40521288       1.40924251      -0.36186855
12
Frame=12 idx=001125 GeodesicLength=1.0667531212595693 rxn_smarts="[O:1]=[C:2]([C:3]([C@@:4]1([H:10])[C:5]([H:11])([H:12])[O:6]1)([H:8])[H:9])[H:7]>>[C:5](=[O:6])([H:11])[H:12].[O:1]1[C@@:2]2([H:7])[C:3]([H:8])([H:9])[C@@:4]12[H:10]"
O        0.98071157       1.02818160       0.91780445
C        1.68087120       0.18924504       0.20754924
C        0.81719642      -0.50203487      -0.77126313
C       -0.03466927      -0.39070560       0.47261703
C       -1.82900628       0.51813988       0.11413979
O       -1.98868742      -0.59627429      -0.51488201
H        2.76164077       0.08750666       0.30961617
H        1.16124052      -1.49845304      -1.04088980
H        0.38375802       0.08608155      -1.57983077
H       -0.00405448      -1.10879481       1.28702038
H       -2.52649240       0.75916845       0.93209623
H       -1.40250865       1.42793943      -0.33397758
12
Frame=13 idx=001125 GeodesicLength=1.1553255753634295 rxn_smarts="[O:1]=[C:2]([C:3]([C@@:4]1([H:10])[C:5]([H:11])([H:12])[O:6]1)([H:8])[H:9])[H:7]>>[C:5](=[O:6])([H:11])[H:12].[O:1]1[C@@:2]2([H:7])[C:3]([H:8])([H:9])[C@@:4]12[H:10]"
O        0.99211492       1.02691020       0.92472853
C        1.68480162       0.18479859       0.20994612
C        0.81942302      -0.51306670      -0.76725823
C       -0.02864992      -0.41547932       0.47593448
C       -1.84348420       0.53482339       0.11923170
O       -1.96822390      -0.58379866      -0.51425341
H        2.77120778       0.11382910       0.27268539
H        1.17385554      -1.50657113      -1.03531148
H        0.38061888       0.07152254      -1.57520887
H       -0.00061578      -1.13025515       1.29298398
H       -2.58149138       0.77129441       0.90069434
H       -1.39955659       1.44599273      -0.30417256
12
Frame=14 idx=001125 GeodesicLength=1.2439451485484807 rxn_smarts="[O:1]=[C:2]([C:3]([C@@:4]1([H:10])[C:5]([H:11])([H:12])[O:6]1)([H:8])[H:9])[H:7]>>[C:5](=[O:6])([H:11])[H:12].[O:1]1[C@@:2]2([H:7])[C:3]([H:8])([H:9])[C@@:4]12[H:10]"
O        1.00415962       1.02551314       0.93183071
C        1.68914555       0.18001491       0.21249766
C        0.82182711      -0.52410770      -0.76323251
C       -0.02187911      -0.44115465       0.47962594
C       -1.85807399       0.55144750       0.12522957
O       -1.94766622      -0.57122909      -0.51120958
H        2.77900457       0.14072570       0.23466324
H        1.18681251      -1.51436577      -1.03047715
H        0.37725479       0.05726296      -1.57012506
H        0.00381858      -1.15280948       1.29917081
H       -2.63794754       0.78524423       0.86427308
H       -1.39645587       1.46345826      -0.27224671
12
Frame=15 idx=001125 GeodesicLength=1.3325090112870597 rxn_smarts="[O:1]=[C:2]([C:3]([C@@:4]1([H:10])[C:5]([H:11])([H:12])[O:6]1)([H:8])[H:9])[H:7]>>[C:5](=[O:6])([H:11])[H:12].[O:1]1[C@@:2]2([H:7])[C:3]([H:8])([H:9])[C@@:4]12[H:10]"
O        1.01691402       1.02410345       0.93893215
C        1.69392213       0.17510971       0.21494535
C        0.82432865      -0.53503899      -0.75925066
C       -0.01422526      -0.46768953       0.48367624
C       -1.87284017       0.56792944       0.13236895
O       -1.92701555      -0.55867489      -0.50538376
H        2.78485961       0.16766941       0.19605331
H        1.20004649      -1.52164780      -1.02650495
H        0.37340780       0.04334411      -1.56454560
H        0.00954683      -1.17637728       1.30554676
H       -2.69559441       0.80109643       0.82203267
H       -1.39335013       1.48017593      -0.23787046
12
Frame=16 idx=001125 GeodesicLength=1.420962748555816 rxn_smarts="[O:1]=[C:2]([C:3]([C@@:4]1([H:10])[C:5]([H:11])([H:12])[O:6]1)([H:8])[H:9])[H:7]>>[C:5](=[O:6])([H:11])[H:12].[O:1]1[C@@:2]2([H:7])[C:3]([H:8])([H:9])[C@@:4]12[H:10]"
O        1.03042875       1.02276312       0.94594900
C        1.69910817       0.17028811       0.21706520
C        0.82681190      -0.54575090      -0.75536909
C       -0.00556453      -0.49508380       0.48810955
C       -1.88788281       0.58415587       0.14094704
O       -1.90629737      -0.54628914      -0.49634283
H        2.78872467       0.19426488       0.15721971
H        1.21346696      -1.52823224      -1.02354953
H        0.36876921       0.02981637      -1.55841639
H        0.01688189      -1.20095522       1.31210617
H       -2.75408496       0.81907130       0.77289658
H       -1.39036189       1.49595164      -0.20061542
