10
Frame=0 idx=003168 GeodesicLength=0.0 rxn_smarts="[N:1]([C@@:2]([C:3]#[C:4][H:10])([C:5]#[N:6])[H:9])([H:7])[H:8]>>[N:1]([C:2]([C:3]#[C:4][H:10])=[C:5]=[N:6][H:9])([H:7])[H:8]"
N       -0.96111572      -1.12886043      -0.59680323
C       -0.24204869       0.00927254      -0.22381350
C        1.11634087      -0.04856347       0.15411926
C        2.27681869      -0.12524666       0.46355581
C       -0.95351784       1.18075205       0.06956290
N       -1.56422806       2.22709135       0.12540100
H       -1.31852275      -1.11627311      -1.54033377
H       -0.50006516      -1.99581939      -0.37625591
H       -1.15980750       1.18001612       1.19726497
H        3.30614617      -0.18236899       0.72730246
10
Frame=1 idx=003168 GeodesicLength=0.09216845946010956 rxn_smarts="[N:1]([C@@:2]([C:3]#[C:4][H:10])([C:5]#[N:6])[H:9])([H:7])[H:8]>>[N:1]([C:2]([C:3]#[C:4][H:10])=[C:5]=[N:6][H:9])([H:7])[H:8]"
N       -0.97079921      -1.12480235      -0.59439044
C       -0.25003560       0.00511440      -0.19438656
C        1.11789363      -0.04843536       0.15370835
C        2.28114657      -0.12828333       0.45028412
C       -0.94280537       1.19780960       0.04323007
N       -1.58261129       2.22082282       0.13637856
H       -1.27916572      -1.11022788      -1.55524974
H       -0.52343362      -1.99492793      -0.35715975
H       -1.15888319       1.16692216       1.19625119
H        3.30869381      -0.18399213       0.72133419
10
Frame=2 idx=003168 GeodesicLength=0.18438214508635947 rxn_smarts="[N:1]([C@@:2]([C:3]#[C:4][H:10])([C:5]#[N:6])[H:9])([H:7])[H:8]>>[N:1]([C:2]([C:3]#[C:4][H:10])=[C:5]=[N:6][H:9])([H:7])[H:8]"
N       -0.97925595      -1.11966802      -0.59332295
C       -0.25889248       0.00176011      -0.16303723
C        1.11758627      -0.04860494       0.15768152
C        2.28356374      -0.13079881       0.44127375
C       -0.93272155       1.21354278       0.01775252
N       -1.59836178       2.21340850       0.14460669
H       -1.23514256      -1.10379395      -1.56963368
H       -0.54779151      -1.99310688      -0.33808355
H       -1.16159285       1.15431920       1.19613709
H        3.31260867      -0.18705798       0.70662585
10
Frame=3 idx=003168 GeodesicLength=0.27666340542401324 rxn_smarts="[N:1]([C@@:2]([C:3]#[C:4][H:10])([C:5]#[N:6])[H:9])([H:7])[H:8]>>[N:1]([C:2]([C:3]#[C:4][H:10])=[C:5]=[N:6][H:9])([H:7])[H:8]"
N       -0.98715164      -1.11410242      -0.59278771
C       -0.26813070      -0.00054097      -0.13343813
C        1.11677200      -0.04839343       0.15935893
C        2.28608042      -0.13196324       0.42701865
C       -0.92300150       1.22758282      -0.00719412
N       -1.61075549       2.20507790       0.15284860
H       -1.19172283      -1.09850066      -1.58131295
H       -0.57229169      -1.99057988      -0.31972003
H       -1.16356261       1.14118415       1.19758714
H        3.31376404      -0.18976427       0.69763961
10
Frame=4 idx=003168 GeodesicLength=0.368999340364019 rxn_smarts="[N:1]([C@@:2]([C:3]#[C:4][H:10])([C:5]#[N:6])[H:9])([H:7])[H:8]>>[N:1]([C:2]([C:3]#[C:4][H:10])=[C:5]=[N:6][H:9])([H:7])[H:8]"
N       -0.99446990      -1.10784755      -0.59329250
C       -0.27754772      -0.00173508      -0.10551674
C        1.11463726      -0.04909975       0.16333958
C        2.28723700      -0.13396740       0.41454610
C       -0.91341679       1.24035305      -0.03194966
N       -1.61875430       2.19660217       0.16070706
H       -1.14732174      -1.09415088      -1.59138328
H       -0.59784138      -1.98726979      -0.30181215
H       -1.16743775       1.12699709       1.19973596
H        3.31491533      -0.18988185       0.68562562
10
Frame=5 idx=003168 GeodesicLength=0.4614007982418922 rxn_smarts="[N:1]([C@@:2]([C:3]#[C:4][H:10])([C:5]#[N:6])[H:9])([H:7])[H:8]>>[N:1]([C:2]([C:3]#[C:4][H:10])=[C:5]=[N:6][H:9])([H:7])[H:8]"
N       -1.00020406      -1.10063457      -0.59478469
C       -0.28699665      -0.00114290      -0.07964363
C        1.11098982      -0.04923616       0.17155697
C        2.28674199      -0.13438603       0.40549493
C       -0.90450412       1.25221437      -0.05671009
N       -1.62436954       2.18850592       0.16790403
H       -1.10010394      -1.09120567      -1.59971848
H       -0.62367948      -1.98234306      -0.28340402
H       -1.17472076       1.11103376       1.20228022
H        3.31684674      -0.19280566       0.66702475
10
Frame=6 idx=003168 GeodesicLength=0.5539510814966018 rxn_smarts="[N:1]([C@@:2]([C:3]#[C:4][H:10])([C:5]#[N:6])[H:9])([H:7])[H:8]>>[N:1]([C:2]([C:3]#[C:4][H:10])=[C:5]=[N:6][H:9])([H:7])[H:8]"
N       -1.00553122      -1.09307411      -0.59709479
C       -0.29646596       0.00057655      -0.05645862
C        1.10649710      -0.04999340       0.18149993
C        2.28530392      -0.13546471       0.39765597
C       -0.89558081       1.26327312      -0.08165436
N       -1.62563384       2.18076982       0.17557921
H       -1.05321767      -1.08980783      -1.60607868
H       -0.65021935      -1.97663029      -0.26568791
H       -1.18364174       1.09342020       1.20528098
H        3.31848957      -0.19306936       0.64695826
10
Frame=7 idx=003168 GeodesicLength=0.646578450882589 rxn_smarts="[N:1]([C@@:2]([C:3]#[C:4][H:10])([C:5]#[N:6])[H:9])([H:7])[H:8]>>[N:1]([C:2]([C:3]#[C:4][H:10])=[C:5]=[N:6][H:9])([H:7])[H:8]"
N       -1.00976715      -1.08505500      -0.60032445
C       -0.30600976       0.00362911      -0.03526704
C        1.10097688      -0.05054056       0.19484638
C        2.28283333      -0.13550475       0.39198669
C       -0.88694342       1.27381454      -0.10685507
N       -1.62410809       2.17362541       0.18332781
H       -1.00466946      -1.08998344      -1.61057717
H       -0.67728579      -1.96978422      -0.24813655
H       -1.19536829       1.07413017       1.20853749
H        3.32034176      -0.19433126       0.62246190
10
Frame=8 idx=003168 GeodesicLength=0.7392552607104221 rxn_smarts="[N:1]([C@@:2]([C:3]#[C:4][H:10])([C:5]#[N:6])[H:9])([H:7])[H:8]>>[N:1]([C:2]([C:3]#[C:4][H:10])=[C:5]=[N:6][H:9])([H:7])[H:8]"
N       -1.01318650      -1.07682067      -0.60422996
C       -0.31559659       0.00777969      -0.01603151
C        1.09478083      -0.05094419       0.21012735
C        2.27944835      -0.13518140       0.38796392
C       -0.87833682       1.28387586      -0.13252967
N       -1.61950823       2.16680403       0.19151023
H       -0.95578109      -1.09157132      -1.61296295
H       -0.70456497      -1.96206669      -0.23130694
H       -1.20899675       1.05338519       1.21203799
H        3.32174178      -0.19526050       0.59542154
10
Frame=9 idx=003168 GeodesicLength=0.8320186862033964 rxn_smarts="[N:1]([C@@:2]([C:3]#[C:4][H:10])([C:5]#[N:6])[H:9])([H:7])[H:8]>>[N:1]([C:2]([C:3]#[C:4][H:10])=[C:5]=[N:6][H:9])([H:7])[H:8]"
N       -1.01595479      -1.06838550      -0.60885417
C       -0.32523715       0.01278516       0.00121890
C        1.08802877      -0.05142210       0.22679294
C        2.27518615      -0.13496606       0.38527961
C       -0.86950241       1.29342155      -0.15871894
N       -1.61149960       2.16049270       0.20034564
H       -0.90659867      -1.09469407      -1.61320119
H       -0.73255309      -1.95336984      -0.21516120
H       -1.22433183       1.03088258       1.21584089
H        3.32246261      -0.19474443       0.56645753
10
Frame=10 idx=003168 GeodesicLength=0.9250306624690221 rxn_smarts="[N:1]([C@@:2]([C:3]#[C:4][H:10])([C:5]#[N:6])[H:9])([H:7])[H:8]>>[N:1]([C:2]([C:3]#[C:4][H:10])=[C:5]=[N:6][H:9])([H:7])[H:8]"
N       -1.01819022      -1.05988277      -0.61406324
C       -0.33495006       0.01855679       0.01668398
C        1.08080804      -0.05187321       0.24429640
C        2.27019075      -0.13469462       0.38344209
C       -0.86048901       1.30256635      -0.18562913
N       -1.59948429       2.15423403       0.21010297
H       -0.85768772      -1.09927991      -1.61125031
H       -0.76099354      -1.94386060      -0.19989889
H       -1.24123967       1.00681488       1.21987573
H        3.32203570      -0.19258094       0.53644040
10
Frame=11 idx=003168 GeodesicLength=1.018115224810602 rxn_smarts="[N:1]([C@@:2]([C:3]#[C:4][H:10])([C:5]#[N:6])[H:9])([H:7])[H:8]>>[N:1]([C:2]([C:3]#[C:4][H:10])=[C:5]=[N:6][H:9])([H:7])[H:8]"
N       -1.01920635      -1.05128794      -0.61974394
C       -0.34468439       0.02545384       0.03069563
C        1.07316609      -0.05127970       0.26293393
C        2.26428773      -0.13291204       0.38444335
C       -0.85155545       1.31145082      -0.21339303
N       -1.58498126       2.14800179       0.22045236
H       -0.80823734      -1.10511565      -1.60698298
H       -0.78911367      -1.93333800      -0.18534390
H       -1.26025569       0.98113276       1.22400181
H        3.32058034      -0.19210587       0.50293678
10
Frame=12 idx=003168 GeodesicLength=1.1113019573981868 rxn_smarts="[N:1]([C@@:2]([C:3]#[C:4][H:10])([C:5]#[N:6])[H:9])([H:7])[H:8]>>[N:1]([C:2]([C:3]#[C:4][H:10])=[C:5]=[N:6][H:9])([H:7])[H:8]"
N       -1.01884911      -1.04263940      -0.62563290
C       -0.35444859       0.03360794       0.04351129
C        1.06521921      -0.04911618       0.28237043
C        2.25771887      -0.12884423       0.38841841
C       -0.84290313       1.32023298      -0.24217502
N       -1.56821510       2.14093243       0.23136598
H       -0.75851448      -1.11180065      -1.60024805
H       -0.81611286      -1.92188188      -0.17167957
H       -1.28142439       0.95425924       1.22813106
H        3.31752957      -0.19475024       0.46593836
10
Frame=13 idx=003168 GeodesicLength=1.2045541258768353 rxn_smarts="[N:1]([C@@:2]([C:3]#[C:4][H:10])([C:5]#[N:6])[H:9])([H:7])[H:8]>>[N:1]([C:2]([C:3]#[C:4][H:10])=[C:5]=[N:6][H:9])([H:7])[H:8]"
N       -1.01962498      -1.03410702      -0.63205865
C       -0.36413714       0.04144168       0.05430779
C        1.05712948      -0.04959958       0.30019700
C        2.25060353      -0.12938156       0.39183267
C       -0.83229516       1.32835578      -0.27187877
N       -1.54502976       2.13375301       0.24368302
H       -0.71214496      -1.11989948      -1.59166453
H       -0.84565875      -1.91000037      -0.15951394
H       -1.30174845       0.92575194       1.23269991
H        3.31290618      -0.18631440       0.43239550
10
Frame=14 idx=003168 GeodesicLength=1.297988180175676 rxn_smarts="[N:1]([C@@:2]([C:3]#[C:4][H:10])([C:5]#[N:6])[H:9])([H:7])[H:8]>>[N:1]([C:2]([C:3]#[C:4][H:10])=[C:5]=[N:6][H:9])([H:7])[H:8]"
N       -1.01975640      -1.02548622      -0.63862636
C       -0.37375530       0.05018066       0.06395872
C        1.04891596      -0.04954167       0.31793073
C        2.24314984      -0.12914354       0.39666071
C       -0.82117671       1.33643062      -0.30246123
N       -1.51926926       2.12504827       0.25635321
H       -0.66689662      -1.12858784      -1.58093884
H       -0.87492096      -1.89727856      -0.14841966
H       -1.32300666       0.89616778       1.23758706
H        3.30671609      -0.17778949       0.39795565
10
Frame=15 idx=003168 GeodesicLength=1.3915384526042154 rxn_smarts="[N:1]([C@@:2]([C:3]#[C:4][H:10])([C:5]#[N:6])[H:9])([H:7])[H:8]>>[N:1]([C:2]([C:3]#[C:4][H:10])=[C:5]=[N:6][H:9])([H:7])[H:8]"
N       -1.01920426      -1.01670872      -0.64511169
C       -0.38317859       0.05999783       0.07239308
C        1.04084133      -0.04842141       0.33461150
C        2.23568524      -0.12727309       0.40152937
C       -0.80984505       1.34460301      -0.33372698
N       -1.49218484       2.11422354       0.26908842
H       -0.62321959      -1.13762430      -1.56815333
H       -0.90338482      -1.88359714      -0.13824135
H       -1.34443763       0.86563935       1.24316556
H        3.29892822      -0.17083906       0.36444541
10
Frame=16 idx=003168 GeodesicLength=1.4852273797540425 rxn_smarts="[N:1]([C@@:2]([C:3]#[C:4][H:10])([C:5]#[N:6])[H:9])([H:7])[H:8]>>[N:1]([C:2]([C:3]#[C:4][H:10])=[C:5]=[N:6][H:9])([H:7])[H:8]"
N       -1.01772287      -1.00761474      -0.65142684
C       -0.39234994       0.07102422       0.07997364
C        1.03298724      -0.04590790       0.35063778
C        2.22834062      -0.12334475       0.40687045
C       -0.79823410       1.35311175      -0.36530803
N       -1.46542849       2.10070737       0.28100443
H       -0.58076149      -1.14644148      -1.55340141
H       -0.93062789      -1.86891759      -0.12901153
H       -1.36577987       0.83449665       1.24965628
H        3.28957679      -0.16711355       0.33100523
