12
Frame=0 idx=000970 GeodesicLength=0.0 rxn_smarts="[C:1]([c:2]1[c:3]([H:10])[o:4][c:5]([H:11])[c:6]1[H:12])([H:7])([H:8])[H:9]>>[C:1]([C:2]([C:3](=[O:4])[H:10])=[C:6]=[C:5]([H:11])[H:12])([H:7])([H:8])[H:9]"
C       -1.83665236      -0.03844341       0.02124566
C       -0.34456858       0.01794923       0.06515976
C        0.43653616       1.09618704      -0.15719019
O        1.75368798       0.81556064      -0.07224260
C        1.78833992      -0.53223306       0.23234165
C        0.51435612      -1.11007464       0.42047422
H       -2.27517622       0.93812008      -0.19008673
H       -2.23233091      -0.39618529       0.97294428
H       -2.16830080      -0.73907834      -0.74734094
H        0.20250335       2.12006813      -0.41243939
H        2.76192861      -0.89766600       0.52904773
H        1.39967668      -1.27420439      -0.66191342
12
Frame=1 idx=000970 GeodesicLength=0.10802023417187065 rxn_smarts="[C:1]([c:2]1[c:3]([H:10])[o:4][c:5]([H:11])[c:6]1[H:12])([H:7])([H:8])[H:9]>>[C:1]([C:2]([C:3](=[O:4])[H:10])=[C:6]=[C:5]([H:11])[H:12])([H:7])([H:8])[H:9]"
C       -1.83480164      -0.03865105       0.01907485
C       -0.34265951       0.01934964       0.05663781
C        0.43560488       1.10599848      -0.16196485
O        1.74993600       0.83240687      -0.07813448
C        1.79493895      -0.54466751       0.22423724
C        0.51743830      -1.10334765       0.40302633
H       -2.27541499       0.93023941      -0.22119800
H       -2.22779138      -0.36550409       0.98303244
H       -2.16990418      -0.76202221      -0.72649151
H        0.18653585       2.13744130      -0.37084224
H        2.76130214      -0.90814287       0.54499477
H        1.40481559      -1.30310032      -0.67237235
12
Frame=2 idx=000970 GeodesicLength=0.21603102166193006 rxn_smarts="[C:1]([c:2]1[c:3]([H:10])[o:4][c:5]([H:11])[c:6]1[H:12])([H:7])([H:8])[H:9]>>[C:1]([C:2]([C:3](=[O:4])[H:10])=[C:6]=[C:5]([H:11])[H:12])([H:7])([H:8])[H:9]"
C       -1.83276922      -0.03876830       0.01704257
C       -0.34059109       0.02112803       0.04822606
C        0.43447601       1.11663068      -0.16558080
O        1.74605113       0.85037347      -0.08314723
C        1.80173468      -0.55718995       0.21578137
C        0.52081639      -1.09627882       0.38497686
H       -2.27562527       0.92172483      -0.25116934
H       -2.22297189      -0.33521862       0.99200459
H       -2.17101692      -0.78370020      -0.70539501
H        0.17031393       2.15298536      -0.33112002
H        2.76004432      -0.91892777       0.56091636
H        1.40953795      -1.33275872      -0.68253541
12
Frame=3 idx=000970 GeodesicLength=0.32402943088281205 rxn_smarts="[C:1]([c:2]1[c:3]([H:10])[o:4][c:5]([H:11])[c:6]1[H:12])([H:7])([H:8])[H:9]>>[C:1]([C:2]([C:3](=[O:4])[H:10])=[C:6]=[C:5]([H:11])[H:12])([H:7])([H:8])[H:9]"
C       -1.83053658      -0.03882347       0.01493998
C       -0.33834709       0.02327250       0.03958756
C        0.43312800       1.12799473      -0.16877398
O        1.74201807       0.86937675      -0.08827381
C        1.80874977      -0.56976477       0.20675590
C        0.52452861      -1.08866301       0.36660331
H       -2.27576694       0.91238442      -0.28098809
H       -2.21785403      -0.30461807       0.99994560
H       -2.17163793      -0.80475217      -0.68367860
H        0.15386487       2.16714656      -0.29083317
H        2.75817273      -0.92978327       0.57668398
H        1.41368053      -1.36377021      -0.69196867
12
Frame=4 idx=000970 GeodesicLength=0.4320335323342993 rxn_smarts="[C:1]([c:2]1[c:3]([H:10])[o:4][c:5]([H:11])[c:6]1[H:12])([H:7])([H:8])[H:9]>>[C:1]([C:2]([C:3](=[O:4])[H:10])=[C:6]=[C:5]([H:11])[H:12])([H:7])([H:8])[H:9]"
C       -1.82808930      -0.03882139       0.01281915
C       -0.33591687       0.02580613       0.03085649
C        0.43155450       1.14016139      -0.17104416
O        1.73783101       0.88949419      -0.09325397
C        1.81600229      -0.58243308       0.19715429
C        0.52859859      -1.08052546       0.34782171
H       -2.27582672       0.90231217      -0.31029481
H       -2.21249532      -0.27404713       1.00680218
H       -2.17167920      -0.82496568      -0.66156780
H        0.13717815       2.17992554      -0.25088882
H        2.75568436      -0.94076570       0.59220711
H        1.41715851      -1.39614099      -0.70061137
12
Frame=5 idx=000970 GeodesicLength=0.5400494107821414 rxn_smarts="[C:1]([c:2]1[c:3]([H:10])[o:4][c:5]([H:11])[c:6]1[H:12])([H:7])([H:8])[H:9]>>[C:1]([C:2]([C:3](=[O:4])[H:10])=[C:6]=[C:5]([H:11])[H:12])([H:7])([H:8])[H:9]"
C       -1.82540819      -0.03877106       0.01075290
C       -0.33328590       0.02874531       0.02217546
C        0.42976757       1.15313570      -0.17205505
O        1.73349332       0.91080293      -0.09769268
C        1.82350985      -0.59525477       0.18698891
C        0.53304775      -1.07190495       0.32851605
H       -2.27579212       0.89164987      -0.33865908
H       -2.20694140      -0.24392794       1.01257458
H       -2.17106371      -0.84412478      -0.63933150
H        0.12018750       2.19150973      -0.21227853
H        2.75257110      -0.95197829       0.60740633
H        1.41991424      -1.42988175      -0.70839738
12
Frame=6 idx=000970 GeodesicLength=0.6480658572942488 rxn_smarts="[C:1]([c:2]1[c:3]([H:10])[o:4][c:5]([H:11])[c:6]1[H:12])([H:7])([H:8])[H:9]>>[C:1]([C:2]([C:3](=[O:4])[H:10])=[C:6]=[C:5]([H:11])[H:12])([H:7])([H:8])[H:9]"
C       -1.82247054      -0.03868249       0.00875549
C       -0.33043573       0.03210906       0.01358144
C        0.42777479       1.16688941      -0.17179104
O        1.72900547       0.93335289      -0.10144689
C        1.83128911      -0.60827015       0.17622324
C        0.53790243      -1.06278447       0.30862430
H       -2.27564919       0.88049135      -0.36593253
H       -2.20121031      -0.21446071       1.01730118
H       -2.16973334      -0.86219173      -0.61712772
H        0.10283049       2.20212821      -0.17523163
H        2.74883565      -0.96344411       0.62218234
H        1.42186117      -1.46513727      -0.71513819
12
Frame=7 idx=000970 GeodesicLength=0.7560782753351606 rxn_smarts="[C:1]([c:2]1[c:3]([H:10])[o:4][c:5]([H:11])[c:6]1[H:12])([H:7])([H:8])[H:9]>>[C:1]([C:2]([C:3](=[O:4])[H:10])=[C:6]=[C:5]([H:11])[H:12])([H:7])([H:8])[H:9]"
C       -1.81925302      -0.03856381       0.00682273
C       -0.32734697       0.03591838       0.00505101
C        0.42558486       1.18138885      -0.17034714
O        1.72435662       0.95719567      -0.10444874
C        1.83935459      -0.62151125       0.16480256
C        0.54318797      -1.05312892       0.28806374
H       -2.27539126       0.86891790      -0.39204012
H       -2.19529174      -0.18578052       1.02103688
H       -2.16764936      -0.87917483      -0.59507942
H        0.08506143       2.21197570      -0.13972725
H        2.74448176      -0.97514700       0.63644869
H        1.42290512      -1.50209018      -0.72058295
12
Frame=8 idx=000970 GeodesicLength=0.8640836788206268 rxn_smarts="[C:1]([c:2]1[c:3]([H:10])[o:4][c:5]([H:11])[c:6]1[H:12])([H:7])([H:8])[H:9]>>[C:1]([C:2]([C:3](=[O:4])[H:10])=[C:6]=[C:5]([H:11])[H:12])([H:7])([H:8])[H:9]"
C       -1.81573284      -0.03842172       0.00493209
C       -0.32399892       0.04019737      -0.00346451
C        0.42319758       1.19660904      -0.16786040
O        1.71954276       0.98238389      -0.10667785
C        1.84772312      -0.63501039       0.15264955
C        0.54893790      -1.04289445       0.26673031
H       -2.27501405       0.85698616      -0.41700429
H       -2.18917448      -0.15794115       1.02383874
H       -2.16477261      -0.89513243      -0.57326295
H        0.06683300       2.22122330      -0.10555081
H        2.73952457      -0.98704972       0.65008673
H        1.42293398      -1.54094989      -0.72441662
12
Frame=9 idx=000970 GeodesicLength=0.9720742964620962 rxn_smarts="[C:1]([c:2]1[c:3]([H:10])[o:4][c:5]([H:11])[c:6]1[H:12])([H:7])([H:8])[H:9]>>[C:1]([C:2]([C:3](=[O:4])[H:10])=[C:6]=[C:5]([H:11])[H:12])([H:7])([H:8])[H:9]"
C       -1.81187290      -0.03826545       0.00308069
C       -0.32036875       0.04496492      -0.01208635
C        0.42062627       1.21252650      -0.16452410
O        1.71451948       1.00898185      -0.10798743
C        1.85639347      -0.64879750       0.13969509
C        0.55516816      -1.03204485       0.24439249
H       -2.27452423       0.84476525      -0.44074168
H       -2.18274774      -0.13104846       1.02579919
H       -2.16110066      -0.91009392      -0.55176142
H        0.04813658       2.22998471      -0.07261227
H        2.73392187      -0.99910860       0.66307799
H        1.42184845      -1.58186444      -0.72633219
12
Frame=10 idx=000970 GeodesicLength=1.0800648420855263 rxn_smarts="[C:1]([c:2]1[c:3]([H:10])[o:4][c:5]([H:11])[c:6]1[H:12])([H:7])([H:8])[H:9]>>[C:1]([C:2]([C:3](=[O:4])[H:10])=[C:6]=[C:5]([H:11])[H:12])([H:7])([H:8])[H:9]"
C       -1.80764918      -0.03809982       0.00123274
C       -0.31643317       0.05026183      -0.02085761
C        0.41785630       1.22914972      -0.16038095
O        1.70930232       1.03704550      -0.10848711
C        1.86538951      -0.66291502       0.12582933
C        0.56192867      -1.02052013       0.22087715
H       -2.27392730       0.83232554      -0.46326635
H       -2.17601468      -0.10519480       1.02695651
H       -2.15656708      -0.92409858      -0.53069679
H        0.02893131       2.23836595      -0.04063619
H        2.72769533      -1.01125352       0.67527993
H        1.41948797      -1.62506667      -0.72585065
12
Frame=11 idx=000970 GeodesicLength=1.188037183290801 rxn_smarts="[C:1]([c:2]1[c:3]([H:10])[o:4][c:5]([H:11])[c:6]1[H:12])([H:7])([H:8])[H:9]>>[C:1]([C:2]([C:3](=[O:4])[H:10])=[C:6]=[C:5]([H:11])[H:12])([H:7])([H:8])[H:9]"
C       -1.80301820      -0.03793436      -0.00062692
C       -0.31216279       0.05612189      -0.02988875
C        0.41488870       1.24649138      -0.15548099
O        1.70387296       1.06662500      -0.10814741
C        1.87471846      -0.67741186       0.11093880
C        0.56925965      -1.00827943       0.19584359
H       -2.27323492       0.81975417      -0.48450367
H       -2.16887443      -0.08051667       1.02739790
H       -2.15113326      -0.93717455      -0.51019484
H        0.00919154       2.24645250      -0.00949800
H        2.72079444      -1.02340781       0.68664142
H        1.41569785      -1.67072025      -0.72248114
12
Frame=12 idx=000970 GeodesicLength=1.2960104625326017 rxn_smarts="[C:1]([c:2]1[c:3]([H:10])[o:4][c:5]([H:11])[c:6]1[H:12])([H:7])([H:8])[H:9]>>[C:1]([C:2]([C:3](=[O:4])[H:10])=[C:6]=[C:5]([H:11])[H:12])([H:7])([H:8])[H:9]"
C       -1.79793335      -0.03778135      -0.00252376
C       -0.30752663       0.06258575      -0.03931868
C        0.41172557       1.26456655      -0.14986870
O        1.69820551       1.09777576      -0.10708695
C        1.88439376      -0.69234648       0.09489011
C        0.57720839      -0.99526473       0.16884469
H       -2.27246562       0.80713804      -0.50437899
H       -2.16120920      -0.05716748       1.02720883
H       -2.14475708      -0.94935157      -0.49039402
H       -0.01107443       2.25428605       0.02107176
H        2.71313548      -1.03546092       0.69716161
H        1.41029760      -1.71897961      -0.71560590
12
Frame=13 idx=000970 GeodesicLength=1.4039406430051335 rxn_smarts="[C:1]([c:2]1[c:3]([H:10])[o:4][c:5]([H:11])[c:6]1[H:12])([H:7])([H:8])[H:9]>>[C:1]([C:2]([C:3](=[O:4])[H:10])=[C:6]=[C:5]([H:11])[H:12])([H:7])([H:8])[H:9]"
C       -1.79233325      -0.03765955      -0.00446803
C       -0.30248572       0.06969452      -0.04934025
C        0.40837165       1.28339208      -0.14359949
O        1.69229130       1.13053367      -0.10536928
C        1.89442389      -0.70779034       0.07754647
C        0.58583558      -0.98142163       0.13920506
H       -2.27165779       0.79458323      -0.52274993
H       -2.15282659      -0.03534481       1.02651893
H       -2.13739975      -0.96065704      -0.47143698
H       -0.03185699       2.26188662       0.05128914
H        2.70453018      -1.04729114       0.70691099
H        1.40310750      -1.76992561      -0.70450664
12
Frame=14 idx=000970 GeodesicLength=1.5118538083992907 rxn_smarts="[C:1]([c:2]1[c:3]([H:10])[o:4][c:5]([H:11])[c:6]1[H:12])([H:7])([H:8])[H:9]>>[C:1]([C:2]([C:3](=[O:4])[H:10])=[C:6]=[C:5]([H:11])[H:12])([H:7])([H:8])[H:9]"
C       -1.78613440      -0.03760054      -0.00643410
C       -0.29699076       0.07750056      -0.06021927
C        0.40484456       1.30297850      -0.13676105
O        1.68613353       1.16495650      -0.10316382
C        1.90481941      -0.72384823       0.05883208
C        0.59521736      -0.96667643       0.10591309
H       -2.27089851       0.78226262      -0.53925944
H       -2.14341137      -0.01543189       1.02553626
H       -2.12902144      -0.97106650      -0.45355834
H       -0.05312358       2.26925071       0.08127442
H        2.69459981      -1.05880635       0.71620415
H        1.39396538      -1.82351895      -0.68836398
12
Frame=15 idx=000970 GeodesicLength=1.6196812146643773 rxn_smarts="[C:1]([c:2]1[c:3]([H:10])[o:4][c:5]([H:11])[c:6]1[H:12])([H:7])([H:8])[H:9]>>[C:1]([C:2]([C:3](=[O:4])[H:10])=[C:6]=[C:5]([H:11])[H:12])([H:7])([H:8])[H:9]"
C       -1.77919650      -0.03767022      -0.00832431
C       -0.29096378       0.08606327      -0.07239931
C        0.40120268       1.32332714      -0.12955099
O        1.67976497       1.20108244      -0.10050637
C        1.91556918      -0.74064217       0.03877068
C        0.60545879      -0.95090989       0.06735269
H       -2.27034026       0.77041389      -0.55323575
H       -2.13238480       0.00195414       1.02462754
H       -2.11958474      -0.98052867      -0.43704034
H       -0.07481558       2.27635984       0.11088160
H        2.68257135      -1.06994302       0.72570212
H        1.38271869      -1.87950673      -0.66627755
12
Frame=16 idx=000970 GeodesicLength=1.7274136551916528 rxn_smarts="[C:1]([c:2]1[c:3]([H:10])[o:4][c:5]([H:11])[c:6]1[H:12])([H:7])([H:8])[H:9]>>[C:1]([C:2]([C:3](=[O:4])[H:10])=[C:6]=[C:5]([H:11])[H:12])([H:7])([H:8])[H:9]"
C       -1.77126824      -0.03799846      -0.00991212
C       -0.28426913       0.09547900      -0.08664925
C        0.39755625       1.34445692      -0.12240871
O        1.67325216       1.23898027      -0.09741206
C        1.92664963      -0.75835193       0.01766140
C        0.61676424      -0.93386958       0.02089153
H       -2.27027419       0.75934938      -0.56348616
H       -2.11868395       0.01581546       1.02444893
H       -2.10900738      -0.98898130      -0.42221189
H       -0.09685627       2.28320778       0.13963784
H        2.66692856      -1.08078856       0.73684356
H        1.36920833      -1.93729896      -0.63740306
