11
Frame=0 idx=001773 GeodesicLength=0.0 rxn_smarts="[N:1]([c:2]1[c:3]([H:9])[n:4]([H:10])[n:5][c:6]1[H:11])([H:7])[H:8]>>[N:1]([C@@:2](/[C:3](=[N:4]/[H:10])[H:9])([C:6]#[N:5])[H:11])([H:7])[H:8]"
N       -1.57846285      -0.31632312      -0.18711801
C       -0.31019461       0.08404583      -0.20281775
C        0.75476045      -0.87459835      -0.00314762
N        1.91819284      -0.50576154       0.36068030
N        0.80198553       2.36383216      -0.58875522
C        0.04801699       1.55722404      -0.09192104
H       -1.88015293      -1.15067774       0.28855001
H       -2.29982460       0.29525397      -0.53103163
H        0.49760232      -1.90820420      -0.26323727
H        2.56245126      -1.29303278       0.35539173
H       -0.51437439       1.74824178       0.86340645
11
Frame=1 idx=001773 GeodesicLength=0.11447639191084265 rxn_smarts="[N:1]([c:2]1[c:3]([H:9])[n:4]([H:10])[n:5][c:6]1[H:11])([H:7])[H:8]>>[N:1]([C@@:2](/[C:3](=[N:4]/[H:10])[H:9])([C:6]#[N:5])[H:11])([H:7])[H:8]"
N       -1.60045989      -0.31006012      -0.16730132
C       -0.32760771       0.08770437      -0.15236475
C        0.74470389      -0.86817974       0.00717784
N        1.92088527      -0.46951774       0.30012194
N        0.87509714       2.30896847      -0.54917864
C        0.04418841       1.55280909      -0.09527546
H       -1.91448240      -1.12599681       0.33103954
H       -2.29360605       0.25087000      -0.63280501
H        0.49414732      -1.90353644      -0.24887824
H        2.57489188      -1.24760658       0.32670326
H       -0.51775788       1.72454552       0.88076083
11
Frame=2 idx=001773 GeodesicLength=0.22933440867318994 rxn_smarts="[N:1]([c:2]1[c:3]([H:9])[n:4]([H:10])[n:5][c:6]1[H:11])([H:7])[H:8]>>[N:1]([C@@:2](/[C:3](=[N:4]/[H:10])[H:9])([C:6]#[N:5])[H:11])([H:7])[H:8]"
N       -1.62075122      -0.30068234      -0.15037425
C       -0.34314759       0.09258699      -0.10003076
C        0.73435408      -0.86188792       0.01844956
N        1.91884097      -0.43793500       0.24570636
N        0.93639867       2.25433440      -0.51502069
C        0.04360459       1.54811545      -0.09626045
H       -1.94963184      -1.09691325       0.36925461
H       -2.27431419       0.19988658      -0.72775948
H        0.48978199      -1.89782918      -0.23776317
H        2.58559865      -1.20329086       0.29530946
H       -0.52073412       1.70361512       0.89848880
11
Frame=3 idx=001773 GeodesicLength=0.34451552831993076 rxn_smarts="[N:1]([c:2]1[c:3]([H:9])[n:4]([H:10])[n:5][c:6]1[H:11])([H:7])[H:8]>>[N:1]([C@@:2](/[C:3](=[N:4]/[H:10])[H:9])([C:6]#[N:5])[H:11])([H:7])[H:8]"
N       -1.63941327      -0.28761451      -0.13610102
C       -0.35685155       0.09888270      -0.05041508
C        0.72389570      -0.85523652       0.02625476
N        1.91325852      -0.40976885       0.19261164
N        0.98743156       2.20265084      -0.48538325
C        0.04547308       1.54346179      -0.09451018
H       -1.98447641      -1.06242007       0.40468387
H       -2.24439305       0.14014581      -0.81552972
H        0.48365095      -1.89187935      -0.22815875
H        2.59300224      -1.16083660       0.26757569
H       -0.52157777       1.68261476       0.91897204
11
Frame=4 idx=001773 GeodesicLength=0.45999480871162624 rxn_smarts="[N:1]([c:2]1[c:3]([H:9])[n:4]([H:10])[n:5][c:6]1[H:11])([H:7])[H:8]>>[N:1]([C@@:2](/[C:3](=[N:4]/[H:10])[H:9])([C:6]#[N:5])[H:11])([H:7])[H:8]"
N       -1.65641903      -0.27247810      -0.12729053
C       -0.36901996       0.10563416      -0.00511046
C        0.71335216      -0.84849014       0.03253515
N        1.90461011      -0.38429364       0.14370870
N        1.03081355       2.15352864      -0.45905035
C        0.04890107       1.53843360      -0.09064636
H       -2.01970313      -1.02308108       0.43512834
H       -2.20622606       0.07623674      -0.89308240
H        0.47666956      -1.88689908      -0.21494801
H        2.59895494      -1.11898081       0.23753529
H       -0.52193321       1.66038971       0.94122063
11
Frame=5 idx=001773 GeodesicLength=0.5759930687540717 rxn_smarts="[N:1]([c:2]1[c:3]([H:9])[n:4]([H:10])[n:5][c:6]1[H:11])([H:7])[H:8]>>[N:1]([C@@:2](/[C:3](=[N:4]/[H:10])[H:9])([C:6]#[N:5])[H:11])([H:7])[H:8]"
N       -1.67202349      -0.25491009      -0.12375835
C       -0.37976568       0.11292240       0.03341474
C        0.70274216      -0.84162014       0.03656583
N        1.89396260      -0.36103713       0.09315833
N        1.06826075       2.10790018      -0.43461412
C        0.05360739       1.53366778      -0.08431784
H       -2.05480539      -0.97807408       0.46125060
H       -2.16307687       0.00676763      -0.96077962
H        0.46897801      -1.88308895      -0.19753191
H        2.60291392      -1.07753797       0.21009478
H       -0.52079342       1.63501036       0.96651756
11
Frame=6 idx=001773 GeodesicLength=0.692282680691501 rxn_smarts="[N:1]([c:2]1[c:3]([H:9])[n:4]([H:10])[n:5][c:6]1[H:11])([H:7])[H:8]>>[N:1]([C@@:2](/[C:3](=[N:4]/[H:10])[H:9])([C:6]#[N:5])[H:11])([H:7])[H:8]"
N       -1.68619403      -0.23637877      -0.12566909
C       -0.38956785       0.12007927       0.06744888
C        0.69234378      -0.83485217       0.04122799
N        1.88140945      -0.33954269       0.04789030
N        1.10122961       2.06423206      -0.41275675
C        0.05916669       1.52868617      -0.07652691
H       -2.09030906      -0.92963767       0.48092009
H       -2.11646674      -0.06361824      -1.01746533
H        0.46214705      -1.88015355      -0.17565984
H        2.60635498      -1.03678106       0.17791528
H       -0.52011388       1.60796665       0.99267537
11
Frame=7 idx=001773 GeodesicLength=0.8089607928980891 rxn_smarts="[N:1]([c:2]1[c:3]([H:9])[n:4]([H:10])[n:5][c:6]1[H:11])([H:7])[H:8]>>[N:1]([C@@:2](/[C:3](=[N:4]/[H:10])[H:9])([C:6]#[N:5])[H:11])([H:7])[H:8]"
N       -1.69897164      -0.21671130      -0.13261949
C       -0.39832433       0.12718956       0.09504404
C        0.68238449      -0.82829460       0.04464222
N        1.86772321      -0.31993401       0.00115841
N        1.13098083       2.02315067      -0.39195036
C        0.06572726       1.52394453      -0.06702310
H       -2.12535525      -0.87650516       0.49586080
H       -2.07005836      -0.13650618      -1.06336374
H        0.45620250      -1.87800474      -0.15093641
H        2.60863336      -0.99584661       0.14872986
H       -0.51894208       1.57751783       1.02045777
11
Frame=8 idx=001773 GeodesicLength=0.9258687144623935 rxn_smarts="[N:1]([c:2]1[c:3]([H:9])[n:4]([H:10])[n:5][c:6]1[H:11])([H:7])[H:8]>>[N:1]([C@@:2](/[C:3](=[N:4]/[H:10])[H:9])([C:6]#[N:5])[H:11])([H:7])[H:8]"
N       -1.71025811      -0.19679876      -0.14387725
C       -0.40654210       0.13401918       0.12009713
C        0.67301120      -0.82183710       0.05034824
N        1.85307240      -0.30142097      -0.03902489
N        1.15777010       1.98336818      -0.37344170
C        0.07275889       1.51902069      -0.05650310
H       -2.16058129      -0.82100166       0.50423479
H       -2.02255769      -0.20905934      -1.09941755
H        0.45201776      -1.87580786      -0.12367219
H        2.61063425      -0.95679108       0.11319613
H       -0.51932540       1.54630871       1.04806040
11
Frame=9 idx=001773 GeodesicLength=1.042945994481683 rxn_smarts="[N:1]([c:2]1[c:3]([H:9])[n:4]([H:10])[n:5][c:6]1[H:11])([H:7])[H:8]>>[N:1]([C@@:2](/[C:3](=[N:4]/[H:10])[H:9])([C:6]#[N:5])[H:11])([H:7])[H:8]"
N       -1.72000573      -0.17663913      -0.15912363
C       -0.41393307       0.14059104       0.14016624
C        0.66448248      -0.81559479       0.05518868
N        1.83808603      -0.28421540      -0.07767850
N        1.18272009       1.94542897      -0.35548902
C        0.08057407       1.51420552      -0.04506200
H       -2.19482879      -0.76147925       0.50825092
H       -1.97812111      -0.28281600      -1.12512344
H        0.44955497      -1.87369928      -0.09604826
H        2.61195576      -0.91830640       0.07925690
H       -0.52048469       1.51252471       1.07566212
11
Frame=10 idx=001773 GeodesicLength=1.1602236778909327 rxn_smarts="[N:1]([c:2]1[c:3]([H:9])[n:4]([H:10])[n:5][c:6]1[H:11])([H:7])[H:8]>>[N:1]([C@@:2](/[C:3](=[N:4]/[H:10])[H:9])([C:6]#[N:5])[H:11])([H:7])[H:8]"
N       -1.72792615      -0.15671273      -0.17826019
C       -0.42098253       0.14694413       0.15900253
C        0.65685441      -0.80923372       0.06324052
N        1.82292151      -0.26748998      -0.11032692
N        1.20540311       1.90886194      -0.33860455
C        0.08853031       1.50934269      -0.03247861
H       -2.22905083      -0.69959123       0.50551372
H       -1.93331269      -0.35636068      -1.14236364
H        0.44903570      -1.87113532      -0.06547732
H        2.61280246      -0.88308128       0.03700548
H       -0.52427530       1.47845617       1.10274900
11
Frame=11 idx=001773 GeodesicLength=1.2775129038302468 rxn_smarts="[N:1]([c:2]1[c:3]([H:9])[n:4]([H:10])[n:5][c:6]1[H:11])([H:7])[H:8]>>[N:1]([C@@:2](/[C:3](=[N:4]/[H:10])[H:9])([C:6]#[N:5])[H:11])([H:7])[H:8]"
N       -1.73445822      -0.13716695      -0.19961272
C       -0.42717238       0.15273939       0.17358692
C        0.65021703      -0.80323487       0.06803534
N        1.80855832      -0.25144360      -0.13968967
N        1.22665478       1.87365920      -0.32347768
C        0.09705939       1.50431672      -0.02006495
H       -2.26132263      -0.63433477       0.49987585
H       -1.89474734      -0.42990033      -1.14868464
H        0.45048875      -1.86838545      -0.04009891
H        2.61326730      -0.84825343       0.00123175
H       -0.52854500       1.44200408       1.12889871
11
Frame=12 idx=001773 GeodesicLength=1.3949752173067989 rxn_smarts="[N:1]([c:2]1[c:3]([H:9])[n:4]([H:10])[n:5][c:6]1[H:11])([H:7])[H:8]>>[N:1]([C@@:2](/[C:3](=[N:4]/[H:10])[H:9])([C:6]#[N:5])[H:11])([H:7])[H:8]"
N       -1.73875699      -0.11815901      -0.22454952
C       -0.43328867       0.15836452       0.18888579
C        0.64452495      -0.79693645       0.07756703
N        1.79423986      -0.23555987      -0.16385736
N        1.24564530       1.83981739      -0.30903479
C        0.10533850       1.49923041      -0.00604717
H       -2.29332085      -0.56809847       0.48589360
H       -1.85455405      -0.50185662      -1.14772283
H        0.45372961      -1.86506680      -0.00967786
H        2.61265902      -0.81773470      -0.04620852
H       -0.53621667       1.40599960       1.15475163
11
Frame=13 idx=001773 GeodesicLength=1.512090873518692 rxn_smarts="[N:1]([c:2]1[c:3]([H:9])[n:4]([H:10])[n:5][c:6]1[H:11])([H:7])[H:8]>>[N:1]([C@@:2](/[C:3](=[N:4]/[H:10])[H:9])([C:6]#[N:5])[H:11])([H:7])[H:8]"
N       -1.74224751      -0.10013208      -0.24962674
C       -0.43813988       0.16278931       0.19851624
C        0.63973981      -0.79163403       0.07815870
N        1.78235862      -0.21986643      -0.18375173
N        1.26324373       1.80704786      -0.29830961
C        0.11405754       1.49348515       0.00615039
H       -2.32178366      -0.49761346       0.47258033
H       -1.82675104      -0.57279899      -1.13448658
H        0.45905054      -1.86214675       0.00781710
H        2.61319448      -0.78524306      -0.07576150
H       -0.54272261       1.36611248       1.17871339
11
Frame=14 idx=001773 GeodesicLength=1.6294878217274744 rxn_smarts="[N:1]([c:2]1[c:3]([H:9])[n:4]([H:10])[n:5][c:6]1[H:11])([H:7])[H:8]>>[N:1]([C@@:2](/[C:3](=[N:4]/[H:10])[H:9])([C:6]#[N:5])[H:11])([H:7])[H:8]"
N       -1.74269164      -0.08310793      -0.27906602
C       -0.44308155       0.16704377       0.21009105
C        0.63599769      -0.78597353       0.08588373
N        1.77003653      -0.20457571      -0.20209966
N        1.27906449       1.77580642      -0.28598202
C        0.12247896       1.48770565       0.02130097
H       -2.35022791      -0.42528516       0.44892478
H       -1.79572021      -0.64249841      -1.11493150
H        0.46593008      -1.85872916       0.03417325
H        2.61199985      -0.75698668      -0.12129466
H       -0.55378629       1.32660072       1.20300008
11
Frame=15 idx=001773 GeodesicLength=1.7464685768573698 rxn_smarts="[N:1]([c:2]1[c:3]([H:9])[n:4]([H:10])[n:5][c:6]1[H:11])([H:7])[H:8]>>[N:1]([C@@:2](/[C:3](=[N:4]/[H:10])[H:9])([C:6]#[N:5])[H:11])([H:7])[H:8]"
N       -1.74302517      -0.06768810      -0.30706805
C       -0.44672011       0.16954684       0.21672515
C        0.63293003      -0.78172491       0.08242808
N        1.76130809      -0.18887660      -0.21415812
N        1.29278930       1.74547719      -0.28008310
C        0.13083594       1.48076170       0.03345888
H       -2.37472086      -0.34873261       0.42709183
H       -1.77929995      -0.70979051      -1.08275903
H        0.47473287      -1.85622961       0.04346949
H        2.61371416      -0.72564691      -0.14414384
H       -0.56254430       1.28290353       1.22503872
11
Frame=16 idx=001773 GeodesicLength=1.8635782190706929 rxn_smarts="[N:1]([c:2]1[c:3]([H:9])[n:4]([H:10])[n:5][c:6]1[H:11])([H:7])[H:8]>>[N:1]([C@@:2](/[C:3](=[N:4]/[H:10])[H:9])([C:6]#[N:5])[H:11])([H:7])[H:8]"
N       -1.74040894      -0.05395473      -0.33830426
C       -0.45028470       0.17158400       0.22464332
C        0.63077188      -0.77745319       0.08354962
N        1.75261579      -0.17353395      -0.22485245
N        1.30486517       1.71652101      -0.27324335
C        0.13888597       1.47354385       0.04806712
H       -2.39763943      -0.27023770       0.39590342
H       -1.76267533      -0.77450491      -1.04302559
H        0.48496951      -1.85354340       0.05785896
H        2.61417371      -0.69708038      -0.17758153
H       -0.57527363       1.23865941       1.24698473
