14
Frame=0 idx=005064 GeodesicLength=0.0 rxn_smarts="[C:1]([C:2]([C@@:3]([N:4]([H:13])[H:14])([C:5]#[N:6])[H:12])([H:10])[H:11])([H:7])([H:8])[H:9]>>[C:1]([C:2]([C@@:3]([N:4]([H:13])[H:14])([N+:6]#[C-:5])[H:12])([H:10])[H:11])([H:7])([H:8])[H:9]"
C       -1.77844512       0.18076671       0.07942913
C       -0.53875236      -0.61948790      -0.28433415
C        0.70971830      -0.20764583       0.42341946
N        1.87045248      -0.72350919       0.06166912
C        0.93442814       2.00932973       0.28087343
N        0.78260329       1.84010410      -0.86658099
H       -1.69911276       1.19773528      -0.29770959
H       -1.91567538       0.22713648       1.16184592
H       -2.66279967      -0.28994696      -0.35061563
H       -0.67612106      -1.66726153       0.01733636
H       -0.36804081      -0.61449471      -1.36145501
H        0.62701557       0.06514346       1.46559188
H        2.02250914      -0.92799809      -0.91294502
H        2.69222019      -0.46987155       0.58347512
14
Frame=1 idx=005064 GeodesicLength=0.057351254776533814 rxn_smarts="[C:1]([C:2]([C@@:3]([N:4]([H:13])[H:14])([C:5]#[N:6])[H:12])([H:10])[H:11])([H:7])([H:8])[H:9]>>[C:1]([C:2]([C@@:3]([N:4]([H:13])[H:14])([N+:6]#[C-:5])[H:12])([H:10])[H:11])([H:7])([H:8])[H:9]"
C       -1.78145672       0.18083222       0.07778747
C       -0.53934956      -0.61703176      -0.28326007
C        0.71140371      -0.18649376       0.41387327
N        1.87090658      -0.72889762       0.06098874
C        0.93063062       2.00860833       0.28983657
N        0.79743533       1.82726402      -0.85636511
H       -1.70541197       1.19772858      -0.30092266
H       -1.91932364       0.22894047       1.16009012
H       -2.66471505      -0.29234871      -0.35178489
H       -0.66972612      -1.66276945       0.02673754
H       -0.37300580      -0.62057186      -1.36131153
H        0.62510378       0.05876713       1.46357170
H        2.02309136      -0.92861921      -0.91482933
H        2.69441747      -0.46540838       0.57558817
14
Frame=2 idx=005064 GeodesicLength=0.11469540023243285 rxn_smarts="[C:1]([C:2]([C@@:3]([N:4]([H:13])[H:14])([C:5]#[N:6])[H:12])([H:10])[H:11])([H:7])([H:8])[H:9]>>[C:1]([C:2]([C@@:3]([N:4]([H:13])[H:14])([N+:6]#[C-:5])[H:12])([H:10])[H:11])([H:7])([H:8])[H:9]"
C       -1.78438733       0.18083238       0.07631282
C       -0.53982078      -0.61450572      -0.28211166
C        0.71301793      -0.16600648       0.40475178
N        1.87120325      -0.73403586       0.06048691
C        0.92691718       2.00777220       0.29806789
N        0.81206145       1.81470438      -0.84649340
H       -1.71163015       1.19772975      -0.30373125
H       -1.92297516       0.23040534       1.15849942
H       -2.66650622      -0.29471179      -0.35297337
H       -0.66341737      -1.65825204       0.03562594
H       -0.37769981      -0.62624705      -1.36098840
H        0.62317092       0.05273334       1.46104463
H        2.02362923      -0.92904762      -0.91648311
H        2.69643686      -0.46137081       0.56799181
14
Frame=3 idx=005064 GeodesicLength=0.17203273870410227 rxn_smarts="[C:1]([C:2]([C@@:3]([N:4]([H:13])[H:14])([C:5]#[N:6])[H:12])([H:10])[H:11])([H:7])([H:8])[H:9]>>[C:1]([C:2]([C@@:3]([N:4]([H:13])[H:14])([N+:6]#[C-:5])[H:12])([H:10])[H:11])([H:7])([H:8])[H:9]"
C       -1.78724503       0.18076964       0.07499302
C       -0.54018394      -0.61191954      -0.28090291
C        0.71455708      -0.14615366       0.39603684
N        1.87136624      -0.73895837       0.06015184
C        0.92330123       2.00682854       0.30561359
N        0.82651168       1.80240208      -0.83693923
H       -1.71777252       1.19774061      -0.30615207
H       -1.92663937       0.23153709       1.15706197
H       -2.66818557      -0.29702939      -0.35419236
H       -0.65720620      -1.65372340       0.04402566
H       -0.38214335      -0.63154530      -1.36050851
H        0.62122286       0.04704340       1.45809170
H        2.02411828      -0.92932066      -0.91792639
H        2.69829861      -0.45767104       0.56064684
14
Frame=4 idx=005064 GeodesicLength=0.2293880038356145 rxn_smarts="[C:1]([C:2]([C@@:3]([N:4]([H:13])[H:14])([C:5]#[N:6])[H:12])([H:10])[H:11])([H:7])([H:8])[H:9]>>[C:1]([C:2]([C@@:3]([N:4]([H:13])[H:14])([N+:6]#[C-:5])[H:12])([H:10])[H:11])([H:7])([H:8])[H:9]"
C       -1.79004668       0.18064848       0.07381502
C       -0.54045605      -0.60927623      -0.27964598
C        0.71601726      -0.12689887       0.38771822
N        1.87141926      -0.74368518       0.05996726
C        0.91979772       2.00576527       0.31251933
N        0.84082665       1.79032781      -0.82768120
H       -1.72386391       1.19775806      -0.30822385
H       -1.93032691       0.23236363       1.15576728
H       -2.66977551      -0.29930893      -0.35543347
H       -0.65109555      -1.64919708       0.05195587
H       -0.38635611      -0.63647548      -1.35989506
H        0.61927878       0.04167192       1.45478261
H        2.02455341      -0.92946296      -0.91917389
H        2.70002762      -0.45423044       0.55352786
14
Frame=5 idx=005064 GeodesicLength=0.2867531142394404 rxn_smarts="[C:1]([C:2]([C@@:3]([N:4]([H:13])[H:14])([C:5]#[N:6])[H:12])([H:10])[H:11])([H:7])([H:8])[H:9]>>[C:1]([C:2]([C@@:3]([N:4]([H:13])[H:14])([N+:6]#[C-:5])[H:12])([H:10])[H:11])([H:7])([H:8])[H:9]"
C       -1.79277006       0.18048040       0.07276954
C       -0.54063967      -0.60657861      -0.27835234
C        0.71741311      -0.10820693       0.37978584
N        1.87138672      -0.74823202       0.05991702
C        0.91634330       2.00457892       0.31881622
N        0.85497778       1.77846632      -0.81870489
H       -1.72987773       1.19779096      -0.30996895
H       -1.93400293       0.23291550       1.15460671
H       -2.67126030      -0.30154638      -0.35669328
H       -0.64509565      -1.64468177       0.05944715
H       -0.39034911      -0.64105786      -1.35917141
H        0.61731166       0.03660521       1.45117150
H        2.02493506      -0.92948491      -0.92025006
H        2.70162785      -0.45104881       0.54662695
14
Frame=6 idx=005064 GeodesicLength=0.3441330653787251 rxn_smarts="[C:1]([C:2]([C@@:3]([N:4]([H:13])[H:14])([C:5]#[N:6])[H:12])([H:10])[H:11])([H:7])([H:8])[H:9]>>[C:1]([C:2]([C@@:3]([N:4]([H:13])[H:14])([N+:6]#[C-:5])[H:12])([H:10])[H:11])([H:7])([H:8])[H:9]"
C       -1.79545252       0.18025085       0.07184775
C       -0.54075268      -0.60383492      -0.27702782
C        0.71872122      -0.09004249       0.37219169
N        1.87126457      -0.75264307       0.05999188
C        0.91302582       2.00332577       0.32452799
N        0.86902033       1.76680094      -0.80997456
H       -1.73586252       1.19782207      -0.31137406
H       -1.93771305       0.23316005       1.15356166
H       -2.67266443      -0.30374194      -0.35798849
H       -0.63918384      -1.64016784       0.06651183
H       -0.39414005      -0.64531613      -1.35833425
H        0.61536517       0.03188322       1.44730098
H        2.02527255      -0.92940482      -0.92115948
H        2.70309944      -0.44809169       0.53992487
14
Frame=7 idx=005064 GeodesicLength=0.40155453627119775 rxn_smarts="[C:1]([C:2]([C@@:3]([N:4]([H:13])[H:14])([C:5]#[N:6])[H:12])([H:10])[H:11])([H:7])([H:8])[H:9]>>[C:1]([C:2]([C@@:3]([N:4]([H:13])[H:14])([N+:6]#[C-:5])[H:12])([H:10])[H:11])([H:7])([H:8])[H:9]"
C       -1.79809197       0.17997213       0.07104002
C       -0.54080708      -0.60104554      -0.27568691
C        0.71995699      -0.07236000       0.36494094
N        1.87108057      -0.75691804       0.06018053
C        0.90981981       2.00197559       0.32968766
N        0.88295689       1.75531751      -0.80149576
H       -1.74181263       1.19786652      -0.31248607
H       -1.94143573       0.23314162       1.15263950
H       -2.67400386      -0.30590939      -0.35930577
H       -0.63338091      -1.63568511       0.07318411
H       -0.39775281      -0.64926303      -1.35742600
H        0.61343330       0.02744927       1.44322432
H        2.02556976      -0.92921162      -0.92193122
H        2.70446768      -0.44532990       0.53343466
14
Frame=8 idx=005064 GeodesicLength=0.4589397057214793 rxn_smarts="[C:1]([C:2]([C@@:3]([N:4]([H:13])[H:14])([C:5]#[N:6])[H:12])([H:10])[H:11])([H:7])([H:8])[H:9]>>[C:1]([C:2]([C@@:3]([N:4]([H:13])[H:14])([N+:6]#[C-:5])[H:12])([H:10])[H:11])([H:7])([H:8])[H:9]"
C       -1.80068708       0.17964503       0.07034095
C       -0.54080624      -0.59821646      -0.27432585
C        0.72111805      -0.05515557       0.35802990
N        1.87084464      -0.76107424       0.06047621
C        0.90671495       2.00052316       0.33430311
N        0.89678751       1.74401615      -0.79327883
H       -1.74772145       1.19792090      -0.31329823
H       -1.94517798       0.23285236       1.15182529
H       -2.67527276      -0.30803389      -0.36065939
H       -0.62767819      -1.63121620       0.07947956
H       -0.40118794      -0.65290471      -1.35643803
H        0.61151083       0.02330204       1.43898081
H        2.02582193      -0.92890382      -0.92257251
H        2.70573372      -0.44275475       0.52713700
14
Frame=9 idx=005064 GeodesicLength=0.5164018624341041 rxn_smarts="[C:1]([C:2]([C@@:3]([N:4]([H:13])[H:14])([C:5]#[N:6])[H:12])([H:10])[H:11])([H:7])([H:8])[H:9]>>[C:1]([C:2]([C@@:3]([N:4]([H:13])[H:14])([N+:6]#[C-:5])[H:12])([H:10])[H:11])([H:7])([H:8])[H:9]"
C       -1.80324938       0.17926898       0.06974102
C       -0.54076016      -0.59534774      -0.27296447
C        0.72221165      -0.03836019       0.35141020
N        1.87056286      -0.76513916       0.06086852
C        0.90372837       1.99903330       0.33842596
N        0.91053530       1.73286692      -0.78524921
H       -1.75361419       1.19798426      -0.31384102
H       -1.94893659       0.23231248       1.15111726
H       -2.67648705      -0.31013047      -0.36204044
H       -0.62207221      -1.62678385       0.08542613
H       -0.40447088      -0.65627425      -1.35540562
H        0.60960600       0.01943699       1.43458763
H        2.02603415      -0.92854095      -0.92308973
H        2.70691211      -0.44032632       0.52101377
14
Frame=10 idx=005064 GeodesicLength=0.5739279289719356 rxn_smarts="[C:1]([C:2]([C@@:3]([N:4]([H:13])[H:14])([C:5]#[N:6])[H:12])([H:10])[H:11])([H:7])([H:8])[H:9]>>[C:1]([C:2]([C@@:3]([N:4]([H:13])[H:14])([N+:6]#[C-:5])[H:12])([H:10])[H:11])([H:7])([H:8])[H:9]"
C       -1.80577921       0.17884516       0.06923347
C       -0.54067447      -0.59244032      -0.27160588
C        0.72324740      -0.02195076       0.34507623
N        1.87025271      -0.76911924       0.06135219
C        0.90084140       1.99750686       0.34206300
N        0.92420170       1.72186795      -0.77740347
H       -1.75948341       1.19805521      -0.31412354
H       -1.95271052       0.23152754       1.15051152
H       -2.67765442      -0.31220353      -0.36345009
H       -0.61657375      -1.62238103       0.09104850
H       -0.40760448      -0.65937564      -1.35433870
H        0.60771371       0.01584259       1.43007480
H        2.02621334      -0.92811924      -0.92349698
H        2.70800999      -0.43805555       0.51505896
14
Frame=11 idx=005064 GeodesicLength=0.6312981057062879 rxn_smarts="[C:1]([C:2]([C@@:3]([N:4]([H:13])[H:14])([C:5]#[N:6])[H:12])([H:10])[H:11])([H:7])([H:8])[H:9]>>[C:1]([C:2]([C@@:3]([N:4]([H:13])[H:14])([N+:6]#[C-:5])[H:12])([H:10])[H:11])([H:7])([H:8])[H:9]"
C       -1.80828013       0.17837083       0.06881486
C       -0.54054627      -0.58949872      -0.27022683
C        0.72418016      -0.00597241       0.33901804
N        1.86990318      -0.77302704       0.06193483
C        0.89808711       1.99588964       0.34520661
N        0.93779801       1.71105285      -0.76981493
H       -1.76533833       1.19811421      -0.31411656
H       -1.95652182       0.23046887       1.14996297
H       -2.67875261      -0.31421506      -0.36490609
H       -0.61113206      -1.61795909       0.09633268
H       -0.41059108      -0.66220719      -1.35317457
H        0.60585268       0.01250435       1.42549853
H        2.02634187      -0.92759558      -0.92377863
H        2.70899930      -0.43592567       0.50924907
14
Frame=12 idx=005064 GeodesicLength=0.6887500868419681 rxn_smarts="[C:1]([C:2]([C@@:3]([N:4]([H:13])[H:14])([C:5]#[N:6])[H:12])([H:10])[H:11])([H:7])([H:8])[H:9]>>[C:1]([C:2]([C@@:3]([N:4]([H:13])[H:14])([N+:6]#[C-:5])[H:12])([H:10])[H:11])([H:7])([H:8])[H:9]"
C       -1.81075650       0.17785281       0.06848176
C       -0.54038946      -0.58651980      -0.26886308
C        0.72506282       0.00968412       0.33321874
N        1.86953330      -0.77687628       0.06259807
C        0.89543806       1.99425180       0.34789495
N        0.95132762       1.70036423      -0.76239835
H       -1.77118256       1.19819007      -0.31385936
H       -1.96034592       0.22917208       1.14951579
H       -2.67981350      -0.31620746      -0.36639227
H       -0.60579017      -1.61358034       0.10132123
H       -0.41345578      -0.66479114      -1.35200590
H        0.60400546       0.00941351       1.42083421
H        2.02644419      -0.92702717      -0.92396299
H        2.70992244      -0.43392642       0.50361721
14
Frame=13 idx=005064 GeodesicLength=0.7462434732065079 rxn_smarts="[C:1]([C:2]([C@@:3]([N:4]([H:13])[H:14])([C:5]#[N:6])[H:12])([H:10])[H:11])([H:7])([H:8])[H:9]>>[C:1]([C:2]([C@@:3]([N:4]([H:13])[H:14])([N+:6]#[C-:5])[H:12])([H:10])[H:11])([H:7])([H:8])[H:9]"
C       -1.81321111       0.17728732       0.06823364
C       -0.54020513      -0.58350434      -0.26751578
C        0.72588377       0.02503023       0.32765450
N        1.86914204      -0.78067733       0.06334339
C        0.89290945       1.99260707       0.35012638
N        0.96479378       1.68979968      -0.75515970
H       -1.77702460       1.19827631      -0.31333605
H       -1.96418573       0.22762125       1.14915835
H       -2.68083309      -0.31817213      -0.36791107
H       -0.60052825      -1.60923289       0.10601100
H       -0.41620437      -0.66712929      -1.35082507
H        0.60217609       0.00657513       1.41609917
H        2.02652191      -0.92641643      -0.92404442
H        2.71076526      -0.43206458       0.49816566
14
Frame=14 idx=005064 GeodesicLength=0.8037596698219078 rxn_smarts="[C:1]([C:2]([C@@:3]([N:4]([H:13])[H:14])([C:5]#[N:6])[H:12])([H:10])[H:11])([H:7])([H:8])[H:9]>>[C:1]([C:2]([C@@:3]([N:4]([H:13])[H:14])([N+:6]#[C-:5])[H:12])([H:10])[H:11])([H:7])([H:8])[H:9]"
C       -1.81564659       0.17667284       0.06807024
C       -0.53999655      -0.58045331      -0.26618879
C        0.72664147       0.04008407       0.32231019
N        1.86873192      -0.78443847       0.06417130
C        0.89051077       1.99096278       0.35190125
N        0.97819732       1.67935310      -0.74810507
H       -1.78286696       1.19837280      -0.31253645
H       -1.96804143       0.22580633       1.14888854
H       -2.68181427      -0.32010396      -0.36946536
H       -0.59534033      -1.60491548       0.11040410
H       -0.41884506      -0.66922442      -1.34963777
H        0.60036410       0.00398766       1.41130734
H        2.02658041      -0.92576518      -0.92402243
H        2.71152520      -0.43033875       0.49290291
14
Frame=15 idx=005064 GeodesicLength=0.8612880982851078 rxn_smarts="[C:1]([C:2]([C@@:3]([N:4]([H:13])[H:14])([C:5]#[N:6])[H:12])([H:10])[H:11])([H:7])([H:8])[H:9]>>[C:1]([C:2]([C@@:3]([N:4]([H:13])[H:14])([N+:6]#[C-:5])[H:12])([H:10])[H:11])([H:7])([H:8])[H:9]"
C       -1.81806446       0.17600835       0.06799140
C       -0.53976680      -0.57736765      -0.26488659
C        0.72733632       0.05486484       0.31717107
N        1.86830523      -0.78816793       0.06508209
C        0.88824777       1.98932741       0.35322028
N        0.99153801       1.66901773      -0.74123745
H       -1.78871029       1.19848047      -0.31145156
H       -1.97191123       0.22371894       1.14870544
H       -2.68275989      -0.32199870      -0.37105713
H       -0.59022291      -1.60062854       0.11450357
H       -0.42138579      -0.67107979      -1.34845181
H        0.59856788       0.00164873       1.40646946
H        2.02662545      -0.92507726      -0.92389660
H        2.71220072      -0.42874660       0.48783783
14
Frame=16 idx=005064 GeodesicLength=0.9188237497482368 rxn_smarts="[C:1]([C:2]([C@@:3]([N:4]([H:13])[H:14])([C:5]#[N:6])[H:12])([H:10])[H:11])([H:7])([H:8])[H:9]>>[C:1]([C:2]([C@@:3]([N:4]([H:13])[H:14])([N+:6]#[C-:5])[H:12])([H:10])[H:11])([H:7])([H:8])[H:9]"
C       -1.82046597       0.17529326       0.06799681
C       -0.53951869      -0.57424827      -0.26361349
C        0.72796927       0.06939187       0.31222296
N        1.86786377      -0.79187315       0.06607588
C        0.88612496       1.98770954       0.35408520
N        1.00481529       1.65878589      -0.73455794
H       -1.79455530       1.19860060      -0.31007358
H       -1.97579285       0.22135207       1.14860843
H       -2.68367266      -0.32385225      -0.37268822
H       -0.58517250      -1.59637335       0.11831313
H       -0.42383432      -0.67269897      -1.34727522
H        0.59678570      -0.00044480       1.40159383
H        2.02666250      -0.92435755      -0.92366638
H        2.71279079      -0.42728488       0.48297859
