13
Frame=0 idx=006165 GeodesicLength=0.0 rxn_smarts="[C:1]([C@@:2]1([H:10])[C:3]([H:11])([H:12])[C@:4]1([C:5]#[N:6])[H:13])([H:7])([H:8])[H:9]>>[C:1]([C@@:2]1([H:10])[C-:3]([H:11])[C@:4]1([C+:5]=[N:6][H:12])[H:13])([H:7])([H:8])[H:9]"
C        1.70514974       0.54543665      -0.08433307
C        0.65565230      -0.51643055      -0.27172502
C       -0.45476638      -0.70331095       0.69573447
C       -0.78166439      -0.20316407      -0.74092843
C       -1.80690136       0.59723681      -0.22062015
N       -2.68092379       0.53671493       0.58561102
H        2.11679582       0.86891876      -1.04194944
H        2.52396918       0.15631888       0.52356569
H        1.28972845       1.41800745       0.42279077
H        0.99239142      -1.37897389      -0.84170033
H       -0.35823708       0.14803462       1.36972240
H       -2.01573752      -0.55370354       1.05326294
H       -1.18545637      -0.91508506      -1.44943084
13
Frame=1 idx=006165 GeodesicLength=0.0762254367152635 rxn_smarts="[C:1]([C@@:2]1([H:10])[C:3]([H:11])([H:12])[C@:4]1([C:5]#[N:6])[H:13])([H:7])([H:8])[H:9]>>[C:1]([C@@:2]1([H:10])[C-:3]([H:11])[C@:4]1([C+:5]=[N:6][H:12])[H:13])([H:7])([H:8])[H:9]"
C        1.69549203       0.55073804      -0.08599987
C        0.65718118      -0.52326033      -0.26870386
C       -0.45183589      -0.72351963       0.69621230
C       -0.78096461      -0.21660886      -0.73880324
C       -1.78748078       0.61346819      -0.22925020
N       -2.66983401       0.57047048       0.56927359
H        2.10137182       0.87946841      -1.04429526
H        2.52033537       0.16982659       0.51902338
H        1.27263778       1.41869782       0.42296553
H        0.99999738      -1.38139599      -0.84164627
H       -0.34852716       0.11115311       1.38983304
H       -2.02043405      -0.54653852       1.06255557
H       -1.18793905      -0.92249931      -1.45116471
13
Frame=2 idx=006165 GeodesicLength=0.15257957270396355 rxn_smarts="[C:1]([C@@:2]1([H:10])[C:3]([H:11])([H:12])[C@:4]1([C:5]#[N:6])[H:13])([H:7])([H:8])[H:9]>>[C:1]([C@@:2]1([H:10])[C-:3]([H:11])[C@:4]1([C+:5]=[N:6][H:12])[H:13])([H:7])([H:8])[H:9]"
C        1.68559142       0.55600633      -0.08749005
C        0.65852985      -0.52986987      -0.26582970
C       -0.44884280      -0.74349881       0.69663999
C       -0.78057038      -0.23005887      -0.73670798
C       -1.76795174       0.62905120      -0.23852882
N       -2.65762006       0.60453353       0.55291296
H        2.08553606       0.89022079      -1.04639660
H        2.51638000       0.18312734       0.51448424
H        1.25549062       1.41915904       0.42367247
H        1.00745612      -1.38359019      -0.84163371
H       -0.33899978       0.07425000       1.40925096
H       -2.02462079      -0.53916956       1.07247662
H       -1.19037853      -0.93016093      -1.45285039
13
Frame=3 idx=006165 GeodesicLength=0.22902913104368594 rxn_smarts="[C:1]([C@@:2]1([H:10])[C:3]([H:11])([H:12])[C@:4]1([C:5]#[N:6])[H:13])([H:7])([H:8])[H:9]>>[C:1]([C@@:2]1([H:10])[C-:3]([H:11])[C@:4]1([C+:5]=[N:6][H:12])[H:13])([H:7])([H:8])[H:9]"
C        1.67544499       0.56123966      -0.08880023
C        0.65969603      -0.53627190      -0.26307690
C       -0.44580391      -0.76326899       0.69701634
C       -0.78047677      -0.24350869      -0.73464127
C       -1.74833774       0.64400684      -0.24851212
N       -2.64424782       0.63889849       0.53650900
H        2.06924251       0.90119444      -1.04823900
H        2.51212121       0.19624625       0.50992881
H        1.23828564       1.41936274       0.42490704
H        1.01476797      -1.38555621      -0.84164474
H       -0.32963935       0.03730395       1.42798525
H       -2.02828869      -0.53158612       1.08305721
H       -1.19276406      -0.93806046      -1.45448940
13
Frame=4 idx=006165 GeodesicLength=0.30550576273102414 rxn_smarts="[C:1]([C@@:2]1([H:10])[C:3]([H:11])([H:12])[C@:4]1([C:5]#[N:6])[H:13])([H:7])([H:8])[H:9]>>[C:1]([C@@:2]1([H:10])[C-:3]([H:11])[C@:4]1([C+:5]=[N:6][H:12])[H:13])([H:7])([H:8])[H:9]"
C        1.66507922       0.56641937      -0.08994839
C        0.66067314      -0.54242287      -0.26045782
C       -0.44270021      -0.78278865       0.69735548
C       -0.78067105      -0.25689027      -0.73251532
C       -1.72871273       0.65829876      -0.25917535
N       -2.62984278       0.67346129       0.51998260
H        2.05260092       0.91228067      -1.04982604
H        2.50753194       0.20914973       0.50536963
H        1.22105567       1.41932582       0.42659384
H        1.02189718      -1.38721153      -0.84171938
H       -0.32040888       0.00035137       1.44607344
H       -2.03144270      -0.52384723       1.09427507
H       -1.19505974      -0.94612647      -1.45600774
13
Frame=5 idx=006165 GeodesicLength=0.3821636647201589 rxn_smarts="[C:1]([C@@:2]1([H:10])[C:3]([H:11])([H:12])[C@:4]1([C:5]#[N:6])[H:13])([H:7])([H:8])[H:9]>>[C:1]([C@@:2]1([H:10])[C-:3]([H:11])[C@:4]1([C+:5]=[N:6][H:12])[H:13])([H:7])([H:8])[H:9]"
C        1.65449324       0.57156650      -0.09091504
C        0.66145906      -0.54836645      -0.25795919
C       -0.43953313      -0.80210768       0.69766777
C       -0.78117207      -0.27021474      -0.73038866
C       -1.70910933       0.67198159      -0.27060986
N       -2.61436587       0.70827203       0.50334552
H        2.03554819       0.92353126      -1.05116718
H        2.50265366       0.22186592       0.50084918
H        1.20379689       1.41909149       0.42876474
H        1.02884142      -1.38863770      -0.84186270
H       -0.31126992      -0.03663398       1.46355982
H       -2.03405727      -0.51595093       1.10620264
H       -1.19728487      -0.95439732      -1.45748705
13
Frame=6 idx=006165 GeodesicLength=0.45900371967933995 rxn_smarts="[C:1]([C@@:2]1([H:10])[C:3]([H:11])([H:12])[C@:4]1([C:5]#[N:6])[H:13])([H:7])([H:8])[H:9]>>[C:1]([C@@:2]1([H:10])[C-:3]([H:11])[C@:4]1([C+:5]=[N:6][H:12])[H:13])([H:7])([H:8])[H:9]"
C        1.64367285       0.57667885      -0.09170325
C        0.66205439      -0.55410695      -0.25556933
C       -0.43631003      -0.82124976       0.69795230
C       -0.78196303      -0.28348650      -0.72822620
C       -1.68951769       0.68506389      -0.28285689
N       -2.59780843       0.74336813       0.48653080
H        2.01803927       0.93496252      -1.05225468
H        2.49748575       0.23441464       0.49633233
H        1.18648796       1.41863163       0.43142879
H        1.03560538      -1.38980429      -0.84207822
H       -0.30218687      -0.07372015       1.48047894
H       -2.03613510      -0.50787492       1.11884929
H       -1.19942446      -0.96287709      -1.45888387
13
Frame=7 idx=006165 GeodesicLength=0.5359919802503075 rxn_smarts="[C:1]([C@@:2]1([H:10])[C:3]([H:11])([H:12])[C@:4]1([C:5]#[N:6])[H:13])([H:7])([H:8])[H:9]>>[C:1]([C@@:2]1([H:10])[C-:3]([H:11])[C@:4]1([C+:5]=[N:6][H:12])[H:13])([H:7])([H:8])[H:9]"
C        1.63261092       0.58176413      -0.09230250
C        0.66244851      -0.55965777      -0.25328019
C       -0.43303230      -0.84024668       0.69820993
C       -0.78305699      -0.29669360      -0.72598599
C       -1.66997387       0.69753032      -0.29595566
N       -2.58011864       0.77876907       0.46942264
H        2.00002975       0.94660050      -1.05307815
H        2.49203424       0.24680809       0.49181562
H        1.16912567       1.41795175       0.43460399
H        1.04217527      -1.39070473      -0.84239073
H       -0.29312994      -0.11097424       1.49687273
H       -2.03761620      -0.49957872       1.13223388
H       -1.20149643      -0.97156812      -1.46016556
13
Frame=8 idx=006165 GeodesicLength=0.6131507074885683 rxn_smarts="[C:1]([C@@:2]1([H:10])[C:3]([H:11])([H:12])[C@:4]1([C:5]#[N:6])[H:13])([H:7])([H:8])[H:9]>>[C:1]([C@@:2]1([H:10])[C-:3]([H:11])[C@:4]1([C+:5]=[N:6][H:12])[H:13])([H:7])([H:8])[H:9]"
C        1.62128190       0.58682056      -0.09271673
C        0.66265207      -0.56503610      -0.25106668
C       -0.42972584      -0.85914050       0.69843053
C       -0.78443458      -0.30985653      -0.72371204
C       -1.65046652       0.70945377      -0.30988560
N       -2.56126648       0.81449123       0.45197381
H        1.98147232       0.95846075      -1.05362460
H        2.48629453       0.25909304       0.48728857
H        1.15164293       1.41700701       0.43826667
H        1.04857062      -1.39135222      -0.84277319
H       -0.28402421      -0.14844431       1.51278818
H       -2.03851531      -0.49103047       1.14639668
H       -1.20348145      -0.98046621      -1.46136560
13
Frame=9 idx=006165 GeodesicLength=0.6905376769499163 rxn_smarts="[C:1]([C@@:2]1([H:10])[C:3]([H:11])([H:12])[C@:4]1([C:5]#[N:6])[H:13])([H:7])([H:8])[H:9]>>[C:1]([C@@:2]1([H:10])[C-:3]([H:11])[C@:4]1([C+:5]=[N:6][H:12])[H:13])([H:7])([H:8])[H:9]"
C        1.60970569       0.59185402      -0.09292793
C        0.66264303      -0.57021892      -0.24897299
C       -0.42634824      -0.87790115       0.69862361
C       -0.78612315      -0.32292257      -0.72132361
C       -1.63103310       0.72075582      -0.32478310
N       -2.54130292       0.85055316       0.43416753
H        1.96242154       0.97050332      -1.05388525
H        2.48024837       0.27122429       0.48280700
H        1.13408251       1.41587129       0.44243061
H        1.05475035      -1.39170122      -0.84330606
H       -0.27488601      -0.18615402       1.52820200
H       -2.03876981      -0.48227501       1.16137960
H       -1.20538825      -0.98958903      -1.46241141
13
Frame=10 idx=006165 GeodesicLength=0.7681859144347883 rxn_smarts="[C:1]([C@@:2]1([H:10])[C:3]([H:11])([H:12])[C@:4]1([C:5]#[N:6])[H:13])([H:7])([H:8])[H:9]>>[C:1]([C@@:2]1([H:10])[C-:3]([H:11])[C@:4]1([C+:5]=[N:6][H:12])[H:13])([H:7])([H:8])[H:9]"
C        1.59787849       0.59687059      -0.09292627
C        0.66240757      -0.57521826      -0.24696471
C       -0.42292389      -0.89657312       0.69878781
C       -0.78813682      -0.33589833      -0.71882620
C       -1.61173142       0.73149511      -0.34067547
N       -2.52015643       0.88693623       0.41588114
H        1.94285240       0.98274874      -1.05382346
H        2.47390232       0.28325718       0.47838324
H        1.11643131       1.41450726       0.44706764
H        1.06069050      -1.39175249      -0.84397711
H       -0.26566241      -0.22416433       1.54313704
H       -2.03830602      -0.47329543       1.17726508
H       -1.20724560      -0.99891314      -1.46332872
13
Frame=11 idx=006165 GeodesicLength=0.846050261443435 rxn_smarts="[C:1]([C@@:2]1([H:10])[C:3]([H:11])([H:12])[C@:4]1([C:5]#[N:6])[H:13])([H:7])([H:8])[H:9]>>[C:1]([C@@:2]1([H:10])[C-:3]([H:11])[C@:4]1([C+:5]=[N:6][H:12])[H:13])([H:7])([H:8])[H:9]"
C        1.58571458       0.60186606      -0.09271644
C        0.66196707      -0.58005849      -0.24502519
C       -0.41947871      -0.91520884       0.69889591
C       -0.79045022      -0.34882005      -0.71626386
C       -1.59247124       0.74170172      -0.35748348
N       -2.49769643       0.92375896       0.39705417
H        1.92263683       0.99522692      -1.05343274
H        2.46720396       0.29523182       0.47397332
H        1.09851703       1.41285742       0.45218224
H        1.06645452      -1.39151839      -0.84475348
H       -0.25625946      -0.26257660       1.55765602
H       -2.03714507      -0.46400339       1.19403196
H       -1.20899285      -1.00845713      -1.46411844
13
Frame=12 idx=006165 GeodesicLength=0.9242044997542389 rxn_smarts="[C:1]([C@@:2]1([H:10])[C:3]([H:11])([H:12])[C@:4]1([C:5]#[N:6])[H:13])([H:7])([H:8])[H:9]>>[C:1]([C@@:2]1([H:10])[C-:3]([H:11])[C@:4]1([C+:5]=[N:6][H:12])[H:13])([H:7])([H:8])[H:9]"
C        1.57326953       0.60685512      -0.09227312
C        0.66128129      -0.58472098      -0.24318964
C       -0.41598285      -0.93378546       0.69897265
C       -0.79310896      -0.36162574      -0.71356045
C       -1.57332741       0.75131379      -0.37534454
N       -2.47401303       0.96096306       0.37759255
H        1.90187500       1.00790244      -1.05270180
H        2.46017263       0.30712476       0.46967750
H        1.08043508       1.41100371       0.45776524
H        1.07195350      -1.39095710      -0.84572441
H       -0.24668420      -0.30142129       1.57173396
H       -2.03518786      -0.45444844       1.21178853
H       -1.21068271      -1.01820388      -1.46473647
13
Frame=13 idx=006165 GeodesicLength=1.0026411167395692 rxn_smarts="[C:1]([C@@:2]1([H:10])[C:3]([H:11])([H:12])[C@:4]1([C:5]#[N:6])[H:13])([H:7])([H:8])[H:9]>>[C:1]([C@@:2]1([H:10])[C-:3]([H:11])[C@:4]1([C+:5]=[N:6][H:12])[H:13])([H:7])([H:8])[H:9]"
C        1.56053697       0.61183329      -0.09158250
C        0.66033797      -0.58919209      -0.24144985
C       -0.41242961      -0.95230106       0.69900601
C       -0.79612599      -0.37426789      -0.71068010
C       -1.55435132       0.76037666      -0.39425941
N       -2.44909870       0.99849677       0.35738142
H        1.88060929       1.02072230      -1.05158199
H        2.45276602       0.31894555       0.46553243
H        1.06216050       1.40894718       0.46375994
H        1.07715307      -1.39005641      -0.84690197
H       -0.23689068      -0.34071020       1.58534787
H       -2.03233372      -0.44467992       1.23058905
H       -1.21233379      -1.02811418      -1.46516091
13
Frame=14 idx=006165 GeodesicLength=1.081370753952822 rxn_smarts="[C:1]([C@@:2]1([H:10])[C:3]([H:11])([H:12])[C@:4]1([C:5]#[N:6])[H:13])([H:7])([H:8])[H:9]>>[C:1]([C@@:2]1([H:10])[C-:3]([H:11])[C@:4]1([C+:5]=[N:6][H:12])[H:13])([H:7])([H:8])[H:9]"
C        1.54751440       0.61679940      -0.09064568
C        0.65913154      -0.59345998      -0.23981786
C       -0.40881803      -0.97075650       0.69900334
C       -0.79951473      -0.38670488      -0.70761922
C       -1.53552545       0.76889361      -0.41421403
N       -2.42298119       1.03632900       0.33633505
H        1.85890361       1.03363750      -1.05008480
H        2.44495763       0.33069406       0.46160222
H        1.04364142       1.40670564       0.47010673
H        1.08203573      -1.38878597      -0.84831453
H       -0.22682917      -0.38048539       1.59851307
H       -2.02857980      -0.43472345       1.25051165
H       -1.21393598      -1.03814304      -1.46537592
13
Frame=15 idx=006165 GeodesicLength=1.1603907037052479 rxn_smarts="[C:1]([C@@:2]1([H:10])[C:3]([H:11])([H:12])[C@:4]1([C:5]#[N:6])[H:13])([H:7])([H:8])[H:9]>>[C:1]([C@@:2]1([H:10])[C-:3]([H:11])[C@:4]1([C+:5]=[N:6][H:12])[H:13])([H:7])([H:8])[H:9]"
C        1.53420393       0.62175706      -0.08945011
C        0.65764629      -0.59751621      -0.23829443
C       -0.40514616      -0.98915559       0.69896003
C       -0.80329684      -0.39889574      -0.70434446
C       -1.51687418       0.77688287      -0.43520267
N       -2.39566935       1.07443207       0.31432418
H        1.83681368       1.04661314      -1.04818548
H        2.43672260       0.34237755       0.45794374
H        1.02485489       1.40430016       0.47675507
H        1.08656435      -1.38712960      -0.84998727
H       -0.21645923      -0.42078401       1.61121415
H       -2.02384455      -0.42462553       1.27161937
H       -1.21551542      -1.04825616      -1.46535211
13
Frame=16 idx=006165 GeodesicLength=1.239707112892423 rxn_smarts="[C:1]([C@@:2]1([H:10])[C:3]([H:11])([H:12])[C@:4]1([C:5]#[N:6])[H:13])([H:7])([H:8])[H:9]>>[C:1]([C@@:2]1([H:10])[C-:3]([H:11])[C@:4]1([C+:5]=[N:6][H:12])[H:13])([H:7])([H:8])[H:9]"
C        1.52060636       0.62670994      -0.08798324
C        0.65586835      -0.60135397      -0.23688069
C       -0.40141164      -1.00750150       0.69887423
C       -0.80749465      -0.41079860      -0.70082515
C       -1.49840296       0.78436018      -0.45721912
N       -2.36717532       1.11278633       0.29121354
H        1.81438913       1.05961911      -1.04586611
H        2.42804192       0.35400066       0.45461272
H        1.00577124       1.40175246       0.48366125
H        1.09070408      -1.38507137      -0.85194631
H       -0.20573897      -0.46164584       1.62343536
H       -2.01806033      -0.41443843       1.29397969
H       -1.21709720      -1.05841897      -1.46505617
