8
Frame=0 idx=001240 GeodesicLength=0.0 rxn_smarts="[n:1]1([H:6])[c:2]([H:7])[n:3][n:4][c:5]1[H:8]>>[N-:3]([N+:4]#[C:5][H:8])[H:7].[N:1](=[C:2])[H:6]"
N        0.23572049       1.07503072      -0.16292662
C        1.37448634       0.70797025      -0.33777334
N        0.73337238      -1.60790114       0.22971412
N       -0.37823826      -1.19945850       0.34424640
C       -1.12331893      -0.20859512       0.42389963
H       -0.21190397       1.97524288      -0.17214456
H        1.39039962      -0.66087991      -0.15968903
H       -2.02051764      -0.08140917      -0.16532662
8
Frame=1 idx=001240 GeodesicLength=0.07435246982982528 rxn_smarts="[n:1]1([H:6])[c:2]([H:7])[n:3][n:4][c:5]1[H:8]>>[N-:3]([N+:4]#[C:5][H:8])[H:7].[N:1](=[C:2])[H:6]"
N        0.23538080       1.07638798      -0.19066455
C        1.38585674       0.71020658      -0.29905487
N        0.74496752      -1.58394714       0.28931193
N       -0.38626532      -1.19912867       0.34436455
C       -1.12345841      -0.20020440       0.40763384
H       -0.22053671       1.97121209      -0.14370645
H        1.39479992      -0.68956140      -0.23928511
H       -2.03074456      -0.08496504      -0.16859934
8
Frame=2 idx=001240 GeodesicLength=0.14926992621353274 rxn_smarts="[n:1]1([H:6])[c:2]([H:7])[n:3][n:4][c:5]1[H:8]>>[N-:3]([N+:4]#[C:5][H:8])[H:7].[N:1](=[C:2])[H:6]"
N        0.23623483       1.07879031      -0.21539711
C        1.39188398       0.70834247      -0.27738324
N        0.75342312      -1.55860941       0.33198514
N       -0.39346292      -1.19799285       0.34787588
C       -1.12295476      -0.19176849       0.39127097
H       -0.22792412       1.96447680      -0.11270554
H        1.40204269      -0.71444283      -0.29315167
H       -2.03924282      -0.08879601      -0.17249441
8
Frame=3 idx=001240 GeodesicLength=0.225494784718563 rxn_smarts="[n:1]1([H:6])[c:2]([H:7])[n:3][n:4][c:5]1[H:8]>>[N-:3]([N+:4]#[C:5][H:8])[H:7].[N:1](=[C:2])[H:6]"
N        0.23812024       1.08286544      -0.23371487
C        1.39615843       0.70551740      -0.26392961
N        0.76028193      -1.53401051       0.36538293
N       -0.40051636      -1.19689404       0.35305639
C       -1.12251631      -0.18378883       0.37543166
H       -0.23602757       1.95662151      -0.08466003
H        1.41164153      -0.73841814      -0.33519855
H       -2.04714188      -0.09189284      -0.17636792
8
Frame=4 idx=001240 GeodesicLength=0.30198985030849973 rxn_smarts="[n:1]1([H:6])[c:2]([H:7])[n:3][n:4][c:5]1[H:8]>>[N-:3]([N+:4]#[C:5][H:8])[H:7].[N:1](=[C:2])[H:6]"
N        0.24034830       1.08806248      -0.24830521
C        1.39936893       0.70229194      -0.25567012
N        0.76617478      -1.50942260       0.39362039
N       -0.40746276      -1.19549968       0.35944000
C       -1.12208333      -0.17613863       0.35947243
H       -0.24429098       1.94793834      -0.05765969
H        1.42257923      -0.76245153      -0.37052243
H       -2.05463416      -0.09478033      -0.18037537
8
Frame=5 idx=001240 GeodesicLength=0.378653940538542 rxn_smarts="[n:1]1([H:6])[c:2]([H:7])[n:3][n:4][c:5]1[H:8]>>[N-:3]([N+:4]#[C:5][H:8])[H:7].[N:1](=[C:2])[H:6]"
N        0.24267713       1.09423983      -0.26019602
C        1.40189132       0.69896676      -0.25087307
N        0.77141137      -1.48481892       0.41801084
N       -0.41430314      -1.19362958       0.36743907
C       -1.12168314      -0.16874777       0.34321236
H       -0.25252305       1.93871601      -0.03123868
H        1.43428967      -0.78693999      -0.40157602
H       -2.06176016      -0.09778634      -0.18477848
8
Frame=6 idx=001240 GeodesicLength=0.45544066361318736 rxn_smarts="[n:1]1([H:6])[c:2]([H:7])[n:3][n:4][c:5]1[H:8]>>[N-:3]([N+:4]#[C:5][H:8])[H:7].[N:1](=[C:2])[H:6]"
N        0.24508020       1.10120978      -0.27000082
C        1.40405754       0.69580214      -0.24773291
N        0.77608741      -1.46050281       0.43885513
N       -0.42112788      -1.19138838       0.37634858
C       -1.12118333      -0.16164334       0.32674396
H       -0.26099375       1.92905035      -0.00625812
H        1.44689657      -0.81190148      -0.42925694
H       -2.06881676      -0.10062626      -0.18869888
8
Frame=7 idx=001240 GeodesicLength=0.5323012740036441 rxn_smarts="[n:1]1([H:6])[c:2]([H:7])[n:3][n:4][c:5]1[H:8]>>[N-:3]([N+:4]#[C:5][H:8])[H:7].[N:1](=[C:2])[H:6]"
N        0.24750083       1.10885106      -0.27812795
C        1.40596819       0.69291502      -0.24545763
N        0.78025766      -1.43663930       0.45649693
N       -0.42799175      -1.18882128       0.38579753
C       -1.12053069      -0.15484373       0.31004883
H       -0.26981121       1.91907664       0.01707289
H        1.46055068      -0.83738366      -0.45409965
H       -2.07594371      -0.10315474      -0.19173094
8
Frame=8 idx=001240 GeodesicLength=0.609261682176951 rxn_smarts="[n:1]1([H:6])[c:2]([H:7])[n:3][n:4][c:5]1[H:8]>>[N-:3]([N+:4]#[C:5][H:8])[H:7].[N:1](=[C:2])[H:6]"
N        0.24981373       1.11736984      -0.28459491
C        1.40745369       0.69014843      -0.24533428
N        0.78422073      -1.41264559       0.47209732
N       -0.43476587      -1.18545948       0.39722190
C       -1.11987633      -0.14832572       0.29249738
H       -0.27843632       1.90888961       0.04084735
H        1.47435820      -0.86385542      -0.47719532
H       -2.08276781      -0.10612168      -0.19553944
8
Frame=9 idx=001240 GeodesicLength=0.6863324367762251 rxn_smarts="[n:1]1([H:6])[c:2]([H:7])[n:3][n:4][c:5]1[H:8]>>[N-:3]([N+:4]#[C:5][H:8])[H:7].[N:1](=[C:2])[H:6]"
N        0.25204195       1.12667462      -0.28963221
C        1.40864549       0.68763995      -0.24656509
N        0.78793160      -1.38878567       0.48551169
N       -0.44153296      -1.18135221       0.41008515
C       -1.11910931      -0.14214999       0.27414297
H       -0.28712634       1.89846392       0.06443128
H        1.48863978      -0.89126315      -0.49855682
H       -2.08949021      -0.10922748      -0.19941696
8
Frame=10 idx=001240 GeodesicLength=0.7634350988854965 rxn_smarts="[n:1]1([H:6])[c:2]([H:7])[n:3][n:4][c:5]1[H:8]>>[N-:3]([N+:4]#[C:5][H:8])[H:7].[N:1](=[C:2])[H:6]"
N        0.25417237       1.13672000      -0.29334974
C        1.40955135       0.68544707      -0.24877885
N        0.79137850      -1.36521232       0.49671297
N       -0.44830878      -1.17643708       0.42425261
C       -1.11815080      -0.13636481       0.25495148
H       -0.29601903       1.88780728       0.08762191
H        1.50350715      -0.91962739      -0.51830124
H       -2.09613076      -0.11233276      -0.20310914
8
Frame=11 idx=001240 GeodesicLength=0.8406123458752557 rxn_smarts="[n:1]1([H:6])[c:2]([H:7])[n:3][n:4][c:5]1[H:8]>>[N-:3]([N+:4]#[C:5][H:8])[H:7].[N:1](=[C:2])[H:6]"
N        0.25616913       1.14756739      -0.29583014
C        1.41012874       0.68357665      -0.25225197
N        0.79461162      -1.34179228       0.50599363
N       -0.45508033      -1.17049662       0.43992618
C       -1.11697650      -0.13103984       0.23461082
H       -0.30503045       1.87683049       0.11096108
H        1.51885876      -0.94911264      -0.53659562
H       -2.10268097      -0.11553316      -0.20681399
8
Frame=12 idx=001240 GeodesicLength=0.917855801497569 rxn_smarts="[n:1]1([H:6])[c:2]([H:7])[n:3][n:4][c:5]1[H:8]>>[N-:3]([N+:4]#[C:5][H:8])[H:7].[N:1](=[C:2])[H:6]"
N        0.25803783       1.15921696      -0.29713740
C        1.41037424       0.68207646      -0.25686817
N        0.79761209      -1.31855588       0.51338672
N       -0.46184894      -1.16338910       0.45698131
C       -1.11550009      -0.12627520       0.21286819
H       -0.31424684       1.86542782       0.13445744
H        1.53479652      -0.97978855      -0.55343272
H       -2.10922480      -0.11871250      -0.21025537
8
Frame=13 idx=001240 GeodesicLength=0.9951506636061911 rxn_smarts="[n:1]1([H:6])[c:2]([H:7])[n:3][n:4][c:5]1[H:8]>>[N-:3]([N+:4]#[C:5][H:8])[H:7].[N:1](=[C:2])[H:6]"
N        0.25980244       1.17155967      -0.29738548
C        1.41035043       0.68104119      -0.26205704
N        0.80030337      -1.29573903       0.51871406
N       -0.46865520      -1.15517460       0.47479249
C       -1.11361238      -0.12220369       0.18962006
H       -0.32396647       1.85352791       0.15749987
H        1.55174440      -1.01159227      -0.56862192
H       -2.11596660      -0.12141918      -0.21256205
8
Frame=14 idx=001240 GeodesicLength=1.0724857709924391 rxn_smarts="[n:1]1([H:6])[c:2]([H:7])[n:3][n:4][c:5]1[H:8]>>[N-:3]([N+:4]#[C:5][H:8])[H:7].[N:1](=[C:2])[H:6]"
N        0.26148389       1.18449242      -0.29666429
C        1.41012118       0.68055390      -0.26735303
N        0.80262998      -1.27353057       0.52185350
N       -0.47552094      -1.14588697       0.49284807
C       -1.11121806      -0.11899761       0.16457429
H       -0.33447908       1.84103283       0.17961151
H        1.57007811      -1.04448017      -0.58199819
H       -2.12309508      -0.12318383      -0.21287185
8
Frame=15 idx=001240 GeodesicLength=1.1498465281787376 rxn_smarts="[n:1]1([H:6])[c:2]([H:7])[n:3][n:4][c:5]1[H:8]>>[N-:3]([N+:4]#[C:5][H:8])[H:7].[N:1](=[C:2])[H:6]"
N        0.26302315       1.19784396      -0.29517304
C        1.40972322       0.68071215      -0.27231468
N        0.80452973      -1.25208477       0.52274696
N       -0.48250052      -1.13579791       0.51010990
C       -1.10825897      -0.11689301       0.13737776
H       -0.34612615       1.82780601       0.20021427
H        1.59048196      -1.07839493      -0.59310886
H       -2.13087243      -0.12319149      -0.20985232
8
Frame=16 idx=001240 GeodesicLength=1.2272158921996692 rxn_smarts="[n:1]1([H:6])[c:2]([H:7])[n:3][n:4][c:5]1[H:8]>>[N-:3]([N+:4]#[C:5][H:8])[H:7].[N:1](=[C:2])[H:6]"
N        0.26431257       1.21144146      -0.29304038
C        1.40916447       0.68159796      -0.27657645
N        0.80597445      -1.23155302       0.52130961
N       -0.48963509      -1.12512486       0.52587181
C       -1.10472081      -0.11616486       0.10761767
H       -0.35928891       1.81368080       0.21883899
H        1.61346615      -1.11328792      -0.60163183
H       -2.13927284      -0.12058957      -0.20238942
