13
Frame=0 idx=010710 GeodesicLength=0.0 rxn_smarts="[C:1]([O:2][C@@:3]1([H:11])[C:4]([H:12])([H:13])[O:5][C:6]1=[O:7])([H:8])([H:9])[H:10]>>[C:1]1([H:9])([H:10])[O:2][C@@:3]2([H:11])[C:4]([H:12])([H:13])[O:5][C@@:6]12[O:7][H:8]"
C        1.47091571       0.37685404      -0.53380601
O        1.18216860       0.01649898       0.85624599
C       -0.10141090      -0.42239934       0.82358855
C       -1.31099801       0.55733571       0.79923503
O       -1.65799349       0.04820203      -0.54499301
C       -0.53436267      -0.62139881      -0.62344131
O       -0.22014923      -1.37408825      -1.60857069
H        0.76839251      -0.90383996      -1.49721085
H        2.52705530       0.15456798      -0.71576593
H        1.33669519       1.45695796      -0.66526291
H       -0.28414494      -1.27402527       1.48887484
H       -1.04633618       1.60954417       0.73078761
H       -2.12983191       0.37579078       1.49031868
13
Frame=1 idx=010710 GeodesicLength=0.08917253415870054 rxn_smarts="[C:1]([O:2][C@@:3]1([H:11])[C:4]([H:12])([H:13])[O:5][C:6]1=[O:7])([H:8])([H:9])[H:10]>>[C:1]1([H:9])([H:10])[O:2][C@@:3]2([H:11])[C:4]([H:12])([H:13])[O:5][C@@:6]12[O:7][H:8]"
C        1.47537377       0.36585795      -0.53732551
O        1.17350304       0.04698461       0.85718879
C       -0.10487996      -0.41405146       0.81987066
C       -1.31968238       0.55542195       0.80870513
O       -1.65806008       0.07458217      -0.54618161
C       -0.53141970      -0.59737148      -0.63216843
O       -0.23376156      -1.35874959      -1.61521180
H        0.80049373      -0.94659744      -1.48266162
H        2.53502901       0.14753560      -0.70051589
H        1.33484106       1.43970789      -0.70733847
H       -0.26985015      -1.27702404       1.47460939
H       -1.06276184       1.61112277       0.76710214
H       -2.13882494       0.35258106       1.49392722
13
Frame=2 idx=010710 GeodesicLength=0.17821230769842453 rxn_smarts="[C:1]([O:2][C@@:3]1([H:11])[C:4]([H:12])([H:13])[O:5][C:6]1=[O:7])([H:8])([H:9])[H:10]>>[C:1]1([H:9])([H:10])[O:2][C@@:3]2([H:11])[C:4]([H:12])([H:13])[O:5][C@@:6]12[O:7][H:8]"
C        1.47976934       0.35450421      -0.54069912
O        1.16453381       0.07818907       0.85714224
C       -0.10819220      -0.40525365       0.81615510
C       -1.32858639       0.55315359       0.81794343
O       -1.65854968       0.10025644      -0.54670314
C       -0.52862516      -0.57349678      -0.64056045
O       -0.24570595      -1.34139830      -1.62239963
H        0.83024143      -0.98838126      -1.46700100
H        2.54246287       0.13972812      -0.68531877
H        1.33482800       1.42092257      -0.74899907
H       -0.25460069      -1.27887592       1.46054596
H       -1.07999573       1.61169411       0.80280607
H       -2.14757964       0.32895780       1.49708839
13
Frame=3 idx=010710 GeodesicLength=0.267215751521619 rxn_smarts="[C:1]([O:2][C@@:3]1([H:11])[C:4]([H:12])([H:13])[O:5][C:6]1=[O:7])([H:8])([H:9])[H:10]>>[C:1]1([H:9])([H:10])[O:2][C@@:3]2([H:11])[C:4]([H:12])([H:13])[O:5][C@@:6]12[O:7][H:8]"
C        1.48413063       0.34285929      -0.54385713
O        1.15532188       0.11005422       0.85610858
C       -0.11134634      -0.39603623       0.81248762
C       -1.33769262       0.55054154       0.82694239
O       -1.65949900       0.12527434      -0.54665508
C       -0.52601841      -0.54974889      -0.64864062
O       -0.25617454      -1.32261433      -1.62984897
H        0.85768287      -1.02884604      -1.45078123
H        2.54941597       0.13115919      -0.67009358
H        1.33667669       1.40074257      -0.79016850
H       -0.23844968      -1.27961513       1.44678238
H       -1.09794770       1.61131802       0.83793452
H       -2.15609974       0.30491145       1.49978959
13
Frame=4 idx=010710 GeodesicLength=0.35612667851855717 rxn_smarts="[C:1]([O:2][C@@:3]1([H:11])[C:4]([H:12])([H:13])[O:5][C:6]1=[O:7])([H:8])([H:9])[H:10]>>[C:1]1([H:9])([H:10])[O:2][C@@:3]2([H:11])[C:4]([H:12])([H:13])[O:5][C@@:6]12[O:7][H:8]"
C        1.48842254       0.33096718      -0.54674932
O        1.14587680       0.14250526       0.85402445
C       -0.11433999      -0.38641987       0.80885232
C       -1.34696021       0.54761031       0.83570064
O       -1.66087665       0.14973723      -0.54608132
C       -0.52358817      -0.52605648      -0.65643945
O       -0.26536288      -1.30284726      -1.63730177
H        0.88301136      -1.06786026      -1.43437159
H        2.55587169       0.12187414      -0.65477457
H        1.34027246       1.37924373      -0.83072992
H       -0.22144073      -1.27924051       1.43330711
H       -1.11653964       1.61002561       0.87256121
H       -2.16434659       0.28046093       1.50200220
13
Frame=5 idx=010710 GeodesicLength=0.4450867365804862 rxn_smarts="[C:1]([O:2][C@@:3]1([H:11])[C:4]([H:12])([H:13])[O:5][C:6]1=[O:7])([H:8])([H:9])[H:10]>>[C:1]1([H:9])([H:10])[O:2][C@@:3]2([H:11])[C:4]([H:12])([H:13])[O:5][C@@:6]12[O:7][H:8]"
C        1.49266979       0.31886571      -0.54937897
O        1.13624310       0.17546504       0.85086629
C       -0.11718007      -0.37642859       0.80527259
C       -1.35640274       0.54438040       0.84425552
O       -1.66271997       0.17376512      -0.54504824
C       -0.52134367      -0.50232898      -0.66402538
O       -0.27351099      -1.28238897      -1.64466365
H        0.90653642      -1.10544406      -1.41801903
H        2.56192577       0.11195318      -0.63933064
H        1.34551860       1.35647066      -0.87067313
H       -0.20362975      -1.27775479       1.42018993
H       -1.13573753       1.60782176       0.90677609
H       -2.17236896       0.25562351       1.50377861
13
Frame=6 idx=010710 GeodesicLength=0.5340462853331008 rxn_smarts="[C:1]([O:2][C@@:3]1([H:11])[C:4]([H:12])([H:13])[O:5][C:6]1=[O:7])([H:8])([H:9])[H:10]>>[C:1]1([H:9])([H:10])[O:2][C@@:3]2([H:11])[C:4]([H:12])([H:13])[O:5][C@@:6]12[O:7][H:8]"
C        1.49671813       0.30657101      -0.55167822
O        1.12630738       0.20902078       0.84651914
C       -0.11985379      -0.36600332       0.80162636
C       -1.36584162       0.54086053       0.85257102
O       -1.66474766       0.19754317      -0.54358453
C       -0.51922986      -0.47849259      -0.67141972
O       -0.28093546      -1.26149213      -1.65176107
H        0.92845286      -1.14180808      -1.40171277
H        2.56735399       0.10150704      -0.62356902
H        1.35209056       1.33236815      -0.90987828
H       -0.18501985      -1.27505375       1.40716879
H       -1.15537580       1.60468987       0.94082607
H       -2.17991887       0.23028933       1.50489223
13
Frame=7 idx=010710 GeodesicLength=0.622555597159925 rxn_smarts="[C:1]([O:2][C@@:3]1([H:11])[C:4]([H:12])([H:13])[O:5][C:6]1=[O:7])([H:8])([H:9])[H:10]>>[C:1]1([H:9])([H:10])[O:2][C@@:3]2([H:11])[C:4]([H:12])([H:13])[O:5][C@@:6]12[O:7][H:8]"
C        1.50047809       0.29422220      -0.55358765
O        1.11616490       0.24283108       0.84098578
C       -0.12238664      -0.35529769       0.79793241
C       -1.37519297       0.53709189       0.86060969
O       -1.66711368       0.22085590      -0.54166766
C       -0.51727460      -0.45460138      -0.67867075
O       -0.28770519      -1.24039048      -1.65858250
H        0.94897649      -1.17686210      -1.38561748
H        2.57209378       0.09079983      -0.60760139
H        1.35988009       1.30715328      -0.94804053
H       -0.16585881      -1.27124852       1.39435379
H       -1.17513037       1.60064038       0.97441668
H       -2.18693109       0.20480562       1.50546962
13
Frame=8 idx=010710 GeodesicLength=0.7111626399511716 rxn_smarts="[C:1]([O:2][C@@:3]1([H:11])[C:4]([H:12])([H:13])[O:5][C:6]1=[O:7])([H:8])([H:9])[H:10]>>[C:1]1([H:9])([H:10])[O:2][C@@:3]2([H:11])[C:4]([H:12])([H:13])[O:5][C@@:6]12[O:7][H:8]"
C        1.50403178       0.28182360      -0.55519648
O        1.10588247       0.27682006       0.83425990
C       -0.12478815      -0.34434748       0.79423167
C       -1.38452624       0.53311334       0.86842609
O       -1.66984019       0.24396143      -0.53936537
C       -0.51549999      -0.43057639      -0.68582321
O       -0.29406685      -1.21910444      -1.66517106
H        0.96852300      -1.21086801      -1.36969045
H        2.57635570       0.07991894      -0.59143695
H        1.36870721       1.28084842      -0.98533203
H       -0.14618112      -1.26641740       1.38182830
H       -1.19505400       1.59570866       1.00772188
H       -2.19354363       0.17911927       1.50554771
13
Frame=9 idx=010710 GeodesicLength=0.7997297881658709 rxn_smarts="[C:1]([O:2][C@@:3]1([H:11])[C:4]([H:12])([H:13])[O:5][C:6]1=[O:7])([H:8])([H:9])[H:10]>>[C:1]1([H:9])([H:10])[O:2][C@@:3]2([H:11])[C:4]([H:12])([H:13])[O:5][C@@:6]12[O:7][H:8]"
C        1.50725868       0.26943548      -0.55647238
O        1.09544460       0.31083635       0.82631875
C       -0.12707340      -0.33321410       0.79047593
C       -1.39371261       0.52896362       0.87598763
O       -1.67284553       0.26684493      -0.53666727
C       -0.51389703      -0.40644445      -0.69289393
O       -0.30014524      -1.19771027      -1.67152978
H        0.98730670      -1.24397973      -1.35384934
H        2.58000497       0.06907101      -0.57507647
H        1.37829132       1.25352801      -1.02157520
H       -0.12612063      -1.26060660       1.36949942
H       -1.21489987       1.58990969       1.04069983
H       -2.19961198       0.15336606       1.50508282
13
Frame=10 idx=010710 GeodesicLength=0.8882087817136622 rxn_smarts="[C:1]([O:2][C@@:3]1([H:11])[C:4]([H:12])([H:13])[O:5][C:6]1=[O:7])([H:8])([H:9])[H:10]>>[C:1]1([H:9])([H:10])[O:2][C@@:3]2([H:11])[C:4]([H:12])([H:13])[O:5][C@@:6]12[O:7][H:8]"
C        1.51008949       0.25712298      -0.55741699
O        1.08489108       0.34467663       0.81719784
C       -0.12926493      -0.32198483       0.78666191
C       -1.40267471       0.52468828       0.88327796
O       -1.67611727       0.28949129      -0.53359434
C       -0.51247754      -0.38224553      -0.69990764
O       -0.30603999      -1.17626358      -1.67769599
H        1.00557057      -1.27632345      -1.33803137
H        2.58300342       0.05846542      -0.55858230
H        1.38838748       1.22530127      -1.05664839
H       -0.10583591      -1.25390810       1.35736294
H       -1.23444044       1.58327360       1.07328584
H       -2.20509125       0.12770603       1.50409053
13
Frame=11 idx=010710 GeodesicLength=0.9765975403368601 rxn_smarts="[C:1]([O:2][C@@:3]1([H:11])[C:4]([H:12])([H:13])[O:5][C:6]1=[O:7])([H:8])([H:9])[H:10]>>[C:1]1([H:9])([H:10])[O:2][C@@:3]2([H:11])[C:4]([H:12])([H:13])[O:5][C@@:6]12[O:7][H:8]"
C        1.51245577       0.24494205      -0.55804347
O        1.07426161       0.37811948       0.80694852
C       -0.13138758      -0.31075639       0.78278180
C       -1.41134025       0.52034055       0.89027876
O       -1.67963257       0.31189531      -0.53015988
C       -0.51125095      -0.35802868      -0.70687746
O       -0.31182543      -1.15479526      -1.68371451
H        1.02357088      -1.30803005      -1.32213451
H        2.58531911       0.04830685      -0.54204516
H        1.39872751       1.19629033      -1.09043665
H       -0.08549248      -1.24643747       1.34540490
H       -1.25346147       1.57584735       1.10541185
H       -2.20994413       0.10230594       1.50258581
13
Frame=12 idx=010710 GeodesicLength=1.064896715695537 rxn_smarts="[C:1]([O:2][C@@:3]1([H:11])[C:4]([H:12])([H:13])[O:5][C:6]1=[O:7])([H:8])([H:9])[H:10]>>[C:1]1([H:9])([H:10])[O:2][C@@:3]2([H:11])[C:4]([H:12])([H:13])[O:5][C@@:6]12[O:7][H:8]"
C        1.51429736       0.23294670      -0.55837400
O        1.06360166       0.41093508       0.79565319
C       -0.13347185      -0.29963258       0.77883108
C       -1.41964579       0.51597738       0.89697505
O       -1.68337109       0.33404309      -0.52638063
C       -0.51022801      -0.33385244      -0.71381436
O       -0.31755817      -1.13333089      -1.68963654
H        1.04156715      -1.33922097      -1.30604517
H        2.58693289       0.03879394      -0.52558368
H        1.40905001       1.16663836      -1.12283414
H       -0.06526717      -1.23833237       1.33360986
H       -1.27175297       1.56769350       1.13700235
H       -2.21415401       0.07734120       1.50059697
13
Frame=13 idx=010710 GeodesicLength=1.1531065309259585 rxn_smarts="[C:1]([O:2][C@@:3]1([H:11])[C:4]([H:12])([H:13])[O:5][C:6]1=[O:7])([H:8])([H:9])[H:10]>>[C:1]1([H:9])([H:10])[O:2][C@@:3]2([H:11])[C:4]([H:12])([H:13])[O:5][C@@:6]12[O:7][H:8]"
C        1.51556323       0.22118391      -0.55843926
O        1.05295747       0.44290109       0.78341803
C       -0.13555067      -0.28871823       0.77480488
C       -1.42753901       0.51165556       0.90335634
O       -1.68731119       0.35592310      -0.52227576
C       -0.50941940      -0.30977535      -0.72072707
O       -0.32328396      -1.11188655      -1.69551509
H        1.05982021      -1.37001051      -1.28963205
H        2.58783679       0.03010561      -0.50933599
H        1.41910823       1.13650065      -1.15375463
H       -0.04533329      -1.22974599       1.32195578
H       -1.28912375       1.55888556       1.16798559
H       -2.21772466       0.05298115       1.49815923
13
Frame=14 idx=010710 GeodesicLength=1.2412297234755616 rxn_smarts="[C:1]([O:2][C@@:3]1([H:11])[C:4]([H:12])([H:13])[O:5][C:6]1=[O:7])([H:8])([H:9])[H:10]>>[C:1]1([H:9])([H:10])[O:2][C@@:3]2([H:11])[C:4]([H:12])([H:13])[O:5][C@@:6]12[O:7][H:8]"
C        1.51621354       0.20969018      -0.55827900
O        1.04237292       0.47381790       0.77036490
C       -0.13765805      -0.27811244       0.77069658
C       -1.43498206       0.50742819       0.90941835
O       -1.69143058       0.37753383      -0.51786552
C       -0.50883562      -0.28584842      -0.72762324
O       -0.32904591      -1.09046801      -1.70140359
H        1.07859255      -1.40050602      -1.27274473
H        2.58803461       0.02239046      -0.49345083
H        1.42868246       1.10603516      -1.18314133
H       -0.02585217      -1.22083787       1.31041215
H       -1.30541186       1.54950169       1.19830487
H       -2.22067982       0.02937536       1.49531138
13
Frame=15 idx=010710 GeodesicLength=1.3292707904657304 rxn_smarts="[C:1]([O:2][C@@:3]1([H:11])[C:4]([H:12])([H:13])[O:5][C:6]1=[O:7])([H:8])([H:9])[H:10]>>[C:1]1([H:9])([H:10])[O:2][C@@:3]2([H:11])[C:4]([H:12])([H:13])[O:5][C@@:6]12[O:7][H:8]"
C        1.51622003       0.19848914      -0.55794113
O        1.03188762       0.50351677       0.75662302
C       -0.13982753      -0.26790499       0.76649660
C       -1.44195195       0.50334195       0.91516364
O       -1.69570639       0.39888807      -0.51316950
C       -0.50848740      -0.26211050      -0.73451029
O       -0.33489002      -1.06906644      -1.70735739
H        1.09814742      -1.43080940      -1.25520972
H        2.58754076       0.01576263      -0.47808090
H        1.43758517       1.07539421      -1.21097074
H       -0.00696640      -1.21176721       1.29894002
H       -1.32048999       1.53961902       1.22792368
H       -2.22306131       0.00664674       1.49209272
13
Frame=16 idx=010710 GeodesicLength=1.4172352261429895 rxn_smarts="[C:1]([O:2][C@@:3]1([H:11])[C:4]([H:12])([H:13])[O:5][C:6]1=[O:7])([H:8])([H:9])[H:10]>>[C:1]1([H:9])([H:10])[O:2][C@@:3]2([H:11])[C:4]([H:12])([H:13])[O:5][C@@:6]12[O:7][H:8]"
C        1.51556444       0.18759062      -0.55748093
O        1.02153554       0.53186226       0.74232146
C       -0.14209181      -0.25817455       0.76219164
C       -1.44843946       0.49943599       0.92060131
O       -1.70011678       0.42001351      -0.50820471
C       -0.50838646      -0.23858607      -0.74139617
O       -0.34086912      -1.04765623      -1.71343513
H        1.11875082      -1.46101594      -1.23682784
H        2.58637718       0.01030123      -0.46337745
H        1.44566289       1.04471846      -1.23725238
H        0.01120195      -1.20268811       1.28749145
H       -1.33426448       1.52930897       1.25682696
H       -2.22492471      -0.01511015       1.48854178
