8
Frame=0 idx=001671 GeodesicLength=0.0 rxn_smarts="[O:1]([C:2]([C:3](=[O:4])[H:8])([H:6])[H:7])[H:5]>>[O:1]1[C:2]([H:6])([H:7])[C@@:3]1([O:4][H:5])[H:8]"
O       -1.30452258       0.15799629      -0.48096246
C       -0.37685403      -0.71588700       0.03401395
C        0.71642404       0.26266174      -0.12304790
O        0.52780045       1.43766545       0.33482184
H       -0.49707445       1.37896005       0.40336565
H       -0.52789877      -1.03153620       1.08506675
H       -0.17988315      -1.61546464      -0.56819557
H        1.64200846       0.12560431      -0.68506228
8
Frame=1 idx=001671 GeodesicLength=0.06966458154087628 rxn_smarts="[O:1]([C:2]([C:3](=[O:4])[H:8])([H:6])[H:7])[H:5]>>[O:1]1[C:2]([H:6])([H:7])[C@@:3]1([O:4][H:5])[H:8]"
O       -1.29152323       0.16626579      -0.47752167
C       -0.37313952      -0.72071877       0.03684526
C        0.71423452       0.26334734      -0.12447068
O        0.53105971       1.43716231       0.34218083
H       -0.51093741       1.38246920       0.39426978
H       -0.52532075      -1.03378635       1.08733866
H       -0.18285314      -1.61732732      -0.57080556
H        1.63847982       0.12258780      -0.68783662
8
Frame=2 idx=001671 GeodesicLength=0.1393282508435188 rxn_smarts="[O:1]([C:2]([C:3](=[O:4])[H:8])([H:6])[H:7])[H:5]>>[O:1]1[C:2]([H:6])([H:7])[C@@:3]1([O:4][H:5])[H:8]"
O       -1.27863768       0.17430682      -0.47417209
C       -0.36943197      -0.72541961       0.03957413
C        0.71209572       0.26406903      -0.12584858
O        0.53439798       1.43679594       0.34912163
H       -0.52482698       1.38582257       0.38566192
H       -0.52276384      -1.03594845       1.08949814
H       -0.18586313      -1.61908395      -0.57337208
H        1.63502990       0.11945765      -0.69046307
8
Frame=3 idx=001671 GeodesicLength=0.20896529810161346 rxn_smarts="[O:1]([C:2]([C:3](=[O:4])[H:8])([H:6])[H:7])[H:5]>>[O:1]1[C:2]([H:6])([H:7])[C@@:3]1([O:4][H:5])[H:8]"
O       -1.26586017       0.18213240      -0.47091491
C       -0.36572873      -0.72999282       0.04220404
C        0.71000739       0.26482679      -0.12719092
O        0.53784511       1.43656273       0.35567319
H       -0.53878345       1.38901549       0.37752115
H       -0.52022610      -1.03801897       1.09154936
H       -0.18891283      -1.62073838      -0.57589270
H        1.63165878       0.11621275      -0.69294921
8
Frame=4 idx=001671 GeodesicLength=0.2785586566671684 rxn_smarts="[O:1]([C:2]([C:3](=[O:4])[H:8])([H:6])[H:7])[H:5]>>[O:1]1[C:2]([H:6])([H:7])[C@@:3]1([O:4][H:5])[H:8]"
O       -1.25318620       0.18975642      -0.46775197
C       -0.36202751      -0.73444150       0.04473861
C        0.70797116       0.26561959      -0.12850613
O        0.54142894       1.43645722       0.36186172
H       -0.55284504       1.39204446       0.36982808
H       -0.51770703      -1.03999523       1.09349791
H       -0.19200084      -1.62229452      -0.57836565
H        1.62836652       0.11285355      -0.69530256
8
Frame=5 idx=001671 GeodesicLength=0.3480744184759993 rxn_smarts="[O:1]([C:2]([C:3](=[O:4])[H:8])([H:6])[H:7])[H:5]>>[O:1]1[C:2]([H:6])([H:7])[C@@:3]1([O:4][H:5])[H:8]"
O       -1.24061023       0.19719081      -0.46468258
C       -0.35832637      -0.73876892       0.04718136
C        0.70598834       0.26644657      -0.12980007
O        0.54517190       1.43647407       0.36771390
H       -0.56704242       1.39490645       0.36255986
H       -0.51520678      -1.04187565       1.09534770
H       -0.19512718      -1.62375542      -0.58078906
H        1.62515274       0.10938210      -0.69753112
8
Frame=6 idx=001671 GeodesicLength=0.41748250732083647 rxn_smarts="[O:1]([C:2]([C:3](=[O:4])[H:8])([H:6])[H:7])[H:5]>>[O:1]1[C:2]([H:6])([H:7])[C@@:3]1([O:4][H:5])[H:8]"
O       -1.22812597       0.20444615      -0.46170519
C       -0.35462383      -0.74297895       0.04953536
C        0.70406059       0.26730747      -0.13107685
O        0.54909457       1.43660876       0.37325718
H       -0.58140323       1.39759980       0.35569219
H       -0.51272611      -1.04365972       1.09710235
H       -0.19829259      -1.62512447      -0.58316102
H        1.62201658       0.10580096      -0.69964402
8
Frame=7 idx=001671 GeodesicLength=0.48696366070007263 rxn_smarts="[O:1]([C:2]([C:3](=[O:4])[H:8])([H:6])[H:7])[H:5]>>[O:1]1[C:2]([H:6])([H:7])[C@@:3]1([O:4][H:5])[H:8]"
O       -1.21571707       0.21154103      -0.45883277
C       -0.35091508      -0.74706801       0.05180995
C        0.70218560       0.26820286      -0.13234253
O        0.55324731       1.43684090       0.37855029
H       -0.59599674       1.40010993       0.34919298
H       -0.51026389      -1.04533031       1.09876736
H       -0.20149732      -1.62640958      -0.58547058
H        1.61895719       0.10211318      -0.70167470
8
Frame=8 idx=001671 GeodesicLength=0.5568673692484193 rxn_smarts="[O:1]([C:2]([C:3](=[O:4])[H:8])([H:6])[H:7])[H:5]>>[O:1]1[C:2]([H:6])([H:7])[C@@:3]1([O:4][H:5])[H:8]"
O       -1.20339619       0.21848182      -0.45610298
C       -0.34719289      -0.75101925       0.05399211
C        0.70035837       0.26914184      -0.13365847
O        0.55773851       1.43713493       0.38360367
H       -0.61093663       1.40240895       0.34311392
H       -0.50781852      -1.04684275       1.10034585
H       -0.20471029      -1.62760262      -0.58769483
H        1.61595765       0.09829707      -0.70359927
8
Frame=9 idx=001671 GeodesicLength=0.6265838251255014 rxn_smarts="[O:1]([C:2]([C:3](=[O:4])[H:8])([H:6])[H:7])[H:5]>>[O:1]1[C:2]([H:6])([H:7])[C@@:3]1([O:4][H:5])[H:8]"
O       -1.19114841       0.22528204      -0.45346071
C       -0.34346430      -0.75485969       0.05609934
C        0.69859768       0.27011174      -0.13495595
O        0.56246761       1.43752590       0.38842404
H       -0.62612133       1.40452819       0.33735896
H       -0.50539942      -1.04825987       1.10184258
H       -0.20796204      -1.62871193      -0.58986404
H        1.61303022       0.09438362      -0.70544422
8
Frame=10 idx=001671 GeodesicLength=0.6962354552072826 rxn_smarts="[O:1]([C:2]([C:3](=[O:4])[H:8])([H:6])[H:7])[H:5]>>[O:1]1[C:2]([H:6])([H:7])[C@@:3]1([O:4][H:5])[H:8]"
O       -1.17895918       0.23195416      -0.45091695
C       -0.33972539      -0.75858635       0.05813603
C        0.69690499       0.27111333      -0.13624556
O        0.56747558       1.43799080       0.39304573
H       -0.64160712       1.40645642       0.33191035
H       -0.50300332      -1.04956733       1.10326364
H       -0.21125229      -1.62973495      -0.59197111
H        1.61016673       0.09037392      -0.70722213
8
Frame=11 idx=001671 GeodesicLength=0.7658485767962215 rxn_smarts="[O:1]([C:2]([C:3](=[O:4])[H:8])([H:6])[H:7])[H:5]>>[O:1]1[C:2]([H:6])([H:7])[C@@:3]1([O:4][H:5])[H:8]"
O       -1.16682269       0.23851163      -0.44847294
C       -0.33597161      -0.76219884       0.06010767
C        0.69528479       0.27214145      -0.13752944
O        0.57278748       1.43850918       0.39749457
H       -0.65743107       1.40819714       0.32674195
H       -0.50062659      -1.05076316       1.10461390
H       -0.21458127      -1.63067164      -0.59401452
H        1.60736096       0.08627424      -0.70894120
8
Frame=12 idx=001671 GeodesicLength=0.8354424885660341 rxn_smarts="[O:1]([C:2]([C:3](=[O:4])[H:8])([H:6])[H:7])[H:5]>>[O:1]1[C:2]([H:6])([H:7])[C@@:3]1([O:4][H:5])[H:8]"
O       -1.15472603       0.24496264      -0.44612669
C       -0.33220051      -0.76569878       0.06202110
C        0.69374186       0.27319795      -0.13879777
O        0.57842719       1.43906723       0.40181766
H       -0.67362366       1.40974758       0.32180775
H       -0.49827170      -1.05184731       1.10589893
H       -0.21795080      -1.63151986      -0.59599006
H        1.60460366       0.08209055      -0.71063092
8
Frame=13 idx=001671 GeodesicLength=0.9050162272447305 rxn_smarts="[O:1]([C:2]([C:3](=[O:4])[H:8])([H:6])[H:7])[H:5]>>[O:1]1[C:2]([H:6])([H:7])[C@@:3]1([O:4][H:5])[H:8]"
O       -1.14266233       0.25132070      -0.44387468
C       -0.32840984      -0.76908638       0.06388178
C        0.69228145       0.27427758      -0.14005119
O        0.58441624       1.43964199       0.40604451
H       -0.69021327       1.41111010       0.31707263
H       -0.49593622      -1.05281887       1.10712458
H       -0.22136015      -1.63227972      -0.59789638
H        1.60188411       0.07783461      -0.71230125
8
Frame=14 idx=001671 GeodesicLength=0.9745897692389938 rxn_smarts="[O:1]([C:2]([C:3](=[O:4])[H:8])([H:6])[H:7])[H:5]>>[O:1]1[C:2]([H:6])([H:7])[C@@:3]1([O:4][H:5])[H:8]"
O       -1.13061973       0.25759822      -0.44171548
C       -0.32459708      -0.77235985       0.06569326
C        0.69091100       0.27538482      -0.14128434
O        0.59077852       1.44023102       0.41019391
H       -0.70723638       1.41226413       0.31251654
H       -0.49362313      -1.05367474       1.10829435
H       -0.22481372      -1.63294647      -0.59973214
H        1.59920052       0.07350286      -0.71396610
8
Frame=15 idx=001671 GeodesicLength=1.0441618149692176 rxn_smarts="[O:1]([C:2]([C:3](=[O:4])[H:8])([H:6])[H:7])[H:5]>>[O:1]1[C:2]([H:6])([H:7])[C@@:3]1([O:4][H:5])[H:8]"
O       -1.11859214       0.26381190      -0.43964414
C       -0.32076094      -0.77551841       0.06745818
C        0.68963547       0.27651938      -0.14249857
O        0.59753412       1.44082741       0.41426704
H       -0.72473063       1.41319953       0.30812760
H       -0.49132646      -1.05441616       1.10941139
H       -0.22831809      -1.63351614      -0.60150070
H        1.59655865       0.06909249      -0.71562081
8
Frame=16 idx=001671 GeodesicLength=1.1137279622666232 rxn_smarts="[O:1]([C:2]([C:3](=[O:4])[H:8])([H:6])[H:7])[H:5]>>[O:1]1[C:2]([H:6])([H:7])[C@@:3]1([O:4][H:5])[H:8]"
O       -1.10655889       0.26996456      -0.43764623
C       -0.31689482      -0.77856480       0.06919151
C        0.68846012       0.27767242      -0.14366916
O        0.60470526       1.44138092       0.41836831
H       -0.74271119       1.41394249       0.30379256
H       -0.48904455      -1.05504507       1.11048298
H       -0.23186950      -1.63398777      -0.60319238
H        1.59391356       0.06463725      -0.71732760
