17
Frame=0 idx=011920 GeodesicLength=0.0 rxn_smarts="[C:1]([C@@:2]1([H:11])[C@@:3]2([H:12])[C:4]([H:13])([H:14])[C:5]([H:15])=[C:6]([H:16])[C@@:7]12[H:17])([H:8])([H:9])[H:10]>>[C:1]([C@@:2]1([H:11])[C:3]([H:12])([H:13])[C:4]([H:14])=[C:5]([H:15])[C:6]([H:16])=[C:7]1[H:17])([H:8])([H:9])[H:10]"
C       -1.78076297       0.47849248      -0.14120811
C       -0.83781127      -0.72364996      -0.16558109
C        0.33055534      -0.62938351      -1.08484284
C        1.31463634       0.41181757      -0.83999583
C        1.45403734       0.84962437       0.49928757
C        0.88433415      -0.00015401       1.44831589
C       -0.04760265      -0.94873332       1.08985197
H       -2.26272232       0.61191979      -1.11407824
H       -2.55657043       0.32309334       0.61062535
H       -1.24725370       1.39518815       0.11726441
H       -1.41311965      -1.61420330      -0.42418445
H        0.47063000      -1.32067285      -1.90892709
H        0.39203954       0.80942358      -1.51045804
H        2.15323996       0.49749890      -1.52490454
H        2.14779099       1.63579604       0.75842089
H        1.25813311       0.02554009       2.46694323
H       -0.25955375      -1.80159742       1.72347092
17
Frame=1 idx=011920 GeodesicLength=0.05630034706765777 rxn_smarts="[C:1]([C@@:2]1([H:11])[C@@:3]2([H:12])[C:4]([H:13])([H:14])[C:5]([H:15])=[C:6]([H:16])[C@@:7]12[H:17])([H:8])([H:9])[H:10]>>[C:1]([C@@:2]1([H:11])[C:3]([H:12])([H:13])[C:4]([H:14])=[C:5]([H:15])[C:6]([H:16])=[C:7]1[H:17])([H:8])([H:9])[H:10]"
C       -1.78321100       0.48341675      -0.13576751
C       -0.84538437      -0.72092229      -0.16903393
C        0.33068470      -0.62842417      -1.07920615
C        1.31469139       0.41826023      -0.84099075
C        1.45468730       0.85147388       0.49943145
C        0.88531476      -0.00088109       1.44636243
C       -0.03816761      -0.95478266       1.07368277
H       -2.26808997       0.62158878      -1.10645377
H       -2.55578042       0.32800513       0.61943743
H       -1.24695789       1.39849780       0.12232294
H       -1.42168680      -1.61013056      -0.42934400
H        0.48911453      -1.34115104      -1.88145424
H        0.38454958       0.79962011      -1.53248731
H        2.15802484       0.49689726      -1.52104106
H        2.14452636       1.64040688       0.76141392
H        1.24775727       0.02810860       2.46880876
H       -0.25007265      -1.80998360       1.70431903
17
Frame=2 idx=011920 GeodesicLength=0.11260727367132767 rxn_smarts="[C:1]([C@@:2]1([H:11])[C@@:3]2([H:12])[C:4]([H:13])([H:14])[C:5]([H:15])=[C:6]([H:16])[C@@:7]12[H:17])([H:8])([H:9])[H:10]>>[C:1]([C@@:2]1([H:11])[C:3]([H:12])([H:13])[C:4]([H:14])=[C:5]([H:15])[C:6]([H:16])=[C:7]1[H:17])([H:8])([H:9])[H:10]"
C       -1.78559833       0.48817298      -0.13046208
C       -0.85273107      -0.71822603      -0.17234811
C        0.33084023      -0.62747892      -1.07364640
C        1.31467874       0.42475986      -0.84199217
C        1.45556336       0.85313198       0.49963494
C        0.88640916      -0.00172388       1.44446679
C       -0.02904882      -0.96034797       1.05778228
H       -2.27327435       0.63096795      -1.09901816
H       -2.55505253       0.33271576       0.62795803
H       -1.24669335       1.40169882       0.12723190
H       -1.42992213      -1.60618372      -0.43428637
H        0.50693999      -1.36034449      -1.85385982
H        0.37711269       0.78915645      -1.55467656
H        2.16260838       0.49652847      -1.51721653
H        2.14143367       1.64483539       0.76448137
H        1.23756887       0.03029206       2.47058242
H       -0.24083453      -1.81795469       1.68536847
17
Frame=3 idx=011920 GeodesicLength=0.1688917604523315 rxn_smarts="[C:1]([C@@:2]1([H:11])[C@@:3]2([H:12])[C:4]([H:13])([H:14])[C:5]([H:15])=[C:6]([H:16])[C@@:7]12[H:17])([H:8])([H:9])[H:10]>>[C:1]([C@@:2]1([H:11])[C:3]([H:12])([H:13])[C:4]([H:14])=[C:5]([H:15])[C:6]([H:16])=[C:7]1[H:17])([H:8])([H:9])[H:10]"
C       -1.78792168       0.49273803      -0.12529854
C       -0.85986050      -0.71555487      -0.17551137
C        0.33103680      -0.62654222      -1.06810488
C        1.31460841       0.43130300      -0.84296341
C        1.45665228       0.85460034       0.49989120
C        0.88758817      -0.00264509       1.44261112
C       -0.02025968      -0.96541679       1.04215116
H       -2.27824887       0.64002365      -1.09176178
H       -2.55439895       0.33721190       0.63615521
H       -1.24645509       1.40474615       0.13197989
H       -1.43783777      -1.60233782      -0.43898945
H        0.52406249      -1.37815952      -1.82621336
H        0.36976134       0.77797117      -1.57695995
H        2.16700353       0.49639342      -1.51337955
H        2.13848778       1.64907914       0.76759729
H        1.22765811       0.03204676       2.47217357
H       -0.23187639      -1.82545725       1.66662284
17
Frame=4 idx=011920 GeodesicLength=0.22520563448872222 rxn_smarts="[C:1]([C@@:2]1([H:11])[C@@:3]2([H:12])[C:4]([H:13])([H:14])[C:5]([H:15])=[C:6]([H:16])[C@@:7]12[H:17])([H:8])([H:9])[H:10]>>[C:1]([C@@:2]1([H:11])[C:3]([H:12])([H:13])[C:4]([H:14])=[C:5]([H:15])[C:6]([H:16])=[C:7]1[H:17])([H:8])([H:9])[H:10]"
C       -1.79016718       0.49716247      -0.12024144
C       -0.86677864      -0.71292100      -0.17854020
C        0.33125846      -0.62562618      -1.06262920
C        1.31447940       0.43787833      -0.84392715
C        1.45798585       0.85585537       0.50020782
C        0.88889869      -0.00369263       1.44081931
C       -0.01175952      -0.97007049       1.02680019
H       -2.28302255       0.64885253      -1.08466617
H       -2.55378983       0.34155003       0.64409919
H       -1.24621188       1.40769481       0.13663266
H       -1.44546210      -1.59860360      -0.44349282
H        0.54051060      -1.39477729      -1.79865664
H        0.36248941       0.76608437      -1.59937235
H        2.17119378       0.49648455      -1.50959989
H        2.13567233       1.65316806       0.77078402
H        1.21775624       0.03362845       2.47375085
H       -0.22305304      -1.83266776       1.64803183
17
Frame=5 idx=011920 GeodesicLength=0.28151081468548755 rxn_smarts="[C:1]([C@@:2]1([H:11])[C@@:3]2([H:12])[C:4]([H:13])([H:14])[C:5]([H:15])=[C:6]([H:16])[C@@:7]12[H:17])([H:8])([H:9])[H:10]>>[C:1]([C@@:2]1([H:11])[C:3]([H:12])([H:13])[C:4]([H:14])=[C:5]([H:15])[C:6]([H:16])=[C:7]1[H:17])([H:8])([H:9])[H:10]"
C       -1.79235870       0.50142598      -0.11533217
C       -0.87349429      -0.71032773      -0.18142536
C        0.33152504      -0.62473153      -1.05716902
C        1.31429377       0.44449243      -0.84485010
C        1.45952431       0.85694542       0.50060045
C        0.89028634      -0.00478994       1.43911897
C       -0.00356549      -0.97428622       1.01176176
H       -2.28758403       0.65740864      -1.07778740
H       -2.55327536       0.34571004       0.65172175
H       -1.24600491       1.41052765       0.14115019
H       -1.45278595      -1.59499495      -0.44777844
H        0.55625372      -1.41011591      -1.77128649
H        0.35531425       0.75345268      -1.62186658
H        2.17518477       0.49682593      -1.50583810
H        2.13299012       1.65711139       0.77404496
H        1.20819116       0.03480775       2.47521815
H       -0.21449476      -1.83946163       1.62971743
17
Frame=6 idx=011920 GeodesicLength=0.3378339852335951 rxn_smarts="[C:1]([C@@:2]1([H:11])[C@@:3]2([H:12])[C:4]([H:13])([H:14])[C:5]([H:15])=[C:6]([H:16])[C@@:7]12[H:17])([H:8])([H:9])[H:10]>>[C:1]([C@@:2]1([H:11])[C:3]([H:12])([H:13])[C:4]([H:14])=[C:5]([H:15])[C:6]([H:16])=[C:7]1[H:17])([H:8])([H:9])[H:10]"
C       -1.79446552       0.50555426      -0.11052210
C       -0.88001158      -0.70777581      -0.18417719
C        0.33182775      -0.62385954      -1.05174476
C        1.31406301       0.45112538      -0.84574429
C        1.46130259       0.85782475       0.50105462
C        0.89179568      -0.00599525       1.43748896
C        0.00435284      -0.97812665       0.99701232
H       -2.29191327       0.66576837      -1.07106530
H       -2.55281350       0.34971898       0.65908787
H       -1.24577868       1.41325088       0.14560441
H       -1.45984420      -1.59148825      -0.45187141
H        0.57132194      -1.42428943      -1.74417324
H        0.34825075       0.74006404      -1.64443907
H        2.17897750       0.49740757      -1.50213242
H        2.13035585       1.66096209       0.77736810
H        1.19870051       0.03580654       2.47664800
H       -0.20612168      -1.84594794       1.61160550
17
Frame=7 idx=011920 GeodesicLength=0.39418968942165816 rxn_smarts="[C:1]([C@@:2]1([H:11])[C@@:3]2([H:12])[C:4]([H:13])([H:14])[C:5]([H:15])=[C:6]([H:16])[C@@:7]12[H:17])([H:8])([H:9])[H:10]>>[C:1]([C@@:2]1([H:11])[C:3]([H:12])([H:13])[C:4]([H:14])=[C:5]([H:15])[C:6]([H:16])=[C:7]1[H:17])([H:8])([H:9])[H:10]"
C       -1.79647459       0.50956188      -0.10578258
C       -0.88633577      -0.70526534      -0.18680210
C        0.33216130      -0.62300803      -1.04636412
C        1.31378838       0.45776791      -0.84661447
C        1.46333488       0.85847753       0.50156295
C        0.89345271      -0.00733419       1.43591825
C        0.01201916      -0.98163390       0.98253884
H       -2.29600430       0.67397710      -1.06446419
H       -2.55238619       0.35358933       0.66623187
H       -1.24550908       1.41586616       0.15004301
H       -1.46665976      -1.58806952      -0.45578641
H        0.58573936      -1.43735596      -1.71736582
H        0.34130651       0.72589705      -1.66708278
H        2.18256584       0.49823547      -1.49850546
H        2.12776932       1.66470931       0.78074783
H        1.18910344       0.03678251       2.47807813
H       -0.19787120      -1.85219731       1.59364704
17
Frame=8 idx=011920 GeodesicLength=0.4506161310375621 rxn_smarts="[C:1]([C@@:2]1([H:11])[C@@:3]2([H:12])[C:4]([H:13])([H:14])[C:5]([H:15])=[C:6]([H:16])[C@@:7]12[H:17])([H:8])([H:9])[H:10]>>[C:1]([C@@:2]1([H:11])[C:3]([H:12])([H:13])[C:4]([H:14])=[C:5]([H:15])[C:6]([H:16])=[C:7]1[H:17])([H:8])([H:9])[H:10]"
C       -1.79836129       0.51347304      -0.10107558
C       -0.89246877      -0.70279815      -0.18930932
C        0.33252137      -0.62217988      -1.04104327
C        1.31348074       0.46440326      -0.84746482
C        1.46564904       0.85886526       0.50211066
C        0.89529311      -0.00885383       1.43439373
C        0.01946304      -0.98486305       0.96832922
H       -2.29984744       0.68209413      -1.05793849
H       -2.55195658       0.35735490       0.67321389
H       -1.24515043       1.41838373       0.15451365
H       -1.47325758      -1.58472329      -0.45954589
H        0.59953890      -1.44939001      -1.69091509
H        0.33448540       0.71092704      -1.68980322
H        2.18595060       0.49931056      -1.49498468
H        2.12515258       1.66839834       0.78417599
H        1.17918940       0.03789295       2.47954813
H       -0.18968206      -1.85829502       1.57579509
17
Frame=9 idx=011920 GeodesicLength=0.5070241702828323 rxn_smarts="[C:1]([C@@:2]1([H:11])[C@@:3]2([H:12])[C:4]([H:13])([H:14])[C:5]([H:15])=[C:6]([H:16])[C@@:7]12[H:17])([H:8])([H:9])[H:10]>>[C:1]([C@@:2]1([H:11])[C:3]([H:12])([H:13])[C:4]([H:14])=[C:5]([H:15])[C:6]([H:16])=[C:7]1[H:17])([H:8])([H:9])[H:10]"
C       -1.80011120       0.51731436      -0.09637424
C       -0.89842692      -0.70035311      -0.19170363
C        0.33289310      -0.62136348      -1.03579209
C        1.31312893       0.47102878      -0.84831937
C        1.46828044       0.85895116       0.50270043
C        0.89733508      -0.01057843       1.43290838
C        0.02667915      -0.98782553       0.95434244
H       -2.30342425       0.69018203      -1.05144621
H       -2.55150353       0.36103167       0.68005435
H       -1.24467780       1.42081714       0.15906493
H       -1.47967195      -1.58141274      -0.46315686
H        0.61281747      -1.46059219      -1.66477559
H        0.32781999       0.69517196      -1.71253235
H        2.18911258       0.50063119      -1.49161716
H        2.12237700       1.67210688       0.78764590
H        1.16887812       0.03918941       2.48104494
H       -0.18150621      -1.86429908       1.55795613
17
Frame=10 idx=011920 GeodesicLength=0.5635333123678316 rxn_smarts="[C:1]([C@@:2]1([H:11])[C@@:3]2([H:12])[C:4]([H:13])([H:14])[C:5]([H:15])=[C:6]([H:16])[C@@:7]12[H:17])([H:8])([H:9])[H:10]>>[C:1]([C@@:2]1([H:11])[C:3]([H:12])([H:13])[C:4]([H:14])=[C:5]([H:15])[C:6]([H:16])=[C:7]1[H:17])([H:8])([H:9])[H:10]"
C       -1.80172933       0.52106601      -0.09170029
C       -0.90420211      -0.69795353      -0.19397924
C        0.33329850      -0.62057310      -1.03058048
C        1.31276000       0.47763891      -0.84912452
C        1.47117658       0.85878826       0.50333123
C        0.89954243      -0.01246199       1.43147810
C        0.03369504      -0.99054412       0.94062732
H       -2.30673062       0.69819326      -1.04502596
H       -2.55104350       0.36461722       0.68674067
H       -1.24410027       1.42315280       0.16366136
H       -1.48588628      -1.57817088      -0.46660965
H        0.62547463      -1.47076944      -1.63912765
H        0.32129034       0.67855756      -1.73530783
H        2.19208610       0.50220451      -1.48834778
H        2.11950434       1.67579666       0.79116564
H        1.15828846       0.04059804       2.48253846
H       -0.17342432      -1.87014019       1.54026061
17
Frame=11 idx=011920 GeodesicLength=0.6200458332745067 rxn_smarts="[C:1]([C@@:2]1([H:11])[C@@:3]2([H:12])[C:4]([H:13])([H:14])[C:5]([H:15])=[C:6]([H:16])[C@@:7]12[H:17])([H:8])([H:9])[H:10]>>[C:1]([C@@:2]1([H:11])[C:3]([H:12])([H:13])[C:4]([H:14])=[C:5]([H:15])[C:6]([H:16])=[C:7]1[H:17])([H:8])([H:9])[H:10]"
C       -1.80322173       0.52476815      -0.08703074
C       -0.90981076      -0.69557522      -0.19615317
C        0.33371459      -0.61978995      -1.02544511
C        1.31235495       0.48423349      -0.84991463
C        1.47438799       0.85834125       0.50400639
C        0.90195404      -0.01453609       1.43010434
C        0.04051029      -0.99303566       0.92714694
H       -2.30978162       0.70621116      -1.03865247
H       -2.55057175       0.36813409       0.69329544
H       -1.24341793       1.42542150       0.16836127
H       -1.49192587      -1.57496688      -0.46993419
H        0.63764002      -1.48020248      -1.61386254
H        0.31492473       0.66115415      -1.75807237
H        2.19484030       0.50402646      -1.48523806
H        2.11642190       1.67953884       0.79474160
H        1.14734561       0.04217264       2.48403396
H       -0.16536476      -1.87589544       1.52261334
17
Frame=12 idx=011920 GeodesicLength=0.6766447491407949 rxn_smarts="[C:1]([C@@:2]1([H:11])[C@@:3]2([H:12])[C:4]([H:13])([H:14])[C:5]([H:15])=[C:6]([H:16])[C@@:7]12[H:17])([H:8])([H:9])[H:10]>>[C:1]([C@@:2]1([H:11])[C:3]([H:12])([H:13])[C:4]([H:14])=[C:5]([H:15])[C:6]([H:16])=[C:7]1[H:17])([H:8])([H:9])[H:10]"
C       -1.80457492       0.52839353      -0.08236487
C       -0.91525073      -0.69322615      -0.19821257
C        0.33415762      -0.61900337      -1.02034662
C        1.31194410       0.49081018      -0.85064482
C        1.47788126       0.85762475       0.50471013
C        0.90453098      -0.01677408       1.42876764
C        0.04713777      -0.99530776       0.91391019
H       -2.31253872       0.71419427      -1.03231597
H       -2.55009287       0.37156182       0.69970772
H       -1.24261440       1.42758278       0.17315682
H       -1.49779121      -1.57179687      -0.47310919
H        0.64926242      -1.48875692      -1.58909561
H        0.30871845       0.64289215      -1.78081951
H        2.19740918       0.50611509      -1.48224639
H        2.11313291       1.68330554       0.79835548
H        1.13610602       0.04386949       2.48546234
H       -0.15741786      -1.88148446       1.50508523
17
Frame=13 idx=011920 GeodesicLength=0.733280624057756 rxn_smarts="[C:1]([C@@:2]1([H:11])[C@@:3]2([H:12])[C:4]([H:13])([H:14])[C:5]([H:15])=[C:6]([H:16])[C@@:7]12[H:17])([H:8])([H:9])[H:10]>>[C:1]([C@@:2]1([H:11])[C:3]([H:12])([H:13])[C:4]([H:14])=[C:5]([H:15])[C:6]([H:16])=[C:7]1[H:17])([H:8])([H:9])[H:10]"
C       -1.80581591       0.53197499      -0.07772575
C       -0.92053426      -0.69090278      -0.20016904
C        0.33462210      -0.61822401      -1.01530121
C        1.31151759       0.49736865      -0.85132130
C        1.48165555       0.85666844       0.50547513
C        0.90726986      -0.01914752       1.42752083
C        0.05358296      -0.99737129       0.90093185
H       -2.31502872       0.72217846      -1.02606964
H       -2.54963588       0.37493236       0.70595923
H       -1.24172354       1.42968644       0.17804264
H       -1.50348815      -1.56867702      -0.47615397
H        0.66037416      -1.49655285      -1.56485629
H        0.30267731       0.62377714      -1.80353251
H        2.19978024       0.50846898      -1.47939774
H        2.10957841       1.68716180       0.80204388
H        1.12474187       0.04558533       2.48684455
H       -0.14957360      -1.88692713       1.48770933
17
Frame=14 idx=011920 GeodesicLength=0.7899167463203804 rxn_smarts="[C:1]([C@@:2]1([H:11])[C@@:3]2([H:12])[C:4]([H:13])([H:14])[C:5]([H:15])=[C:6]([H:16])[C@@:7]12[H:17])([H:8])([H:9])[H:10]>>[C:1]([C@@:2]1([H:11])[C:3]([H:12])([H:13])[C:4]([H:14])=[C:5]([H:15])[C:6]([H:16])=[C:7]1[H:17])([H:8])([H:9])[H:10]"
C       -1.80694262       0.53550128      -0.07311405
C       -0.92567225      -0.68858631      -0.20201640
C        0.33510742      -0.61743183      -1.01028296
C        1.31107985       0.50391076      -0.85192602
C        1.48569843       0.85547889       0.50629513
C        0.91013781      -0.02162955       1.42634317
C        0.05982879      -0.99920275       0.88818730
H       -2.31722972       0.73014755      -1.01989854
H       -2.54920686       0.37822893       0.71203186
H       -1.24074285       1.43170802       0.18301513
H       -1.50902937      -1.56557538      -0.47905064
H        0.67100443      -1.50362008      -1.54112933
H        0.29682424       0.60379094      -1.82613385
H        2.20195870       0.51109705      -1.47667884
H        2.10571391       1.69110727       0.80578689
H        1.11334103       0.04725073       2.48810947
H       -0.14187094      -1.89217552       1.47046168
17
Frame=15 idx=011920 GeodesicLength=0.8465895684048143 rxn_smarts="[C:1]([C@@:2]1([H:11])[C@@:3]2([H:12])[C:4]([H:13])([H:14])[C:5]([H:15])=[C:6]([H:16])[C@@:7]12[H:17])([H:8])([H:9])[H:10]>>[C:1]([C@@:2]1([H:11])[C:3]([H:12])([H:13])[C:4]([H:14])=[C:5]([H:15])[C:6]([H:16])=[C:7]1[H:17])([H:8])([H:9])[H:10]"
C       -1.80798006       0.53898514      -0.06855089
C       -0.93067123      -0.68628380      -0.20376396
C        0.33561166      -0.61661879      -1.00529862
C        1.31063248       0.51044792      -0.85244359
C        1.48999002       0.85408791       0.50717741
C        0.91311588      -0.02419259       1.42525801
C        0.06589232      -1.00082156       0.87570313
H       -2.31915921       0.73811052      -1.01384812
H       -2.54884234       0.38146603       0.71790435
H       -1.23970513       1.43366908       0.18806716
H       -1.51441152      -1.56251401      -0.48181626
H        0.68116509      -1.50998678      -1.51794352
H        0.29114136       0.58293405      -1.84864833
H        2.20394485       0.51401751      -1.47408715
H        2.10156017       1.69513238       0.80960589
H        1.10205117       0.04878361       2.48926940
H       -0.13433553      -1.89721662       1.45341508
17
Frame=16 idx=011920 GeodesicLength=0.9032755655420922 rxn_smarts="[C:1]([C@@:2]1([H:11])[C@@:3]2([H:12])[C:4]([H:13])([H:14])[C:5]([H:15])=[C:6]([H:16])[C@@:7]12[H:17])([H:8])([H:9])[H:10]>>[C:1]([C@@:2]1([H:11])[C:3]([H:12])([H:13])[C:4]([H:14])=[C:5]([H:15])[C:6]([H:16])=[C:7]1[H:17])([H:8])([H:9])[H:10]"
C       -1.80895385       0.54242055      -0.06405966
C       -0.93554393      -0.68398693      -0.20541321
C        0.33613070      -0.61576452      -1.00033586
C        1.31017252       0.51699585      -0.85285632
C        1.49450099       0.85253455       0.50812916
C        0.91616334      -0.02678819       1.42427082
C        0.07176574      -1.00220893       0.86347766
H       -2.32082717       0.74604399      -1.00794876
H       -2.54857993       0.38463164       0.72353963
H       -1.23864690       1.43556749       0.19317694
H       -1.51963521      -1.55949189      -0.48444656
H        0.69087712      -1.51568172      -1.49530223
H        0.28562898       0.56120756      -1.87103004
H        2.20573778       0.51724592      -1.47161011
H        2.09716754       1.69919739       0.81350519
H        1.09104879       0.05007829       2.49030358
H       -0.12700649      -1.90200104       1.43659976
