15
Frame=0 idx=008792 GeodesicLength=0.0 rxn_smarts="[O:1]=[C:2]1[C:3]([H:8])([H:9])[C:4]([H:10])([H:11])[C:5]([H:12])([H:13])[C:6]([H:14])=[C:7]1[H:15]>>[O:1]([C:2]1=[C:7]=[C:6]([H:14])[C:5]([H:12])([H:13])[C:4]([H:10])([H:11])[C:3]1([H:8])[H:9])[H:15]"
O        1.04847570      -2.39593470       0.51189583
C        0.55192491      -1.25934973       0.24700485
C       -0.86826847      -1.01444855      -0.08711081
C       -1.18951395       0.45680709       0.18846142
C       -0.12507125       1.39287361      -0.38209541
C        1.28551223       0.95475632      -0.06446724
C        1.61798950      -0.30301226       0.27223968
H       -0.97707818      -1.24248085      -1.15497430
H       -1.52281970      -1.70206337       0.45070792
H       -2.17328434       0.70535421      -0.21325523
H       -1.24145145       0.60329178       1.27122379
H       -0.22704380       1.46505934      -1.47358886
H       -0.28657614       2.40636012      -0.00637223
H        2.05066771       1.72433347      -0.15095802
H        2.05653728      -1.79154653       0.59128865
15
Frame=1 idx=008792 GeodesicLength=0.04733952390399782 rxn_smarts="[O:1]=[C:2]1[C:3]([H:8])([H:9])[C:4]([H:10])([H:11])[C:5]([H:12])([H:13])[C:6]([H:14])=[C:7]1[H:15]>>[O:1]([C:2]1=[C:7]=[C:6]([H:14])[C:5]([H:12])([H:13])[C:4]([H:10])([H:11])[C:3]1([H:8])[H:9])[H:15]"
O        1.04241644      -2.39209796       0.54854122
C        0.55231950      -1.26680684       0.22699891
C       -0.86798652      -1.01606542      -0.10292360
C       -1.18658899       0.45245479       0.19140149
C       -0.12677483       1.39660639      -0.37524124
C        1.28648091       0.94982613      -0.08428683
C        1.61568831      -0.30915365       0.24577605
H       -0.97622688      -1.23059872      -1.17336338
H       -1.52297245      -1.70832711       0.42822281
H       -2.17280580       0.70550364      -0.20160007
H       -1.23263025       0.58604557       1.27608448
H       -0.24173316       1.48865826      -1.46383718
H       -0.28136656       2.40366662       0.02028509
H        2.05589668       1.71305394      -0.18668656
H        2.05628361      -1.77276563       0.65062880
15
Frame=2 idx=008792 GeodesicLength=0.09471285541222405 rxn_smarts="[O:1]=[C:2]1[C:3]([H:8])([H:9])[C:4]([H:10])([H:11])[C:5]([H:12])([H:13])[C:6]([H:14])=[C:7]1[H:15]>>[O:1]([C:2]1=[C:7]=[C:6]([H:14])[C:5]([H:12])([H:13])[C:4]([H:10])([H:11])[C:3]1([H:8])[H:9])[H:15]"
O        1.03547754      -2.38644656       0.58570234
C        0.55276849      -1.27496160       0.20754405
C       -0.86757005      -1.01784794      -0.11861353
C       -1.18342792       0.44777665       0.19427061
C       -0.12796705       1.39977880      -0.36816367
C        1.28746428       0.94441967      -0.10401238
C        1.61325392      -0.31575412       0.21969371
H       -0.97519581      -1.21881838      -1.19148384
H       -1.52322546      -1.71456896       0.40569959
H       -2.17193547       0.70529516      -0.19018078
H       -1.22370063       0.56848138       1.28068961
H       -0.25574082       1.51173094      -1.45335974
H       -0.27521224       2.40006621       0.04701011
H        2.06069820       1.70135741      -0.22218736
H        2.05431303      -1.75050864       0.70739126
15
Frame=3 idx=008792 GeodesicLength=0.14209713561356474 rxn_smarts="[O:1]=[C:2]1[C:3]([H:8])([H:9])[C:4]([H:10])([H:11])[C:5]([H:12])([H:13])[C:6]([H:14])=[C:7]1[H:15]>>[O:1]([C:2]1=[C:7]=[C:6]([H:14])[C:5]([H:12])([H:13])[C:4]([H:10])([H:11])[C:3]1([H:8])[H:9])[H:15]"
O        1.02770396      -2.37912074       0.62292618
C        0.55310260      -1.28355980       0.18975482
C       -0.86706570      -1.01972526      -0.13373349
C       -1.18022687       0.44294241       0.19692660
C       -0.12867181       1.40238011      -0.36101029
C        1.28837325       0.93862532      -0.12320518
C        1.61051789      -0.32257874       0.19507454
H       -0.97367247      -1.20739521      -1.20886212
H       -1.52371337      -1.72058090       0.38365528
H       -2.17075744       0.70476150      -0.17955163
H       -1.21525002       0.55115576       1.28484993
H       -0.26872219       1.53389524      -1.44239603
H       -0.26831471       2.39568569       0.07325112
H        2.06500403       1.68938003      -0.25667458
H        2.05169287      -1.72586542       0.75899486
15
Frame=4 idx=008792 GeodesicLength=0.18954207573072862 rxn_smarts="[O:1]=[C:2]1[C:3]([H:8])([H:9])[C:4]([H:10])([H:11])[C:5]([H:12])([H:13])[C:6]([H:14])=[C:7]1[H:15]>>[O:1]([C:2]1=[C:7]=[C:6]([H:14])[C:5]([H:12])([H:13])[C:4]([H:10])([H:11])[C:3]1([H:8])[H:9])[H:15]"
O        1.01924571      -2.37040743       0.65973779
C        0.55319395      -1.29243830       0.17418375
C       -0.86655994      -1.02167977      -0.14802785
C       -1.17712731       0.43813033       0.19927146
C       -0.12896258       1.40449936      -0.35392122
C        1.28912863       0.93258402      -0.14157405
C        1.60738055      -0.32947704       0.17245994
H       -0.97163860      -1.19657361      -1.22524663
H       -1.52449717      -1.72628571       0.36247379
H       -2.16937402       0.70402081      -0.17006617
H       -1.20759347       0.53452913       1.28847837
H       -0.28056006       1.55495472      -1.43120225
H       -0.26087972       2.39077145       0.09860985
H        2.06878229       1.67734724      -0.28949190
H        2.04946174      -1.69997519       0.80431513
15
Frame=5 idx=008792 GeodesicLength=0.23681741454381894 rxn_smarts="[O:1]=[C:2]1[C:3]([H:8])([H:9])[C:4]([H:10])([H:11])[C:5]([H:12])([H:13])[C:6]([H:14])=[C:7]1[H:15]>>[O:1]([C:2]1=[C:7]=[C:6]([H:14])[C:5]([H:12])([H:13])[C:4]([H:10])([H:11])[C:3]1([H:8])[H:9])[H:15]"
O        1.01022454      -2.36065246       0.69550868
C        0.55292197      -1.30112597       0.16085072
C       -0.86604438      -1.02353479      -0.16139245
C       -1.17413634       0.43326442       0.20126662
C       -0.12885210       1.40606606      -0.34695767
C        1.28969149       0.92630206      -0.15939018
C        1.60370587      -0.33606278       0.15176265
H       -0.96897070      -1.18614819      -1.24036635
H       -1.52554304      -1.73144179       0.34232515
H       -2.16770857       0.70284411      -0.16168587
H       -1.20084434       0.51850645       1.29137761
H       -0.29125960       1.57492667      -1.41973384
H       -0.25292681       2.38511444       0.12305724
H        2.07206432       1.66526314      -0.32054675
H        2.04767770      -1.67332136       0.84392444
15
Frame=6 idx=008792 GeodesicLength=0.2840835230456269 rxn_smarts="[O:1]=[C:2]1[C:3]([H:8])([H:9])[C:4]([H:10])([H:11])[C:5]([H:12])([H:13])[C:6]([H:14])=[C:7]1[H:15]>>[O:1]([C:2]1=[C:7]=[C:6]([H:14])[C:5]([H:12])([H:13])[C:4]([H:10])([H:11])[C:3]1([H:8])[H:9])[H:15]"
O        1.00077821      -2.34993482       0.73012316
C        0.55247750      -1.31004626       0.14933652
C       -0.86558843      -1.02545977      -0.17395873
C       -1.17133947       0.42857758       0.20300161
C       -0.12848014       1.40731784      -0.34016145
C        1.29007386       0.91990893      -0.17626853
C        1.59979101      -0.34281703       0.13268952
H       -0.96606113      -1.17639469      -1.25459761
H       -1.52674743      -1.73633148       0.32324531
H       -2.16602468       0.70172333      -0.15435974
H       -1.19491683       0.50335543       1.29393629
H       -0.30092715       1.59382816      -1.40832597
H       -0.24477307       2.37923602       0.14643357
H        2.07490069       1.65331616      -0.34965909
H        2.04683706      -1.64627941       0.87856512
15
Frame=7 idx=008792 GeodesicLength=0.33139656596519645 rxn_smarts="[O:1]=[C:2]1[C:3]([H:8])([H:9])[C:4]([H:10])([H:11])[C:5]([H:12])([H:13])[C:6]([H:14])=[C:7]1[H:15]>>[O:1]([C:2]1=[C:7]=[C:6]([H:14])[C:5]([H:12])([H:13])[C:4]([H:10])([H:11])[C:3]1([H:8])[H:9])[H:15]"
O        0.99096348      -2.33844655       0.76355085
C        0.55180623      -1.31893695       0.13939750
C       -0.86516809      -1.02736219      -0.18585030
C       -1.16870948       0.42397276       0.20448667
C       -0.12786559       1.40826395      -0.33343463
C        1.29025907       0.91342872      -0.19247672
C        1.59555802      -0.34948457       0.11510172
H       -0.96280769      -1.16706563      -1.26798245
H       -1.52808969      -1.74091502       0.30500773
H       -2.16426496       0.70049817      -0.14794472
H       -1.18977140       0.48881467       1.29607650
H       -0.30970362       1.61191734      -1.39676878
H       -0.23635658       2.37298074       0.16906931
H        2.07733658       1.64137142      -0.37758412
H        2.04681371      -1.61903688       0.90935142
15
Frame=8 idx=008792 GeodesicLength=0.37867628782280105 rxn_smarts="[O:1]=[C:2]1[C:3]([H:8])([H:9])[C:4]([H:10])([H:11])[C:5]([H:12])([H:13])[C:6]([H:14])=[C:7]1[H:15]>>[O:1]([C:2]1=[C:7]=[C:6]([H:14])[C:5]([H:12])([H:13])[C:4]([H:10])([H:11])[C:3]1([H:8])[H:9])[H:15]"
O        0.98091676      -2.32641436       0.79577162
C        0.55096449      -1.32781768       0.13082811
C       -0.86476043      -1.02925185      -0.19718331
C       -1.16624916       0.41946577       0.20575797
C       -0.12705904       1.40898862      -0.32672398
C        1.29025918       0.90687357      -0.20809146
C        1.59105677      -0.35606848       0.09891165
H       -0.95921706      -1.15809870      -1.28068621
H       -1.52951310      -1.74526039       0.28746967
H       -2.16247347       0.69923424      -0.14235202
H       -1.18534842       0.47481404       1.29789092
H       -0.31774308       1.62939156      -1.38504593
H       -0.22771543       2.36643023       0.19116137
H        2.07940718       1.62934115      -0.40478288
H        2.04747478      -1.59162773       0.93707449
15
Frame=9 idx=008792 GeodesicLength=0.4259537335000103 rxn_smarts="[O:1]=[C:2]1[C:3]([H:8])([H:9])[C:4]([H:10])([H:11])[C:5]([H:12])([H:13])[C:6]([H:14])=[C:7]1[H:15]>>[O:1]([C:2]1=[C:7]=[C:6]([H:14])[C:5]([H:12])([H:13])[C:4]([H:10])([H:11])[C:3]1([H:8])[H:9])[H:15]"
O        0.97060838      -2.31382841       0.82684006
C        0.54997386      -1.33666135       0.12338195
C       -0.86434694      -1.03111681      -0.20809012
C       -1.16392094       0.41499455       0.20685161
C       -0.12605480       1.40949130      -0.31994288
C        1.29009231       0.90023494      -0.22327776
C        1.58633214      -0.36256767       0.08389857
H       -0.95528332      -1.14936867      -1.29282831
H       -1.53099370      -1.74941004       0.27041825
H       -2.16063473       0.69788899      -0.13743664
H       -1.18154137       0.46116314       1.29940218
H       -0.32515501       1.64641483      -1.37299631
H       -0.21876514       2.35947131       0.21296043
H        2.08112398       1.61714985      -0.43177119
H        2.04856528      -1.56385596       0.96259017
15
Frame=10 idx=008792 GeodesicLength=0.47329062350212686 rxn_smarts="[O:1]=[C:2]1[C:3]([H:8])([H:9])[C:4]([H:10])([H:11])[C:5]([H:12])([H:13])[C:6]([H:14])=[C:7]1[H:15]>>[O:1]([C:2]1=[C:7]=[C:6]([H:14])[C:5]([H:12])([H:13])[C:4]([H:10])([H:11])[C:3]1([H:8])[H:9])[H:15]"
O        0.96015807      -2.30097492       0.85665516
C        0.54887427      -1.34547904       0.11698000
C       -0.86389757      -1.03296560      -0.21861319
C       -1.16172793       0.41059835       0.20778849
C       -0.12488276       1.40984081      -0.31305998
C        1.28974441       0.89352549      -0.23800192
C        1.58140584      -0.36896816       0.07013658
H       -0.95097925      -1.14086087      -1.30448973
H       -1.53247604      -1.75340655       0.25381008
H       -2.15876050       0.69653771      -0.13317738
H       -1.17835214       0.44786926       1.30067518
H       -0.33197563       1.66308802      -1.36063296
H       -0.20955719       2.35220613       0.23454407
H        2.08243139       1.60468282      -0.45885838
H        2.04999502      -1.53569345       0.98624397
15
Frame=11 idx=008792 GeodesicLength=0.5206462446094338 rxn_smarts="[O:1]=[C:2]1[C:3]([H:8])([H:9])[C:4]([H:10])([H:11])[C:5]([H:12])([H:13])[C:6]([H:14])=[C:7]1[H:15]>>[O:1]([C:2]1=[C:7]=[C:6]([H:14])[C:5]([H:12])([H:13])[C:4]([H:10])([H:11])[C:3]1([H:8])[H:9])[H:15]"
O        0.94954741      -2.28781136       0.88519029
C        0.54762645      -1.35419624       0.11152782
C       -0.86348772      -1.03478777      -0.22863934
C       -1.15968266       0.40630688       0.20854435
C       -0.12356113       1.40999981      -0.30625824
C        1.28923760       0.88678612      -0.25221436
C        1.57629570      -0.37528100       0.05734491
H       -0.94653767      -1.13269724      -1.31551317
H       -1.53398292      -1.75717406       0.23794021
H       -2.15687647       0.69518704      -0.12958029
H       -1.17575092       0.43507864       1.30166996
H       -0.33814276       1.67915320      -1.34821591
H       -0.20022862       2.34468829       0.25552641
H        2.08341967       1.59227282      -0.48493091
H        2.05212404      -1.50752513       1.00760827
15
Frame=12 idx=008792 GeodesicLength=0.5679884622026286 rxn_smarts="[O:1]=[C:2]1[C:3]([H:8])([H:9])[C:4]([H:10])([H:11])[C:5]([H:12])([H:13])[C:6]([H:14])=[C:7]1[H:15]>>[O:1]([C:2]1=[C:7]=[C:6]([H:14])[C:5]([H:12])([H:13])[C:4]([H:10])([H:11])[C:3]1([H:8])[H:9])[H:15]"
O        0.93884702      -2.27450443       0.91258185
C        0.54626282      -1.36282429       0.10694594
C       -0.86309316      -1.03658298      -0.23824486
C       -1.15778749       0.40212871       0.20913661
C       -0.12211314       1.41001989      -0.29947966
C        1.28856431       0.88004535      -0.26591651
C        1.57101974      -0.38149392       0.04552049
H       -0.94191210      -1.12482127      -1.32600750
H       -1.53550066      -1.76074601       0.22267731
H       -2.15499546       0.69387238      -0.12661350
H       -1.17373205       0.42273900       1.30242901
H       -0.34371026       1.69474154      -1.33568856
H       -0.19079742       2.33695385       0.27604694
H        2.08406023       1.57984363      -0.51040389
H        2.05488764      -1.47937145       1.02701633
15
Frame=13 idx=008792 GeodesicLength=0.6153759102259936 rxn_smarts="[O:1]=[C:2]1[C:3]([H:8])([H:9])[C:4]([H:10])([H:11])[C:5]([H:12])([H:13])[C:6]([H:14])=[C:7]1[H:15]>>[O:1]([C:2]1=[C:7]=[C:6]([H:14])[C:5]([H:12])([H:13])[C:4]([H:10])([H:11])[C:3]1([H:8])[H:9])[H:15]"
O        0.92798979      -2.26104138       0.93891740
C        0.54479493      -1.37136060       0.10312447
C       -0.86268424      -1.03835749      -0.24751673
C       -1.15601286       0.39802593       0.20958698
C       -0.12053347       1.40991256      -0.29264425
C        1.28774112       0.87328696      -0.27919281
C        1.56560198      -0.38760216       0.03459337
H       -0.93705386      -1.11716716      -1.33605701
H       -1.53700165      -1.76417349       0.20785658
H       -2.15309147       0.69256810      -0.12420885
H       -1.17223829       0.41073109       1.30297120
H       -0.34875020       1.70999163      -1.32293598
H       -0.18120811       2.32895010       0.29631411
H        2.08434077       1.56728461      -0.53572164
H        2.05810556      -1.45104871       1.04491315
15
Frame=14 idx=008792 GeodesicLength=0.6628273749563689 rxn_smarts="[O:1]=[C:2]1[C:3]([H:8])([H:9])[C:4]([H:10])([H:11])[C:5]([H:12])([H:13])[C:6]([H:14])=[C:7]1[H:15]>>[O:1]([C:2]1=[C:7]=[C:6]([H:14])[C:5]([H:12])([H:13])[C:4]([H:10])([H:11])[C:3]1([H:8])[H:9])[H:15]"
O        0.91698944      -2.24746705       0.96434120
C        0.54324970      -1.37981268       0.10000628
C       -0.86224352      -1.04010684      -0.25651876
C       -1.15436257       0.39399126       0.20990387
C       -0.11882639       1.40969836      -0.28569960
C        1.28677195       0.86650434      -0.29209689
C        1.56006976      -0.39361441       0.02451224
H       -0.93192209      -1.10967654      -1.34574530
H       -1.53848515      -1.76747771       0.19336318
H       -2.15117797       0.69128847      -0.12234620
H       -1.17127409       0.39899070       1.30331918
H       -0.35331304       1.72501631      -1.30988059
H       -0.17143205       2.32064544       0.31647336
H        2.08422943       1.55451557      -0.56119367
H        2.06172659      -1.42249522       1.06156169
15
Frame=15 idx=008792 GeodesicLength=0.7102865694687559 rxn_smarts="[O:1]=[C:2]1[C:3]([H:8])([H:9])[C:4]([H:10])([H:11])[C:5]([H:12])([H:13])[C:6]([H:14])=[C:7]1[H:15]>>[O:1]([C:2]1=[C:7]=[C:6]([H:14])[C:5]([H:12])([H:13])[C:4]([H:10])([H:11])[C:3]1([H:8])[H:9])[H:15]"
O        0.90588145      -2.23386049       0.98880069
C        0.54161434      -1.38815064       0.09754454
C       -0.86179866      -1.04182857      -0.26519832
C       -1.15283938       0.39005408       0.21008416
C       -0.11701254       1.40937913      -0.27873061
C        1.28566332       0.85973032      -0.30455011
C        1.55442439      -0.39952302       0.01521586
H       -0.92661917      -1.10241061      -1.35500927
H       -1.53995159      -1.77063150       0.17933127
H       -2.14926236       0.69005731      -0.12102100
H       -1.17082013       0.38760265       1.30347003
H       -0.35736206       1.73968676      -1.29667429
H       -0.16157536       2.31212294       0.33632166
H        2.08375856       1.54166840      -0.58634295
H        2.06589919      -1.39389676       1.07675833
15
Frame=16 idx=008792 GeodesicLength=0.7577296044303852 rxn_smarts="[O:1]=[C:2]1[C:3]([H:8])([H:9])[C:4]([H:10])([H:11])[C:5]([H:12])([H:13])[C:6]([H:14])=[C:7]1[H:15]>>[O:1]([C:2]1=[C:7]=[C:6]([H:14])[C:5]([H:12])([H:13])[C:4]([H:10])([H:11])[C:3]1([H:8])[H:9])[H:15]"
O        0.89469102      -2.22028603       1.01231444
C        0.53987929      -1.39636334       0.09569016
C       -0.86137355      -1.04352341      -0.27352760
C       -1.15144586       0.38623557       0.21012764
C       -0.11511268       1.40895901      -0.27180639
C        1.28442059       0.85298954      -0.31652114
C        1.54866515      -0.40532888       0.00662770
H       -0.92122613      -1.09541021      -1.36382068
H       -1.54141066      -1.77361855       0.16584607
H       -2.14735395       0.68889572      -0.12021683
H       -1.17085302       0.37662310       1.30342833
H       -0.36088889       1.75391956      -1.28343661
H       -0.15172192       2.30344749       0.35571606
H        2.08297624       1.52886047      -0.61079076
H        2.07075436      -1.36540003       1.09036961
