11
Frame=0 idx=000755 GeodesicLength=0.0 rxn_smarts="[C:1]([c:2]1[n:3][n:4]([H:10])[n:5][c:6]1[H:11])([H:7])([H:8])[H:9]>>[C:1]([C:2]1=[N:5][C@@:6]1(/[N:3]=[N:4]/[H:10])[H:11])([H:7])([H:8])[H:9]"
C       -1.66688024      -0.30297706      -0.09998179
C       -0.41534615       0.41861188      -0.00853330
N        0.92856811      -1.17024926       1.01989355
N        1.73054195      -0.61244167       0.32931239
N        1.48345944       0.33717639      -0.65976010
C        0.49732306       1.28022909      -0.23721421
H       -1.87261402      -0.86053030       0.81219231
H       -2.48446203       0.38109037      -0.34425842
H       -1.57989345      -1.02137242      -0.91980532
H        2.74206864      -0.80240524       0.34082307
H        0.63723470       2.35286822      -0.23266820
11
Frame=1 idx=000755 GeodesicLength=0.12528178151557937 rxn_smarts="[C:1]([c:2]1[n:3][n:4]([H:10])[n:5][c:6]1[H:11])([H:7])([H:8])[H:9]>>[C:1]([C:2]1=[N:5][C@@:6]1(/[N:3]=[N:4]/[H:10])[H:11])([H:7])([H:8])[H:9]"
C       -1.67006244      -0.30890511      -0.10956188
C       -0.40468132       0.39193652      -0.03646153
N        0.93319951      -1.09401996       1.04507889
N        1.73741796      -0.63819953       0.27909984
N        1.46356896       0.34916285      -0.69401305
C        0.51547626       1.27554913      -0.16599825
H       -1.90335218      -0.80908770       0.82909516
H       -2.46972537       0.37527532      -0.40634702
H       -1.58082429      -1.07499137      -0.88446030
H        2.74877539      -0.81716559       0.31838721
H        0.63020752       2.35044544      -0.17481907
11
Frame=2 idx=000755 GeodesicLength=0.251556101987784 rxn_smarts="[C:1]([c:2]1[n:3][n:4]([H:10])[n:5][c:6]1[H:11])([H:7])([H:8])[H:9]>>[C:1]([C:2]1=[N:5][C@@:6]1(/[N:3]=[N:4]/[H:10])[H:11])([H:7])([H:8])[H:9]"
C       -1.67149455      -0.31347410      -0.11808803
C       -0.39322457       0.36746143      -0.06304360
N        0.93977840      -1.02422499       1.05826135
N        1.74280064      -0.65675159       0.23832897
N        1.44503044       0.36476303      -0.72309054
C        0.52970655       1.26669465      -0.10631586
H       -1.93146225      -0.75224130       0.84408118
H       -2.45300071       0.36565592      -0.46859821
H       -1.58140378      -1.12618050      -0.84348483
H        2.75207926      -0.83496562       0.29589860
H        0.62119057       2.34326306      -0.11394902
11
Frame=3 idx=000755 GeodesicLength=0.37821414510883267 rxn_smarts="[C:1]([c:2]1[n:3][n:4]([H:10])[n:5][c:6]1[H:11])([H:7])([H:8])[H:9]>>[C:1]([C:2]1=[N:5][C@@:6]1(/[N:3]=[N:4]/[H:10])[H:11])([H:7])([H:8])[H:9]"
C       -1.67217930      -0.31698053      -0.12549811
C       -0.38152665       0.34458974      -0.08605848
N        0.94702469      -0.96257374       1.06237742
N        1.74872910      -0.66957382       0.20490388
N        1.42642132       0.38132756      -0.74994324
C        0.54148676       1.25515308      -0.05612701
H       -1.95814139      -0.69437132       0.85530294
H       -2.43551380       0.35377323      -0.52757415
H       -1.58318413      -1.17224415      -0.79999347
H        2.75516792      -0.85207176       0.27670595
H        0.61171549       2.33297171      -0.05409574
11
Frame=4 idx=000755 GeodesicLength=0.5051791045002612 rxn_smarts="[C:1]([c:2]1[n:3][n:4]([H:10])[n:5][c:6]1[H:11])([H:7])([H:8])[H:9]>>[C:1]([C:2]1=[N:5][C@@:6]1(/[N:3]=[N:4]/[H:10])[H:11])([H:7])([H:8])[H:9]"
C       -1.67225642      -0.31964174      -0.13195903
C       -0.36974011       0.32285341      -0.10529084
N        0.95459730      -0.90826320       1.05984100
N        1.75530147      -0.67862575       0.17557551
N        1.40703850       0.39908942      -0.77521198
C        0.55166270       1.24204843      -0.01219374
H       -1.98443067      -0.63432822       0.86302251
H       -2.41675459       0.33902624      -0.58537570
H       -1.58537637      -1.21433114      -0.75313048
H        2.75830277      -0.86835012       0.25977488
H        0.60165542       2.32052268       0.00494787
11
Frame=5 idx=000755 GeodesicLength=0.6324077033731152 rxn_smarts="[C:1]([c:2]1[n:3][n:4]([H:10])[n:5][c:6]1[H:11])([H:7])([H:8])[H:9]>>[C:1]([C:2]1=[N:5][C@@:6]1(/[N:3]=[N:4]/[H:10])[H:11])([H:7])([H:8])[H:9]"
C       -1.67188474      -0.32171449      -0.13760948
C       -0.35794680       0.30182608      -0.12098361
N        0.96238283      -0.86028468       1.05268293
N        1.76272533      -0.68497729       0.14900464
N        1.38649676       0.41763844      -0.79931977
C        0.56099128       1.22782754       0.02708409
H       -2.01025407      -0.57341503       0.86683786
H       -2.39678490       0.32202005      -0.64090273
H       -1.58861814      -1.25194825      -0.70427348
H        2.76185236      -0.88324831       0.24539692
H        0.59104010       2.30627593       0.06208264
11
Frame=6 idx=000755 GeodesicLength=0.7597417276301696 rxn_smarts="[C:1]([c:2]1[n:3][n:4]([H:10])[n:5][c:6]1[H:11])([H:7])([H:8])[H:9]>>[C:1]([C:2]1=[N:5][C@@:6]1(/[N:3]=[N:4]/[H:10])[H:11])([H:7])([H:8])[H:9]"
C       -1.67118767      -0.32326545      -0.14264125
C       -0.34619551       0.28140171      -0.13378202
N        0.97030865      -0.81791240       1.04193100
N        1.77102515      -0.68907342       0.12410136
N        1.36481671       0.43754526      -0.82214968
C        0.56976588       1.21305599       0.06305737
H       -2.03582141      -0.51073861       0.86679172
H       -2.37560712       0.30199114      -0.69538097
H       -1.59257555      -1.28596802      -0.65246044
H        2.76569412      -0.89773941       0.23242859
H        0.57977674       2.29070322       0.11810430
11
Frame=7 idx=000755 GeodesicLength=0.8871534093817369 rxn_smarts="[C:1]([c:2]1[n:3][n:4]([H:10])[n:5][c:6]1[H:11])([H:7])([H:8])[H:9]>>[C:1]([C:2]1=[N:5][C@@:6]1(/[N:3]=[N:4]/[H:10])[H:11])([H:7])([H:8])[H:9]"
C       -1.67020272      -0.32441686      -0.14715862
C       -0.33449173       0.26142424      -0.14421914
N        0.97837191      -0.78033458       1.02847717
N        1.78021934      -0.69122151       0.10025712
N        1.34193888       0.45892389      -0.84369979
C        0.57822305       1.19796673       0.09646201
H       -2.06103869      -0.44639472       0.86265319
H       -2.35321702       0.27872312      -0.74874391
H       -1.59742053      -1.31643341      -0.59773696
H        2.76975443      -0.91217791       0.22047578
H        0.56786308       2.27394101       0.17323315
11
Frame=8 idx=000755 GeodesicLength=1.0146520638580654 rxn_smarts="[C:1]([c:2]1[n:3][n:4]([H:10])[n:5][c:6]1[H:11])([H:7])([H:8])[H:9]>>[C:1]([C:2]1=[N:5][C@@:6]1(/[N:3]=[N:4]/[H:10])[H:11])([H:7])([H:8])[H:9]"
C       -1.66893435      -0.32532187      -0.15125101
C       -0.32278534       0.24163503      -0.15286766
N        0.98658535      -0.74679761       1.01302619
N        1.79039956      -0.69154882       0.07721359
N        1.31784911       0.48172186      -0.86399067
C        0.58648171       1.18264880       0.12763689
H       -2.08552690      -0.38081057       0.85424147
H       -2.32973210       0.25239375      -0.80034213
H       -1.60359063      -1.34316553      -0.54066867
H        2.77400597      -0.92673092       0.20952090
H        0.55524761       2.25597588       0.22748110
11
Frame=9 idx=000755 GeodesicLength=1.1422087460294839 rxn_smarts="[C:1]([c:2]1[n:3][n:4]([H:10])[n:5][c:6]1[H:11])([H:7])([H:8])[H:9]>>[C:1]([C:2]1=[N:5][C@@:6]1(/[N:3]=[N:4]/[H:10])[H:11])([H:7])([H:8])[H:9]"
C       -1.66736255      -0.32596096      -0.15501596
C       -0.31107200       0.22214513      -0.16011496
N        0.99495554      -0.71680668       0.99586819
N        1.80146503      -0.69010651       0.05446195
N        1.29252913       0.50638661      -0.88282749
C        0.59460487       1.16732069       0.15721231
H       -2.10933327      -0.31330892       0.84119524
H       -2.30506831       0.22201162      -0.85095916
H       -1.61072772      -1.36637767      -0.48022958
H        2.77810058      -0.94217802       0.19871683
H        0.54190869       2.23687470       0.28169264
11
Frame=10 idx=000755 GeodesicLength=1.2698158823607253 rxn_smarts="[C:1]([c:2]1[n:3][n:4]([H:10])[n:5][c:6]1[H:11])([H:7])([H:8])[H:9]>>[C:1]([C:2]1=[N:5][C@@:6]1(/[N:3]=[N:4]/[H:10])[H:11])([H:7])([H:8])[H:9]"
C       -1.66545948      -0.32640224      -0.15850947
C       -0.29930283       0.20287088      -0.16632629
N        1.00349492      -0.68982955       0.97736776
N        1.81346402      -0.68686054       0.03188329
N        1.26593457       0.53295191      -0.90013372
C        0.60263427       1.15204708       0.18540533
H       -2.13215375      -0.24420812       0.82315679
H       -2.27931806       0.18741617      -0.90014116
H       -1.61898718      -1.38573971      -0.41659322
H        2.78185236      -0.95880543       0.18789934
H        0.52784116       2.21655956       0.33599134
11
Frame=11 idx=000755 GeodesicLength=1.3974653179979315 rxn_smarts="[C:1]([c:2]1[n:3][n:4]([H:10])[n:5][c:6]1[H:11])([H:7])([H:8])[H:9]>>[C:1]([C:2]1=[N:5][C@@:6]1(/[N:3]=[N:4]/[H:10])[H:11])([H:7])([H:8])[H:9]"
C       -1.66317200      -0.32673038      -0.16179981
C       -0.28741198       0.18372720      -0.17188329
N        1.01217579      -0.66532547       0.95786374
N        1.82647136      -0.68169183       0.00953998
N        1.23803962       0.56137841      -0.91583620
C        0.61056607       1.13689507       0.21228801
H       -2.15347851      -0.17413765       0.79988742
H       -2.25273171       0.14872996      -0.94715941
H       -1.62849102      -1.40086329      -0.35025244
H        2.78500541      -0.97693624       0.17704499
H        0.51302698       2.19495422       0.39030702
11
Frame=12 idx=000755 GeodesicLength=1.5251455912271412 rxn_smarts="[C:1]([c:2]1[n:3][n:4]([H:10])[n:5][c:6]1[H:11])([H:7])([H:8])[H:9]>>[C:1]([C:2]1=[N:5][C@@:6]1(/[N:3]=[N:4]/[H:10])[H:11])([H:7])([H:8])[H:9]"
C       -1.66046407      -0.32698395      -0.16492199
C       -0.27534056       0.16474380      -0.17706058
N        1.02100807      -0.64284561       0.93756831
N        1.84055333      -0.67444547      -0.01259023
N        1.20882058       0.59177568      -0.92979169
C        0.61840036       1.12198429       0.23805367
H       -2.17306247      -0.10330811       0.77107357
H       -2.22540625       0.10557422      -0.99182594
H       -1.63916815      -1.41143736      -0.28119332
H        2.78719723      -0.99705885       0.16577557
H        0.49746192       2.17200137       0.44491264
11
Frame=13 idx=000755 GeodesicLength=1.6528523061108602 rxn_smarts="[C:1]([c:2]1[n:3][n:4]([H:10])[n:5][c:6]1[H:11])([H:7])([H:8])[H:9]>>[C:1]([C:2]1=[N:5][C@@:6]1(/[N:3]=[N:4]/[H:10])[H:11])([H:7])([H:8])[H:9]"
C       -1.65720172      -0.32703086      -0.16777592
C       -0.26306003       0.14626171      -0.18169251
N        1.03012997      -0.62221307       0.91646153
N        1.85547804      -0.66511597      -0.03500004
N        1.17806573       0.62469091      -0.94154751
C        0.62622494       1.10743583       0.26338498
H       -2.19166062      -0.03094080       0.73546513
H       -2.19652625       0.05609399      -1.03496275
H       -1.65035745      -1.41693750      -0.20780913
H        2.78770382      -1.01978739       0.15270777
H        0.48120358       2.14754314       0.50076845
11
Frame=14 idx=000755 GeodesicLength=1.7805584090423545 rxn_smarts="[C:1]([c:2]1[n:3][n:4]([H:10])[n:5][c:6]1[H:11])([H:7])([H:8])[H:9]>>[C:1]([C:2]1=[N:5][C@@:6]1(/[N:3]=[N:4]/[H:10])[H:11])([H:7])([H:8])[H:9]"
C       -1.65329805      -0.32712595      -0.17067181
C       -0.25042899       0.12793421      -0.18651264
N        1.03923920      -0.60262682       0.89516203
N        1.87160497      -0.65331814      -0.05656568
N        1.14587275       0.65932150      -0.95128153
C        0.63386142       1.09331533       0.28753502
H       -2.20719109       0.04019086       0.69402728
H       -2.16752762       0.00273810      -1.07401664
H       -1.66251281      -1.41687464      -0.13306966
H        2.78614853      -1.04515718       0.13897246
H        0.46423168       2.12160273       0.55642119
11
Frame=15 idx=000755 GeodesicLength=1.9082106179733578 rxn_smarts="[C:1]([c:2]1[n:3][n:4]([H:10])[n:5][c:6]1[H:11])([H:7])([H:8])[H:9]>>[C:1]([C:2]1=[N:5][C@@:6]1(/[N:3]=[N:4]/[H:10])[H:11])([H:7])([H:8])[H:9]"
C       -1.64872065      -0.32727037      -0.17350249
C       -0.23737914       0.11003249      -0.19141392
N        1.04843774      -0.58369741       0.87390091
N        1.88892564      -0.63901220      -0.07730742
N        1.11226209       0.69582778      -0.95870672
C        0.64144759       1.07986766       0.31089619
H       -2.22026985       0.10992456       0.64624483
H       -2.13805534      -0.05536003      -1.10921114
H       -1.67512539      -1.41089197      -0.05666374
H        2.78174102      -1.07368913       0.12348429
H        0.44673629       2.09426862       0.61227921
11
Frame=16 idx=000755 GeodesicLength=2.035804961490684 rxn_smarts="[C:1]([c:2]1[n:3][n:4]([H:10])[n:5][c:6]1[H:11])([H:7])([H:8])[H:9]>>[C:1]([C:2]1=[N:5][C@@:6]1(/[N:3]=[N:4]/[H:10])[H:11])([H:7])([H:8])[H:9]"
C       -1.64330155      -0.32733213      -0.17609312
C       -0.22381615       0.09266403      -0.19635819
N        1.05772228      -0.56534645       0.85274899
N        1.90725496      -0.62243183      -0.09720644
N        1.07709136       0.73412144      -0.96347151
C        0.64902420       1.06704598       0.33370655
H       -2.23113066       0.17805410       0.59143175
H       -2.10748046      -0.11870899      -1.14025143
H       -1.68787025      -1.39834983       0.02150794
H        2.77374042      -1.10496843       0.10542303
H        0.42876585       2.06525210       0.66856242
