14
Frame=0 idx=002987 GeodesicLength=0.0 rxn_smarts="[C:1]([C@@:2]1([H:10])[O:3][C@:4]1([C:5]([O:6][H:14])([H:12])[H:13])[H:11])([H:7])([H:8])[H:9]>>[C:1]([C@@:2]([O+:3]=[C-:4][H:11])([C:5]([O:6][H:14])([H:12])[H:13])[H:10])([H:7])([H:8])[H:9]"
C        1.64122961       0.45630870      -0.15722574
C        0.55385377      -0.50009748       0.25637292
O        0.43631708      -0.53663507       1.63841634
C       -0.90469137      -0.43373864       1.27035281
C       -0.87902340       0.35748380      -0.53974292
O       -2.15932590      -0.09888550      -0.79017310
H        1.44341399       1.46352090       0.20838092
H        1.76486961       0.47870075      -1.24020245
H        2.57132136       0.10971159       0.29512746
H        0.60355485      -1.49132559      -0.19570042
H       -1.22335923      -1.45914448       0.96607504
H       -0.36968590       0.22498389      -1.49854728
H       -0.81639737       1.40136711      -0.23681674
H       -2.66207711       0.02774999       0.02368315
14
Frame=1 idx=002987 GeodesicLength=0.058778601556226905 rxn_smarts="[C:1]([C@@:2]1([H:10])[O:3][C@:4]1([C:5]([O:6][H:14])([H:12])[H:13])[H:11])([H:7])([H:8])[H:9]>>[C:1]([C@@:2]([O+:3]=[C-:4][H:11])([C:5]([O:6][H:14])([H:12])[H:13])[H:10])([H:7])([H:8])[H:9]"
C        1.64886674       0.45615032      -0.15627980
C        0.55795582      -0.49884504       0.25151615
O        0.42653024      -0.52249605       1.63595907
C       -0.90902181      -0.45285280       1.25727641
C       -0.88462200       0.35551798      -0.54243010
O       -2.17317188      -0.08485391      -0.78861158
H        1.44596091       1.46531917       0.20114696
H        1.78150654       0.47266597      -1.23833775
H        2.57661217       0.11493394       0.30484028
H        0.62411451      -1.49328095      -0.19142367
H       -1.22346166      -1.48618754       0.98309165
H       -0.38801662       0.23020457      -1.50909575
H       -0.81511809       1.39887856      -0.23728741
H       -2.66813486       0.04484579       0.02963555
14
Frame=2 idx=002987 GeodesicLength=0.1175041366176666 rxn_smarts="[C:1]([C@@:2]1([H:10])[O:3][C@:4]1([C:5]([O:6][H:14])([H:12])[H:13])[H:11])([H:7])([H:8])[H:9]>>[C:1]([C@@:2]([O+:3]=[C-:4][H:11])([C:5]([O:6][H:14])([H:12])[H:13])[H:10])([H:7])([H:8])[H:9]"
C        1.65655868       0.45602400      -0.15519065
C        0.56205766      -0.49769166       0.24625055
O        0.41606214      -0.50843127       1.63280639
C       -0.91318068      -0.47255331       1.24344125
C       -0.89031428       0.35345381      -0.54549185
O       -2.18717657      -0.07035596      -0.78678690
H        1.44838403       1.46708628       0.19384918
H        1.79868143       0.46668450      -1.23615642
H        2.58170648       0.12032795       0.31505184
H        0.64491390      -1.49513504      -0.18714997
H       -1.22328979      -1.51338671       1.00134865
H       -0.40683413       0.23548932      -1.51994988
H       -0.81376113       1.39623108      -0.23811040
H       -2.67380774       0.06225700       0.03608822
14
Frame=3 idx=002987 GeodesicLength=0.1761868035316747 rxn_smarts="[C:1]([C@@:2]1([H:10])[O:3][C@:4]1([C:5]([O:6][H:14])([H:12])[H:13])[H:11])([H:7])([H:8])[H:9]>>[C:1]([C@@:2]([O+:3]=[C-:4][H:11])([C:5]([O:6][H:14])([H:12])[H:13])[H:10])([H:7])([H:8])[H:9]"
C        1.66430494       0.45593499      -0.15394806
C        0.56616151      -0.49665155       0.24054031
O        0.40487446      -0.49447698       1.62890474
C       -0.91715604      -0.49290094       1.22878528
C       -0.89610333       0.35129122      -0.54895611
O       -2.20133142      -0.05537184      -0.78468307
H        1.45068087       1.46882087       0.18650162
H        1.81641967       0.46077974      -1.23363559
H        2.58658148       0.12589918       0.32578781
H        0.66595657      -1.49688864      -0.18290406
H       -1.22286034      -1.54066382       1.02097747
H       -0.42616100       0.24084896      -1.53113403
H       -0.81231744       1.39342180      -0.23930716
H       -2.67904992       0.07995702       0.04307086
14
Frame=4 idx=002987 GeodesicLength=0.23482424709190464 rxn_smarts="[C:1]([C@@:2]1([H:10])[O:3][C@:4]1([C:5]([O:6][H:14])([H:12])[H:13])[H:11])([H:7])([H:8])[H:9]>>[C:1]([C@@:2]([O+:3]=[C-:4][H:11])([C:5]([O:6][H:14])([H:12])[H:13])[H:10])([H:7])([H:8])[H:9]"
C        1.67210102       0.45588627      -0.15253889
C        0.57027249      -0.49573977       0.23434442
O        0.39292719      -0.48067691       1.62418631
C       -0.92092991      -0.51396220       1.21323074
C       -0.90199202       0.34902726      -0.55285141
O       -2.21562220      -0.03988152      -0.78227810
H        1.45284019       1.47051435       0.17912183
H        1.83474444       0.45497865      -1.23074257
H        2.59120816       0.13164921       0.33707466
H        0.68725353      -1.49853686      -0.17871693
H       -1.22219408      -1.56790860       1.04212278
H       -0.44602110       0.24629543      -1.54266739
H       -0.81078154       1.39044038      -0.24090056
H       -2.68380616       0.09791429       0.05061510
14
Frame=5 idx=002987 GeodesicLength=0.2934169004037134 rxn_smarts="[C:1]([C@@:2]1([H:10])[O:3][C@:4]1([C:5]([O:6][H:14])([H:12])[H:13])[H:11])([H:7])([H:8])[H:9]>>[C:1]([C@@:2]([O+:3]=[C-:4][H:11])([C:5]([O:6][H:14])([H:12])[H:13])[H:10])([H:7])([H:8])[H:9]"
C        1.67994311       0.45588228      -0.15094909
C        0.57439771      -0.49497382       0.22761690
O        0.38017800      -0.46708327       1.61857744
C       -0.92448018      -0.53581532       1.19669220
C       -0.90798269       0.34665857      -0.55720835
O       -2.23003111      -0.02386953      -0.77954713
H        1.45485192       1.47215922       0.17173272
H        1.85368066       0.44931500      -1.22744348
H        2.59555607       0.13757852       0.34893936
H        0.70881719      -1.50007638      -0.17462677
H       -1.22132894      -1.59497879       1.06494415
H       -0.46643959       0.25184398      -1.55457163
H       -0.80914711       1.38727594      -0.24291247
H       -2.68801504       0.11608359       0.05875616
14
Frame=6 idx=002987 GeodesicLength=0.35196499187994656 rxn_smarts="[C:1]([C@@:2]1([H:10])[O:3][C@:4]1([C:5]([O:6][H:14])([H:12])[H:13])[H:11])([H:7])([H:8])[H:9]>>[C:1]([C@@:2]([O+:3]=[C-:4][H:11])([C:5]([O:6][H:14])([H:12])[H:13])[H:10])([H:7])([H:8])[H:9]"
C        1.68782688       0.45592874      -0.14916283
C        0.57854799      -0.49437409       0.22030566
O        0.36658329      -0.45375952       1.61199509
C       -0.92777765      -0.55855349       1.17907230
C       -0.91407690       0.34417919      -0.56205940
O       -2.24453650      -0.00732429      -0.77645881
H        1.45670336       1.47374743       0.16436257
H        1.87325431       0.44383016      -1.22370056
H        2.59959179       0.14368771       0.36141117
H        0.73066585      -1.50150408      -0.17067983
H       -1.22032419      -1.62168986       1.08961310
H       -0.48744425       0.25750990      -1.56686923
H       -0.80740747       1.38391366      -0.24536473
H       -2.69160651       0.13440854       0.06753549
14
Frame=7 idx=002987 GeodesicLength=0.41046934912163935 rxn_smarts="[C:1]([C@@:2]1([H:10])[O:3][C@:4]1([C:5]([O:6][H:14])([H:12])[H:13])[H:11])([H:7])([H:8])[H:9]>>[C:1]([C@@:2]([O+:3]=[C-:4][H:11])([C:5]([O:6][H:14])([H:12])[H:13])[H:10])([H:7])([H:8])[H:9]"
C        1.69574820       0.45603323      -0.14716203
C        0.58273892      -0.49396434       0.21235138
O        0.35209883      -0.44078272       1.60434538
C       -0.93078441      -0.58228729       1.16026039
C       -0.92027558       0.34157938      -0.56743859
O       -2.25911301       0.00975969      -0.77297296
H        1.45837931       1.47527106       0.15704632
H        1.89349360       0.43857423      -1.21947143
H        2.60327966       0.14997830       0.37452213
H        0.75282485      -1.50281735      -0.16693275
H       -1.21926807      -1.64780339       1.11631091
H       -0.50906667       0.26330778      -1.57958313
H       -0.80555514       1.38033382      -0.24827880
H       -2.69450049       0.15281761       0.07700318
14
Frame=8 idx=002987 GeodesicLength=0.46893226830644497 rxn_smarts="[C:1]([C@@:2]1([H:10])[O:3][C@:4]1([C:5]([O:6][H:14])([H:12])[H:13])[H:11])([H:7])([H:8])[H:9]>>[C:1]([C@@:2]([O+:3]=[C-:4][H:11])([C:5]([O:6][H:14])([H:12])[H:13])[H:10])([H:7])([H:8])[H:9]"
C        1.70370127       0.45620704      -0.14492743
C        0.58699294      -0.49377316       0.20368734
O        0.33668056      -0.42824837       1.59552706
C       -0.93344859      -0.60715186       1.14013524
C       -0.92657608       0.33884474      -0.57338133
O       -2.27372691       0.02737694      -0.76903647
H        1.45985880       1.47672550       0.14982594
H        1.91442729       0.43360997      -1.21471359
H        2.60657823       0.15645358       0.38830715
H        0.77533195      -1.50401745      -0.16345046
H       -1.21829538      -1.67301262       1.14521727
H       -0.53134055       0.26924737      -1.59274071
H       -0.80358099       1.37651406      -0.25167521
H       -2.69660253       0.17122425       0.08722521
14
Frame=9 idx=002987 GeodesicLength=0.5273604510990079 rxn_smarts="[C:1]([C@@:2]1([H:10])[O:3][C@:4]1([C:5]([O:6][H:14])([H:12])[H:13])[H:11])([H:7])([H:8])[H:9]>>[C:1]([C@@:2]([O+:3]=[C-:4][H:11])([C:5]([O:6][H:14])([H:12])[H:13])[H:10])([H:7])([H:8])[H:9]"
C        1.71168292       0.45646429      -0.14243563
C        0.59134043      -0.49383410       0.19423658
O        0.32028747      -0.41627308       1.58542276
C       -0.93570504      -0.63330396       1.11855747
C       -0.93297685       0.33595120      -0.57992404
O       -2.28834321       0.04551252      -0.76457985
H        1.46111803       1.47810584       0.14275443
H        1.93609026       0.42901395      -1.20937537
H        2.60944681       0.16311917       0.40280574
H        0.79823590      -1.50510489      -0.16031730
H       -1.21758900      -1.69692323       1.17651663
H       -0.55430908       0.27533523      -1.60636650
H       -0.80147503       1.37242026      -0.25557628
H       -2.69780361       0.18951679       0.09828136
14
Frame=10 idx=002987 GeodesicLength=0.585761254382081 rxn_smarts="[C:1]([C@@:2]1([H:10])[O:3][C@:4]1([C:5]([O:6][H:14])([H:12])[H:13])[H:11])([H:7])([H:8])[H:9]>>[C:1]([C@@:2]([O+:3]=[C-:4][H:11])([C:5]([O:6][H:14])([H:12])[H:13])[H:10])([H:7])([H:8])[H:9]"
C        1.71968856       0.45682355      -0.13966124
C        0.59582445      -0.49418618       0.18391303
O        0.30288318      -0.40499919       1.57390332
C       -0.93746544      -0.66093213       1.09537475
C       -0.93947218       0.33286310      -0.58710055
O       -2.30291615       0.06413246      -0.75950687
H        1.46212193       1.47940861       0.13589415
H        1.95851921       0.42488022      -1.20340198
H        2.61183938       0.16998299       0.41805886
H        0.82161021      -1.50608153      -0.15762785
H       -1.21741084      -1.71902494       1.21036255
H       -0.57802097       0.28156556      -1.62048361
H       -0.79922789       1.36800789      -0.26000311
H       -2.69797345       0.20755960       0.11027856
14
Frame=11 idx=002987 GeodesicLength=0.6441248112005091 rxn_smarts="[C:1]([C@@:2]1([H:10])[O:3][C@:4]1([C:5]([O:6][H:14])([H:12])[H:13])[H:11])([H:7])([H:8])[H:9]>>[C:1]([C@@:2]([O+:3]=[C-:4][H:11])([C:5]([O:6][H:14])([H:12])[H:13])[H:10])([H:7])([H:8])[H:9]"
C        1.72771307       0.45730777      -0.13656756
C        0.60049873      -0.49487071       0.17262303
O        0.28446301      -0.39459429       1.56082178
C       -0.93860246      -0.69025149       1.07041682
C       -0.94606008       0.32952483      -0.59494164
O       -2.31740010       0.08317636      -0.75369293
H        1.46284059       1.48062648       0.12932405
H        1.98173558       0.42131786      -1.19671883
H        2.61371073       0.17706147       0.43412185
H        0.84552976      -1.50694012      -0.15549158
H       -1.21810321      -1.73865698       1.24684425
H       -0.60256200       0.28791084      -1.63510624
H       -0.79681728       1.36320804      -0.26497889
H       -2.69694634       0.22517994       0.12334590
14
Frame=12 idx=002987 GeodesicLength=0.7024877072576009 rxn_smarts="[C:1]([C@@:2]1([H:10])[O:3][C@:4]1([C:5]([O:6][H:14])([H:12])[H:13])[H:11])([H:7])([H:8])[H:9]>>[C:1]([C@@:2]([O+:3]=[C-:4][H:11])([C:5]([O:6][H:14])([H:12])[H:13])[H:10])([H:7])([H:8])[H:9]"
C        1.73575431       0.45795032      -0.13313371
C        0.60544448      -0.49594232       0.16026303
O        0.26499406      -0.38527068       1.54603519
C       -0.93897799      -0.72151489       1.04353232
C       -0.95271846       0.32586184      -0.60346104
O       -2.33171264       0.10254407      -0.74695084
H        1.46320081       1.48176953       0.12312639
H        2.00580273       0.41846981      -1.18927934
H        2.61500680       0.18436867       0.45101820
H        0.87014757      -1.50769280      -0.15403415
H       -1.22018011      -1.75498518       1.28596433
H       -0.62797162       0.29432239      -1.65024359
H       -0.79424558       1.35795079      -0.27051757
H       -2.69454436       0.24216847       0.13768078
14
Frame=13 idx=002987 GeodesicLength=0.7608138743787494 rxn_smarts="[C:1]([C@@:2]1([H:10])[O:3][C@:4]1([C:5]([O:6][H:14])([H:12])[H:13])[H:11])([H:7])([H:8])[H:9]>>[C:1]([C@@:2]([O+:3]=[C-:4][H:11])([C:5]([O:6][H:14])([H:12])[H:13])[H:10])([H:7])([H:8])[H:9]"
C        1.74382186       0.45878646      -0.12929298
C        0.61074769      -0.49744396       0.14674035
O        0.24459592      -0.37725606       1.52937142
C       -0.93836100      -0.75497722       1.01455022
C       -0.95947035       0.32175616      -0.61266719
O       -2.34583129       0.12208458      -0.73906678
H        1.46320761       1.48282327       0.11741324
H        2.03070094       0.41648465      -1.18095444
H        2.61571987       0.19194254       0.46883611
H        0.89553694      -1.50830737      -0.15337379
H       -1.22421576      -1.76694587       1.32749761
H       -0.65446234       0.30069134      -1.66586788
H       -0.79146369       1.35210185      -0.27665812
H       -2.69052641       0.25825964       0.15347222
14
Frame=14 idx=002987 GeodesicLength=0.8191629779986842 rxn_smarts="[C:1]([C@@:2]1([H:10])[O:3][C@:4]1([C:5]([O:6][H:14])([H:12])[H:13])[H:11])([H:7])([H:8])[H:9]>>[C:1]([C@@:2]([O+:3]=[C-:4][H:11])([C:5]([O:6][H:14])([H:12])[H:13])[H:10])([H:7])([H:8])[H:9]"
C        1.75191894       0.45985616      -0.12502110
C        0.61654354      -0.49943599       0.13197368
O        0.22332888      -0.37082509       1.51070641
C       -0.93652068      -0.79088423       0.98341008
C       -0.96629660       0.31706163      -0.62251320
O       -2.35964954       0.14157817      -0.72971054
H        1.46275050       1.48380076       0.11227968
H        2.05648743       0.41553368      -1.17168665
H        2.61581813       0.19980075       0.48757278
H        0.92193166      -1.50879289      -0.15362621
H       -1.23102992      -1.77325303       1.37092121
H       -0.68212064       0.30685643      -1.68191540
H       -0.78850345       1.34554135      -0.28341546
H       -2.68465825       0.27316231       0.17102471
14
Frame=15 idx=002987 GeodesicLength=0.87750459325652 rxn_smarts="[C:1]([C@@:2]1([H:10])[O:3][C@:4]1([C:5]([O:6][H:14])([H:12])[H:13])[H:11])([H:7])([H:8])[H:9]>>[C:1]([C@@:2]([O+:3]=[C-:4][H:11])([C:5]([O:6][H:14])([H:12])[H:13])[H:10])([H:7])([H:8])[H:9]"
C        1.75994272       0.46115853      -0.12032020
C        0.62297249      -0.50192510       0.11589445
O        0.20119087      -0.36619934       1.48991869
C       -0.93316948      -0.82935206       0.95014717
C       -0.97308634       0.31155053      -0.63284742
O       -2.37287412       0.16073368      -0.71836862
H        1.46153412       1.48458911       0.10781046
H        2.08318329       0.41572445      -1.16143009
H        2.61508242       0.20795227       0.50713736
H        0.94964229      -1.50901832      -0.15491736
H       -1.24155046      -1.77229912       1.41512176
H       -0.71088675       0.31252812      -1.69818793
H       -0.78541044       1.33800514      -0.29074539
H       -2.67657062       0.28655210       0.19078711
14
Frame=16 idx=002987 GeodesicLength=0.9357917678893297 rxn_smarts="[C:1]([C@@:2]1([H:10])[O:3][C@:4]1([C:5]([O:6][H:14])([H:12])[H:13])[H:11])([H:7])([H:8])[H:9]>>[C:1]([C@@:2]([O+:3]=[C-:4][H:11])([C:5]([O:6][H:14])([H:12])[H:13])[H:10])([H:7])([H:8])[H:9]"
C        1.76802135       0.46275375      -0.11510449
C        0.63007173      -0.50485960       0.09855486
O        0.17869661      -0.36353438       1.46684990
C       -0.92803927      -0.87035412       0.91489027
C       -0.97995307       0.30495040      -0.64348019
O       -2.38559149       0.17906959      -0.70462841
H        1.45992818       1.48512666       0.10399632
H        2.11066914       0.41721378      -1.14987928
H        2.61371696       0.21653655       0.52754404
H        0.97838254      -1.50879124      -0.15716857
H       -1.25666395      -1.76260004       1.45847562
H       -0.74128184       0.31739989      -1.71428182
H       -0.78197241       1.32917860      -0.29869227
H       -2.66598446       0.29791017       0.21292401
