13
Frame=0 idx=003442 GeodesicLength=0.0 rxn_smarts="[N:1]([C:2](=[O:3])[C:4]1([H:9])[C:5]([H:10])([H:11])[C:6]1([H:12])[H:13])([H:7])[H:8]>>[N:1]([C-:2]=[O+:3][C:4]1([H:9])[C:5]([H:10])([H:11])[C:6]1([H:12])[H:13])([H:7])[H:8]"
N        2.53321721      -0.26037771       0.14270616
C        1.32786704      -0.24265609      -0.44646115
O        0.79753330       0.92999452      -0.55106722
C       -0.35482267      -0.19311944       0.24543159
C       -1.52351557      -0.44529427      -0.60391627
C       -1.54533897       0.71662288       0.36102351
H        3.06256401      -1.11066188       0.18457704
H        2.97914431       0.61018875       0.40917706
H       -0.13252692      -0.81361136       1.10473274
H       -1.40784857      -0.19570305      -1.64956219
H       -2.11606447      -1.32990826      -0.40621663
H       -2.13258240       0.62490867       1.26688515
H       -1.48762628       1.70961722      -0.05730982
13
Frame=1 idx=003442 GeodesicLength=0.01616679632059133 rxn_smarts="[N:1]([C:2](=[O:3])[C:4]1([H:9])[C:5]([H:10])([H:11])[C:6]1([H:12])[H:13])([H:7])[H:8]>>[N:1]([C-:2]=[O+:3][C:4]1([H:9])[C:5]([H:10])([H:11])[C:6]1([H:12])[H:13])([H:7])[H:8]"
N        2.53588796      -0.25366166       0.14665446
C        1.32970265      -0.24563237      -0.44053804
O        0.79779785       0.92318895      -0.55820354
C       -0.35456847      -0.19597752       0.24440476
C       -1.52550810      -0.44111791      -0.60759687
C       -1.54512973       0.71231161       0.36625088
H        3.05033691      -1.10993312       0.23049336
H        2.99937208       0.62188618       0.36061507
H       -0.13865350      -0.82577620       1.09879001
H       -1.41029013      -0.18420406      -1.65156698
H       -2.12063735      -1.32524189      -0.41586753
H       -2.13480005       0.61527776       1.26987426
H       -1.48351012       1.70888024      -0.04330984
13
Frame=2 idx=003442 GeodesicLength=0.03213324708898647 rxn_smarts="[N:1]([C:2](=[O:3])[C:4]1([H:9])[C:5]([H:10])([H:11])[C:6]1([H:12])[H:13])([H:7])[H:8]>>[N:1]([C-:2]=[O+:3][C:4]1([H:9])[C:5]([H:10])([H:11])[C:6]1([H:12])[H:13])([H:7])[H:8]"
N        2.53848102      -0.24678693       0.15072595
C        1.33146917      -0.24871232      -0.43443136
O        0.79808054       0.91616716      -0.56526987
C       -0.35432149      -0.19890766       0.24343843
C       -1.52751236      -0.43688981      -0.61124690
C       -1.54481535       0.70801600       0.37140325
H        3.03874647      -1.10632610       0.27615830
H        3.01873970       0.63066379       0.31204279
H       -0.14480785      -0.83795819       1.09280756
H       -1.41273490      -0.17272231      -1.65351359
H       -2.12527737      -1.32040454      -0.42546725
H       -2.13688366       0.60582199       1.27274538
H       -1.47916393       1.70803892      -0.02939270
13
Frame=3 idx=003442 GeodesicLength=0.048057521604397566 rxn_smarts="[N:1]([C:2](=[O:3])[C:4]1([H:9])[C:5]([H:10])([H:11])[C:6]1([H:12])[H:13])([H:7])[H:8]>>[N:1]([C-:2]=[O+:3][C:4]1([H:9])[C:5]([H:10])([H:11])[C:6]1([H:12])[H:13])([H:7])[H:8]"
N        2.54105137      -0.23968054       0.15490826
C        1.33326207      -0.25162899      -0.42807936
O        0.79850807       0.90919478      -0.57189913
C       -0.35414143      -0.20181863       0.24258954
C       -1.52942809      -0.43260724      -0.61484393
C       -1.54461637       0.70365528       0.37650875
H        3.02732904      -1.10010384       0.32191358
H        3.03800354       0.63636414       0.26256528
H       -0.15114365      -0.85006396       1.08676885
H       -1.41488057      -0.16117152      -1.65528868
H       -2.12984474      -1.31547337      -0.43509540
H       -2.13927780       0.59631679       1.27541456
H       -1.47482144       1.70701711      -0.01546231
13
Frame=4 idx=003442 GeodesicLength=0.06364375963558405 rxn_smarts="[N:1]([C:2](=[O:3])[C:4]1([H:9])[C:5]([H:10])([H:11])[C:6]1([H:12])[H:13])([H:7])[H:8]>>[N:1]([C-:2]=[O+:3][C:4]1([H:9])[C:5]([H:10])([H:11])[C:6]1([H:12])[H:13])([H:7])[H:8]"
N        2.54361230      -0.23247174       0.15889893
C        1.33500550      -0.25464816      -0.42168581
O        0.79899124       0.90201287      -0.57864414
C       -0.35393775      -0.20474012       0.24179159
C       -1.53132943      -0.42834291      -0.61832119
C       -1.54429462       0.69938604       0.38147336
H        3.01688163      -1.09131453       0.36626430
H        3.05574384       0.63929538       0.21472110
H       -0.15745305      -0.86199471       1.08077135
H       -1.41700003      -0.14984623      -1.65696697
H       -2.13444656      -1.31043506      -0.44442176
H       -2.14151644       0.58717842       1.27795740
H       -1.47025664       1.70592074      -0.00183815
13
Frame=5 idx=003442 GeodesicLength=0.07899891348253865 rxn_smarts="[N:1]([C:2](=[O:3])[C:4]1([H:9])[C:5]([H:10])([H:11])[C:6]1([H:12])[H:13])([H:7])[H:8]>>[N:1]([C-:2]=[O+:3][C:4]1([H:9])[C:5]([H:10])([H:11])[C:6]1([H:12])[H:13])([H:7])[H:8]"
N        2.54610064      -0.22515219       0.16290535
C        1.33670760      -0.25746776      -0.41511365
O        0.79956562       0.89495007      -0.58501352
C       -0.35375495      -0.20753397       0.24116221
C       -1.53309972      -0.42413139      -0.62169769
C       -1.54406488       0.69515662       0.38629831
H        3.00694408      -1.08036681       0.40919400
H        3.07283532       0.63935142       0.16765897
H       -0.16379493      -0.87356643       1.07493179
H       -1.41884217      -0.13874154      -1.65852133
H       -2.13883827      -1.30543172      -0.45356764
H       -2.14396697       0.57823824       1.28027014
H       -1.46579138       1.70469545       0.01149307
13
Frame=6 idx=003442 GeodesicLength=0.09394024661238927 rxn_smarts="[N:1]([C:2](=[O:3])[C:4]1([H:9])[C:5]([H:10])([H:11])[C:6]1([H:12])[H:13])([H:7])[H:8]>>[N:1]([C-:2]=[O+:3][C:4]1([H:9])[C:5]([H:10])([H:11])[C:6]1([H:12])[H:13])([H:7])[H:8]"
N        2.54867798      -0.21789999       0.16658039
C        1.33837733      -0.26032645      -0.40856471
O        0.80020552       0.88775094      -0.59156568
C       -0.35352777      -0.21022529       0.24061512
C       -1.53490149      -0.42004233      -0.62486343
C       -1.54376928       0.69111732       0.39085540
H        2.99837191      -1.06773327       0.44929578
H        3.08812585       0.63731412       0.12391299
H       -0.17000346      -0.88470365       1.06928243
H       -1.42074787      -0.12813187      -1.65992895
H       -2.14326867      -1.30045661      -0.46215089
H       -2.14629430       0.56988518       1.28234814
H       -1.46124574       1.70345189       0.02418341
13
Frame=7 idx=003442 GeodesicLength=0.10861941354670797 rxn_smarts="[N:1]([C:2](=[O:3])[C:4]1([H:9])[C:5]([H:10])([H:11])[C:6]1([H:12])[H:13])([H:7])[H:8]>>[N:1]([C-:2]=[O+:3][C:4]1([H:9])[C:5]([H:10])([H:11])[C:6]1([H:12])[H:13])([H:7])[H:8]"
N        2.55116828      -0.21063701       0.17007764
C        1.33999828      -0.26299332      -0.40197080
O        0.80091594       0.88063328      -0.59791903
C       -0.35328587      -0.21275251       0.24020737
C       -1.53654655      -0.41604522      -0.62787946
C       -1.54352142       0.68715788       0.39524714
H        2.99035474      -1.05364296       0.48737105
H        3.10244310       0.63314185       0.08196198
H       -0.17617812      -0.89538105       1.06381214
H       -1.42238264      -0.11787069      -1.66120131
H       -2.14743321      -1.29554681      -0.47040253
H       -2.14873680       0.56184437       1.28422984
H       -1.45679572       1.70209219       0.03646596
13
Frame=8 idx=003442 GeodesicLength=0.12306370864493592 rxn_smarts="[N:1]([C:2](=[O:3])[C:4]1([H:9])[C:5]([H:10])([H:11])[C:6]1([H:12])[H:13])([H:7])[H:8]>>[N:1]([C-:2]=[O+:3][C:4]1([H:9])[C:5]([H:10])([H:11])[C:6]1([H:12])[H:13])([H:7])[H:8]"
N        2.55369372      -0.20334758       0.17342795
C        1.34160174      -0.26558601      -0.39531491
O        0.80168200       0.87348037      -0.60425559
C       -0.35303317      -0.21519628       0.23989038
C       -1.53818571      -0.41212879      -0.63076889
C       -1.54328342       0.68330153       0.39946740
H        2.98319997      -1.03827193       0.52349380
H        3.11573235       0.62725629       0.04202176
H       -0.18229937      -0.90575327       1.05846119
H       -1.42398126      -0.10791284      -1.66236790
H       -2.15157965      -1.29067745      -0.47834072
H       -2.15119538       0.55414451       1.28592889
H       -1.45235180       1.70069145       0.04835662
13
Frame=9 idx=003442 GeodesicLength=0.13736053268282927 rxn_smarts="[N:1]([C:2](=[O:3])[C:4]1([H:9])[C:5]([H:10])([H:11])[C:6]1([H:12])[H:13])([H:7])[H:8]>>[N:1]([C-:2]=[O+:3][C:4]1([H:9])[C:5]([H:10])([H:11])[C:6]1([H:12])[H:13])([H:7])[H:8]"
N        2.55620873      -0.19598821       0.17658265
C        1.34318187      -0.26809319      -0.38863579
O        0.80248132       0.86627415      -0.61059847
C       -0.35275887      -0.21759132       0.23962715
C       -1.53978018      -0.40825359      -0.63356844
C       -1.54302357       0.67949455       0.40358272
H        2.97657070      -1.02159893       0.55825460
H        3.12815941       0.61973515       0.00359175
H       -0.18836801      -0.91591001       1.05314574
H       -1.42550947      -0.09814053      -1.66345276
H       -2.15565913      -1.28580588      -0.48606446
H       -2.15362625       0.54666223       1.28752408
H       -1.44787653       1.69921559       0.06001123
13
Frame=10 idx=003442 GeodesicLength=0.1515384847174484 rxn_smarts="[N:1]([C:2](=[O:3])[C:4]1([H:9])[C:5]([H:10])([H:11])[C:6]1([H:12])[H:13])([H:7])[H:8]>>[N:1]([C-:2]=[O+:3][C:4]1([H:9])[C:5]([H:10])([H:11])[C:6]1([H:12])[H:13])([H:7])[H:8]"
N        2.55876240      -0.18853657       0.17953540
C        1.34477486      -0.27055652      -0.38193055
O        0.80331951       0.85895914      -0.61700435
C       -0.35247070      -0.21998750       0.23938343
C       -1.54137448      -0.40438966      -0.63629396
C       -1.54274879       0.67571653       0.40762238
H        2.97041854      -1.00362750       0.59199507
H        3.13988610       0.61073428      -0.03357718
H       -0.19440422      -0.92596524       1.04778453
H       -1.42702299      -0.08846645      -1.66444942
H       -2.15975345      -1.28089511      -0.49362736
H       -2.15604325       0.53934101       1.28903678
H       -1.44334353       1.69767360       0.07152523
13
Frame=11 idx=003442 GeodesicLength=0.16550757709492697 rxn_smarts="[N:1]([C:2](=[O:3])[C:4]1([H:9])[C:5]([H:10])([H:11])[C:6]1([H:12])[H:13])([H:7])[H:8]>>[N:1]([C-:2]=[O+:3][C:4]1([H:9])[C:5]([H:10])([H:11])[C:6]1([H:12])[H:13])([H:7])[H:8]"
N        2.56124095      -0.18113283       0.18234200
C        1.34630317      -0.27281677      -0.37521287
O        0.80417687       0.85171997      -0.62330352
C       -0.35214864      -0.22221219       0.23926603
C       -1.54286812      -0.40064177      -0.63887854
C       -1.54249344       0.67203726       0.41147790
H        2.96486357      -0.98512228       0.62345079
H        3.15069188       0.60058032      -0.06852150
H       -0.20032928      -0.93555015       1.04263800
H       -1.42840276      -0.07917796      -1.66535010
H       -2.16363422      -1.27609410      -0.50083784
H       -2.15846807       0.53235359       1.29036831
H       -1.43893190       1.69605692       0.08256134
13
Frame=12 idx=003442 GeodesicLength=0.17934073665384603 rxn_smarts="[N:1]([C:2](=[O:3])[C:4]1([H:9])[C:5]([H:10])([H:11])[C:6]1([H:12])[H:13])([H:7])[H:8]>>[N:1]([C-:2]=[O+:3][C:4]1([H:9])[C:5]([H:10])([H:11])[C:6]1([H:12])[H:13])([H:7])[H:8]"
N        2.56369764      -0.17374203       0.18501408
C        1.34780079      -0.27492286      -0.36846338
O        0.80505457       0.84448183      -0.62956575
C       -0.35180347      -0.22431026       0.23924413
C       -1.54431200      -0.39698534      -0.64133366
C       -1.54226128       0.66844724       0.41516656
H        2.95995674      -0.96612297       0.65286777
H        3.16065957       0.58944219      -0.10140378
H       -0.20617059      -0.94476393       1.03763569
H       -1.42971048      -0.07021082      -1.66614711
H       -2.16739893      -1.27136321      -0.50773429
H       -2.16090885       0.52567035       1.29152843
H       -1.43460370       1.69437982       0.09319131
13
Frame=13 idx=003442 GeodesicLength=0.19301320462339439 rxn_smarts="[N:1]([C:2](=[O:3])[C:4]1([H:9])[C:5]([H:10])([H:11])[C:6]1([H:12])[H:13])([H:7])[H:8]>>[N:1]([C-:2]=[O+:3][C:4]1([H:9])[C:5]([H:10])([H:11])[C:6]1([H:12])[H:13])([H:7])[H:8]"
N        2.56615520      -0.16637350       0.18750250
C        1.34929006      -0.27690361      -0.36171559
O        0.80596509       0.83722669      -0.63583589
C       -0.35143941      -0.22631640       0.23929627
C       -1.54571608      -0.39340884      -0.64367589
C       -1.54205392       0.66494033       0.41872591
H        2.95558419      -0.94670124       0.68055831
H        3.16991041       0.57751466      -0.13244094
H       -0.21194956      -0.95369066       1.03273945
H       -1.43094809      -0.06151289      -1.66686204
H       -2.17107722      -1.26670157      -0.51435235
H       -2.16338162       0.51925623       1.29257007
H       -1.43033903       1.69267080       0.10349018
13
Frame=14 idx=003442 GeodesicLength=0.2065560670649924 rxn_smarts="[N:1]([C:2](=[O:3])[C:4]1([H:9])[C:5]([H:10])([H:11])[C:6]1([H:12])[H:13])([H:7])[H:8]>>[N:1]([C-:2]=[O+:3][C:4]1([H:9])[C:5]([H:10])([H:11])[C:6]1([H:12])[H:13])([H:7])[H:8]"
N        2.56859794      -0.15901080       0.18980155
C        1.35076262      -0.27876988      -0.35497174
O        0.80689299       0.82993132      -0.64212483
C       -0.35105333      -0.22825645       0.23940478
C       -1.54707806      -0.38989285      -0.64592906
C       -1.54184842       0.66149428       0.42218488
H        2.95162564      -0.92683969       0.70682349
H        3.17851774       0.56486187      -0.16189468
H       -0.21766494      -0.96238885       1.02790796
H       -1.43212471      -0.05302585      -1.66751205
H       -2.17467453      -1.26208317      -0.52074986
H       -2.16584870       0.51305905       1.29352550
H       -1.42610425       1.69092103       0.11353406
13
Frame=15 idx=003442 GeodesicLength=0.22001704017708726 rxn_smarts="[N:1]([C:2](=[O:3])[C:4]1([H:9])[C:5]([H:10])([H:11])[C:6]1([H:12])[H:13])([H:7])[H:8]>>[N:1]([C-:2]=[O+:3][C:4]1([H:9])[C:5]([H:10])([H:11])[C:6]1([H:12])[H:13])([H:7])[H:8]"
N        2.57103913      -0.15163148       0.19189053
C        1.35222001      -0.28051032      -0.34824836
O        0.80783319       0.82260875      -0.64842181
C       -0.35064171      -0.23015041       0.23954867
C       -1.54841092      -0.38641446      -0.64811632
C       -1.54163753       0.65807835       0.42557647
H        2.94793054      -0.90641931       0.73203319
H        3.18663281       0.55141071      -0.19008281
H       -0.22330515      -0.97092165       1.02308560
H       -1.43327050      -0.04467143      -1.66810515
H       -2.17820584      -1.25749406      -0.52699048
H       -2.16829512       0.50699589       1.29442077
H       -1.42188890       1.68911942       0.12340972
13
Frame=16 idx=003442 GeodesicLength=0.2334381793790018 rxn_smarts="[N:1]([C:2](=[O:3])[C:4]1([H:9])[C:5]([H:10])([H:11])[C:6]1([H:12])[H:13])([H:7])[H:8]>>[N:1]([C-:2]=[O+:3][C:4]1([H:9])[C:5]([H:10])([H:11])[C:6]1([H:12])[H:13])([H:7])[H:8]"
N        2.57348688      -0.14422303       0.19375370
C        1.35366889      -0.28215064      -0.34154008
O        0.80878304       0.81521229      -0.65474916
C       -0.35020668      -0.23203192       0.23970571
C       -1.54972729      -0.38294785      -0.65025042
C       -1.54140608       0.65466910       0.42892327
H        2.94443455      -0.88531493       0.75643720
H        3.19431628       0.53714896      -0.21720052
H       -0.22888232      -0.97935391       1.01821534
H       -1.43440605      -0.03638512      -1.66863534
H       -2.18170311      -1.25289331      -0.53312060
H       -2.17070645       0.50102144       1.29526936
H       -1.41765165       1.68724893       0.13319153
