19
Frame=0 idx=008669 GeodesicLength=0.0 rxn_smarts="[C:1]([C:2]1([O:3][H:11])[C:4]([H:12])([H:13])[C:5]([H:14])([H:15])[C:6]([H:16])([H:17])[C:7]1([H:18])[H:19])([H:8])([H:9])[H:10]>>[C:1]([C:2](=[C:4]([H:12])[H:13])[C:7]([C:6]([C:5]([O:3][H:11])([H:14])[H:15])([H:16])[H:17])([H:18])[H:19])([H:8])([H:9])[H:10]"
C        1.94617804      -0.85436802      -0.36003381
C        0.62146527      -0.12491778      -0.17630268
O        0.57348350       0.30139330       1.27095373
C        0.40123705       1.11126048      -0.93668603
C       -1.29021580       0.94567485       1.05433755
C       -1.78831319      -0.15067733       0.17387968
C       -0.58987374      -1.04259439      -0.21214990
H        2.77968015      -0.15622502      -0.26368219
H        1.98538334      -1.28412948      -1.36160067
H        2.08008972      -1.65606533       0.36951444
H        0.95207685       1.19049762       1.24506615
H        1.29578650       1.70023393      -1.13822562
H       -0.25236925       1.04515748      -1.80198359
H       -1.36745619       0.80471668       2.12694871
H       -1.39313681       1.96318818       0.71613890
H       -2.22370365       0.28938563      -0.72265366
H       -2.55292849      -0.73930744       0.68827899
H       -0.71374801      -1.50189495      -1.19354801
H       -0.46363529      -1.84132837       0.52174798
19
Frame=1 idx=008669 GeodesicLength=0.09758035780805362 rxn_smarts="[C:1]([C:2]1([O:3][H:11])[C:4]([H:12])([H:13])[C:5]([H:14])([H:15])[C:6]([H:16])([H:17])[C:7]1([H:18])[H:19])([H:8])([H:9])[H:10]>>[C:1]([C:2](=[C:4]([H:12])[H:13])[C:7]([C:6]([C:5]([O:3][H:11])([H:14])[H:15])([H:16])[H:17])([H:18])[H:19])([H:8])([H:9])[H:10]"
C        1.94823316      -0.85221819      -0.36862921
C        0.62248795      -0.12897671      -0.18264128
O        0.56807981       0.28907492       1.29609281
C        0.39665430       1.10895343      -0.93370383
C       -1.28074093       0.95434730       1.04001532
C       -1.78749507      -0.15335669       0.17563949
C       -0.59079577      -1.04488816      -0.21676763
H        2.78088224      -0.15128336      -0.28538903
H        1.98412159      -1.29444916      -1.36497386
H        2.08748437      -1.64292328       0.37178741
H        0.96666997       1.16931356       1.29234242
H        1.28503948       1.71044478      -1.12515406
H       -0.24457875       1.04165068      -1.80839430
H       -1.38216141       0.83303789       2.11340384
H       -1.39201059       1.97021699       0.69729595
H       -2.23608799       0.27713959      -0.71922826
H       -2.54409845      -0.73968966       0.70391935
H       -0.71940513      -1.50018076      -1.19935454
H       -0.46227876      -1.84621318       0.51373940
19
Frame=2 idx=008669 GeodesicLength=0.19501938373137723 rxn_smarts="[C:1]([C:2]1([O:3][H:11])[C:4]([H:12])([H:13])[C:5]([H:14])([H:15])[C:6]([H:16])([H:17])[C:7]1([H:18])[H:19])([H:8])([H:9])[H:10]>>[C:1]([C:2](=[C:4]([H:12])[H:13])[C:7]([C:6]([C:5]([O:3][H:11])([H:14])[H:15])([H:16])[H:17])([H:18])[H:19])([H:8])([H:9])[H:10]"
C        1.95032971      -0.84980025      -0.37696068
C        0.62340433      -0.13293835      -0.18961775
O        0.56207546       0.27647206       1.32141322
C        0.39199144       1.10650381      -0.93157680
C       -1.27075939       0.96278680       1.02581753
C       -1.78653546      -0.15585735       0.17761988
C       -0.59181188      -1.04709359      -0.22165150
H        2.78178489      -0.14592310      -0.30678328
H        1.98341062      -1.30493010      -1.36768658
H        2.09481976      -1.62904619       0.37448824
H        0.98034069       1.14685022       1.34046648
H        1.27405154       1.72033669      -1.11267176
H       -0.23703673       1.03821950      -1.81527472
H       -1.39599779       0.86131743       2.09916658
H       -1.39038401       1.97693667       0.67853679
H       -2.24857184       0.26526812      -0.71505890
H       -2.53487706      -0.73975292       0.71979404
H       -0.72537178      -1.49830520      -1.20538856
H       -0.46086251      -1.85104424       0.50536777
19
Frame=3 idx=008669 GeodesicLength=0.29234875223577605 rxn_smarts="[C:1]([C:2]1([O:3][H:11])[C:4]([H:12])([H:13])[C:5]([H:14])([H:15])[C:6]([H:16])([H:17])[C:7]1([H:18])[H:19])([H:8])([H:9])[H:10]>>[C:1]([C:2](=[C:4]([H:12])[H:13])[C:7]([C:6]([C:5]([O:3][H:11])([H:14])[H:15])([H:16])[H:17])([H:18])[H:19])([H:8])([H:9])[H:10]"
C        1.95247389      -0.84710357      -0.38502526
C        0.62421132      -0.13679857      -0.19726697
O        0.55545105       0.26357939       1.34692450
C        0.38723736       1.10392571      -0.93033221
C       -1.26025554       0.97098720       1.01175928
C       -1.78542379      -0.15816958       0.17981871
C       -0.59292295      -1.04920577      -0.22679906
H        2.78240185      -0.14015059      -0.32785596
H        1.98327504      -1.31556445      -1.36971316
H        2.10207120      -1.61439684       0.37762275
H        0.99302854       1.12308394       1.38950659
H        1.26281527       1.72989122      -1.10087828
H       -0.22977373       1.03485067      -1.82265575
H       -1.40892259       0.88950476       2.08426224
H       -1.38822642       1.98334361       0.65988113
H       -2.26114083       0.25379566      -0.71013455
H       -2.52525628      -0.73949264       0.73587801
H       -0.73166113      -1.49627529      -1.21163628
H       -0.45938224      -1.85580486       0.49664426
19
Frame=4 idx=008669 GeodesicLength=0.38961773415188955 rxn_smarts="[C:1]([C:2]1([O:3][H:11])[C:4]([H:12])([H:13])[C:5]([H:14])([H:15])[C:6]([H:16])([H:17])[C:7]1([H:18])[H:19])([H:8])([H:9])[H:10]>>[C:1]([C:2](=[C:4]([H:12])[H:13])[C:7]([C:6]([C:5]([O:3][H:11])([H:14])[H:15])([H:16])[H:17])([H:18])[H:19])([H:8])([H:9])[H:10]"
C        1.95467106      -0.84411583      -0.39282060
C        0.62490586      -0.14055680      -0.20563463
O        0.54818862       0.25039527       1.37263883
C        0.38238038       1.10123308      -0.92999830
C       -1.24920976       0.97894254       0.99785460
C       -1.78414770      -0.16028279       0.18223188
C       -0.59412929      -1.05122098      -0.23220719
H        2.78274710      -0.13397123      -0.34860203
H        1.98374159      -1.32634635      -1.37102642
H        2.10920997      -1.59893179       0.38119584
H        1.00466112       1.09797856       1.43953658
H        1.25132530       1.73909331      -1.08987467
H       -0.22282303       1.03153332      -1.83056885
H       -1.42089258       0.91754833       2.06871874
H       -1.38550528       1.98943649       0.64135054
H       -2.27377670       0.24274849      -0.70444575
H       -2.51522630      -0.73890420       0.75214731
H       -0.73828900      -1.49410388      -1.21808064
H       -0.45783136      -1.86047553       0.48758476
19
Frame=5 idx=008669 GeodesicLength=0.4868515629613403 rxn_smarts="[C:1]([C:2]1([O:3][H:11])[C:4]([H:12])([H:13])[C:5]([H:14])([H:15])[C:6]([H:16])([H:17])[C:7]1([H:18])[H:19])([H:8])([H:9])[H:10]>>[C:1]([C:2](=[C:4]([H:12])[H:13])[C:7]([C:6]([C:5]([O:3][H:11])([H:14])[H:15])([H:16])[H:17])([H:18])[H:19])([H:8])([H:9])[H:10]"
C        1.95692555      -0.84082176      -0.40034510
C        0.62548519      -0.14420990      -0.21476336
O        0.54027185       0.23692225       1.39856768
C        0.37740486       1.09843768      -0.93060861
C       -1.23759819       0.98664885       0.98411752
C       -1.78269263      -0.16218527       0.18485524
C       -0.59543037      -1.05313470      -0.23786958
H        2.78283480      -0.12737757      -0.36902054
H        1.98483583      -1.33726522      -1.37159656
H        2.11620798      -1.58260797       0.38521557
H        1.01515403       1.07145541       1.49063207
H        1.23957322       1.74793384      -1.07976618
H       -0.21622269       1.02825254      -1.83904844
H       -1.43185859       0.94540405       2.05256581
H       -1.38218413       1.99521414       0.62296465
H       -2.28645519       0.23215288      -0.69798408
H       -2.50477989      -0.73797918       0.76857402
H       -0.74526942      -1.49180497      -1.22469967
H       -0.45620219      -1.86503509       0.47820954
19
Frame=6 idx=008669 GeodesicLength=0.5840784219096229 rxn_smarts="[C:1]([C:2]1([O:3][H:11])[C:4]([H:12])([H:13])[C:5]([H:14])([H:15])[C:6]([H:16])([H:17])[C:7]1([H:18])[H:19])([H:8])([H:9])[H:10]>>[C:1]([C:2](=[C:4]([H:12])[H:13])[C:7]([C:6]([C:5]([O:3][H:11])([H:14])[H:15])([H:16])[H:17])([H:18])[H:19])([H:8])([H:9])[H:10]"
C        1.95924119      -0.83720809      -0.40760049
C        0.62594633      -0.14776122      -0.22470267
O        0.53168697       0.22315713       1.42472255
C        0.37229798       1.09555098      -0.93219053
C       -1.22539318       0.99409758       0.97056327
C       -1.78104274      -0.16386787       0.18768277
C       -0.59682507      -1.05494583      -0.24378085
H        2.78267985      -0.12037919      -0.38911814
H        1.98658164      -1.34831586      -1.37138811
H        2.12303334      -1.56536638       0.38968652
H        1.02441051       1.04348033       1.54286645
H        1.22755689       1.75640133      -1.07065846
H       -0.21001094       1.02499731      -1.84812357
H       -1.44177031       0.97301848       2.03584080
H       -1.37822498       2.00067441       0.60475205
H       -2.29914817       0.22204243      -0.69074196
H       -2.49391361      -0.73671319       0.78512417
H       -0.75261970      -1.48939707      -1.23147227
H       -0.45448602      -1.86946529       0.46853846
19
Frame=7 idx=008669 GeodesicLength=0.6813370407862076 rxn_smarts="[C:1]([C:2]1([O:3][H:11])[C:4]([H:12])([H:13])[C:5]([H:14])([H:15])[C:6]([H:16])([H:17])[C:7]1([H:18])[H:19])([H:8])([H:9])[H:10]>>[C:1]([C:2](=[C:4]([H:12])[H:13])[C:7]([C:6]([C:5]([O:3][H:11])([H:14])[H:15])([H:16])[H:17])([H:18])[H:19])([H:8])([H:9])[H:10]"
C        1.96162137      -0.83325680      -0.41458729
C        0.62628702      -0.15121577      -0.23551325
O        0.52241908       0.20910483       1.45112108
C        0.36704442       1.09258331      -0.93477775
C       -1.21255955       1.00128315       0.95720561
C       -1.77917957      -0.16531770       0.19071007
C       -0.59831076      -1.05665276      -0.24993456
H        2.78229662      -0.11297100      -0.40890408
H        1.98900627      -1.35949040      -1.37036184
H        2.12965249      -1.54714624       0.39461790
H        1.03230958       1.01396332       1.59631085
H        1.21527265       1.76449082      -1.06265989
H       -0.20423085       1.02175700      -1.85782821
H       -1.45056835       1.00034449       2.01858086
H       -1.37358567       2.00581927       0.58673917
H       -2.31182533       0.21244877      -0.68271105
H       -2.48262151      -0.73509796       0.80176811
H       -0.76035803      -1.48690332      -1.23837241
H       -0.45266987      -1.87374301       0.45859669
19
Frame=8 idx=008669 GeodesicLength=0.7786332116534513 rxn_smarts="[C:1]([C:2]1([O:3][H:11])[C:4]([H:12])([H:13])[C:5]([H:14])([H:15])[C:6]([H:16])([H:17])[C:7]1([H:18])[H:19])([H:8])([H:9])[H:10]>>[C:1]([C:2](=[C:4]([H:12])[H:13])[C:7]([C:6]([C:5]([O:3][H:11])([H:14])[H:15])([H:16])[H:17])([H:18])[H:19])([H:8])([H:9])[H:10]"
C        1.96406790      -0.82895075      -0.42130970
C        0.62650627      -0.15458229      -0.24724961
O        0.51245655       0.19477084       1.47777739
C        0.36162915       1.08954093      -0.93840033
C       -1.19905902       1.00819885       0.94405988
C       -1.77708348      -0.16652269       0.19392972
C       -0.59988412      -1.05825553      -0.25632132
H        2.78169992      -0.10515096      -0.42839633
H        1.99213258      -1.37077876      -1.36847263
H        2.13602993      -1.52787632       0.40001226
H        1.03871542       0.98282415       1.65102958
H        1.20271854       1.77219586      -1.05587611
H       -0.19892618       1.01851784      -1.86819344
H       -1.45818886       1.02733237       2.00083049
H       -1.36822180       2.01065001       0.56895607
H       -2.32444883       0.20340923      -0.67388792
H       -2.47090009      -0.73312705       0.81847144
H       -0.76850226      -1.48434790      -1.24537132
H       -0.45074160      -1.87784784       0.44841188
19
Frame=9 idx=008669 GeodesicLength=0.8759372277349705 rxn_smarts="[C:1]([C:2]1([O:3][H:11])[C:4]([H:12])([H:13])[C:5]([H:14])([H:15])[C:6]([H:16])([H:17])[C:7]1([H:18])[H:19])([H:8])([H:9])[H:10]>>[C:1]([C:2](=[C:4]([H:12])[H:13])[C:7]([C:6]([C:5]([O:3][H:11])([H:14])[H:15])([H:16])[H:17])([H:18])[H:19])([H:8])([H:9])[H:10]"
C        1.96655282      -0.82420808      -0.42774796
C        0.62660513      -0.15786896      -0.25990931
O        0.50179886       0.18005036       1.50481698
C        0.35601385       1.08641211      -0.94306187
C       -1.18483570       1.01484743       0.93111866
C       -1.77471657      -0.16746871       0.19733515
C       -0.60152314      -1.05974663      -0.26289246
H        2.78087075      -0.09683134      -0.44756299
H        1.99595148      -1.38203277      -1.36566872
H        2.14211048      -1.50749284       0.40581519
H        1.04362419       0.94976468       1.70686277
H        1.18986252       1.77948553      -1.05045935
H       -0.19415193       1.01524121      -1.87920525
H       -1.46474575       1.05402341       1.98264058
H       -1.36200188       2.01517601       0.55136132
H       -2.33691402       0.19494512      -0.66426732
H       -2.45876605      -0.73077089       0.83518003
H       -0.77704619      -1.48175810      -1.25238944
H       -0.44868885      -1.88176754       0.43803397
19
Frame=10 idx=008669 GeodesicLength=0.9732802840491389 rxn_smarts="[C:1]([C:2]1([O:3][H:11])[C:4]([H:12])([H:13])[C:5]([H:14])([H:15])[C:6]([H:16])([H:17])[C:7]1([H:18])[H:19])([H:8])([H:9])[H:10]>>[C:1]([C:2](=[C:4]([H:12])[H:13])[C:7]([C:6]([C:5]([O:3][H:11])([H:14])[H:15])([H:16])[H:17])([H:18])[H:19])([H:8])([H:9])[H:10]"
C        1.96910102      -0.81906008      -0.43392104
C        0.62657649      -0.16108801      -0.27361866
O        0.49041639       0.16503302       1.53214841
C        0.35019686       1.08321914      -0.94881741
C       -1.16984626       1.02119652       0.91841525
C       -1.77207087      -0.16814713       0.20092125
C       -0.60324522      -1.06113923      -0.26967867
H        2.77984103      -0.08807530      -0.46648940
H        2.00051639      -1.39338436      -1.36189212
H        2.14787798      -1.48588885       0.41211247
H        1.04677792       0.91490420       1.76405833
H        1.17672634       1.78638813      -1.04646076
H       -0.18995535       1.01194388      -1.89093482
H       -1.46999732       1.08028616       1.96404130
H       -1.35493538       2.01937808       0.53406069
H       -2.34923406       0.18711828      -0.65384314
H       -2.44620906      -0.72804299       0.85187604
H       -0.78603809      -1.47916058      -1.25944777
H       -0.44649885      -1.88548087       0.42747005
19
Frame=11 idx=008669 GeodesicLength=1.070646973985779 rxn_smarts="[C:1]([C:2]1([O:3][H:11])[C:4]([H:12])([H:13])[C:5]([H:14])([H:15])[C:6]([H:16])([H:17])[C:7]1([H:18])[H:19])([H:8])([H:9])[H:10]>>[C:1]([C:2](=[C:4]([H:12])[H:13])[C:7]([C:6]([C:5]([O:3][H:11])([H:14])[H:15])([H:16])[H:17])([H:18])[H:19])([H:8])([H:9])[H:10]"
C        1.97170857      -0.81348329      -0.43983371
C        0.62641546      -0.16425573      -0.28844232
O        0.47830523       0.14971109       1.55979561
C        0.34415756       1.07996445      -0.95568844
C       -1.15403838       1.02722947       0.90596292
C       -1.76912087      -0.16854588       0.20468194
C       -0.60504620      -1.06243892      -0.27666997
H        2.77861325      -0.07887115      -0.48521202
H        2.00585239      -1.40482324      -1.35708622
H        2.15328828      -1.46296884       0.41891740
H        1.04805329       0.87815619       1.82263789
H        1.16330829       1.79290094      -1.04397355
H       -0.18638892       1.00861456      -1.90340385
H       -1.47390120       1.10607972       1.94507637
H       -1.34695963       2.02325930       0.51709439
H       -2.36135917       0.17997047      -0.64261520
H       -2.43323370      -0.72493865       0.86852096
H       -0.79549746      -1.47659006      -1.26651330
H       -0.44415681      -1.88897044       0.41675111
19
Frame=12 idx=008669 GeodesicLength=1.168050673532432 rxn_smarts="[C:1]([C:2]1([O:3][H:11])[C:4]([H:12])([H:13])[C:5]([H:14])([H:15])[C:6]([H:16])([H:17])[C:7]1([H:18])[H:19])([H:8])([H:9])[H:10]>>[C:1]([C:2](=[C:4]([H:12])[H:13])[C:7]([C:6]([C:5]([O:3][H:11])([H:14])[H:15])([H:16])[H:17])([H:18])[H:19])([H:8])([H:9])[H:10]"
C        1.97436816      -0.80744768      -0.44549137
C        0.62611381      -0.16739756      -0.30446054
O        0.46545377       0.13406991       1.58778635
C        0.33787013       1.07664507      -0.96370423
C       -1.13734645       1.03292405       0.89377291
C       -1.76583757      -0.16865371       0.20860806
C       -0.60692380      -1.06365438      -0.28385759
H        2.77718594      -0.06920650      -0.50377823
H        2.01198243      -1.41634416      -1.35117476
H        2.15829618      -1.43861167       0.42624028
H        1.04731705       0.83944399       1.88265757
H        1.14959923       1.79902183      -1.04308741
H       -0.18351397       1.00524480      -1.91664017
H       -1.47639296       1.13135914       1.92578333
H       -1.33799509       2.02681376       0.50050192
H       -2.37323054       0.17355147      -0.63058449
H       -2.41984608      -0.72145121       0.88507494
H       -0.80545330      -1.47408310      -1.27355237
H       -0.44164694      -1.89222405       0.40590579
19
Frame=13 idx=008669 GeodesicLength=1.2654808411915224 rxn_smarts="[C:1]([C:2]1([O:3][H:11])[C:4]([H:12])([H:13])[C:5]([H:14])([H:15])[C:6]([H:16])([H:17])[C:7]1([H:18])[H:19])([H:8])([H:9])[H:10]>>[C:1]([C:2](=[C:4]([H:12])[H:13])[C:7]([C:6]([C:5]([O:3][H:11])([H:14])[H:15])([H:16])[H:17])([H:18])[H:19])([H:8])([H:9])[H:10]"
C        1.97706963      -0.80091875      -0.45089791
C        0.62566737      -0.17054088      -0.32175501
O        0.45185616       0.11809869       1.61615038
C        0.33130983       1.07325529      -0.97289281
C       -1.11969702       1.03825711       0.88185691
C       -1.76218676      -0.16845802       0.21269374
C       -0.60887287      -1.06479564      -0.29123156
H        2.77555343      -0.05906155      -0.52223910
H        2.01893332      -1.42793447      -1.34407668
H        2.16284648      -1.41268986       0.43408993
H        1.04439942       0.79865934       1.94414198
H        1.13559228       1.80474774      -1.04389178
H       -0.18139499       1.00182256      -1.93066891
H       -1.47740155       1.15608561       1.90620880
H       -1.32795603       2.03004081       0.48432395
H       -2.38478835       0.16791288      -0.61775192
H       -2.40605072      -0.71757249       0.90150055
H       -0.81593022      -1.47168139      -1.28052784
H       -0.43894942      -1.89522698       0.39496728
19
Frame=14 idx=008669 GeodesicLength=1.362916440908367 rxn_smarts="[C:1]([C:2]1([O:3][H:11])[C:4]([H:12])([H:13])[C:5]([H:14])([H:15])[C:6]([H:16])([H:17])[C:7]1([H:18])[H:19])([H:8])([H:9])[H:10]>>[C:1]([C:2](=[C:4]([H:12])[H:13])[C:7]([C:6]([C:5]([O:3][H:11])([H:14])[H:15])([H:16])[H:17])([H:18])[H:19])([H:8])([H:9])[H:10]"
C        1.97980094      -0.79386016      -0.45605694
C        0.62506845      -0.17371895      -0.34040825
O        0.43750087       0.10178719       1.64492021
C        0.32445139       1.06978593      -0.98327627
C       -1.10101101       1.04320178       0.87022461
C       -1.75813473      -0.16794681       0.21693215
C       -0.61088697      -1.06587344      -0.29878192
H        2.77370994      -0.04842853      -0.54065295
H        2.02672557      -1.43957822      -1.33569421
H        2.16688084      -1.38504437       0.44246872
H        1.03913315       0.75569421       2.00710210
H        1.12128021       1.81007315      -1.04646875
H       -0.18009918       0.99833757      -1.94551342
H       -1.47684809       1.18021726       1.88639610
H       -1.31675081       2.03293490       0.46860275
H       -2.39596708       0.16310767      -0.60411922
H       -2.39185514      -0.71329619       0.91776141
H       -0.82695517      -1.46942456      -1.28740126
H       -0.43604319      -1.89796843       0.38396514
19
Frame=15 idx=008669 GeodesicLength=1.4603493885664658 rxn_smarts="[C:1]([C:2]1([O:3][H:11])[C:4]([H:12])([H:13])[C:5]([H:14])([H:15])[C:6]([H:16])([H:17])[C:7]1([H:18])[H:19])([H:8])([H:9])[H:10]>>[C:1]([C:2](=[C:4]([H:12])[H:13])[C:7]([C:6]([C:5]([O:3][H:11])([H:14])[H:15])([H:16])[H:17])([H:18])[H:19])([H:8])([H:9])[H:10]"
C        1.98254610      -0.78622205      -0.46097213
C        0.62431277      -0.17696656      -0.36051983
O        0.42238095       0.08513208       1.67412812
C        0.31726622       1.06622594      -0.99488814
C       -1.08119151       1.04773261       0.85888106
C       -1.75363867      -0.16710627       0.22132227
C       -0.61295597      -1.06689948      -0.30649698
H        2.77164462      -0.03728012      -0.55908551
H        2.03538680      -1.45125995      -1.32591244
H        2.17033190      -1.35549732       0.45138088
H        1.03128753       0.71035656       2.07154992
H        1.10665006       1.81499563      -1.05090928
H       -0.17970257       0.99477926      -1.96120354
H       -1.47463539       1.20372928       1.86639043
H       -1.30427213       2.03549628       0.45337100
H       -2.40669696       0.15918878      -0.58967842
H       -2.37725767      -0.70861183       0.93383300
H       -0.83855767      -1.46735985      -1.29412810
H       -0.43289842      -1.90043298       0.37293770
19
Frame=16 idx=008669 GeodesicLength=1.5577570948202866 rxn_smarts="[C:1]([C:2]1([O:3][H:11])[C:4]([H:12])([H:13])[C:5]([H:14])([H:15])[C:6]([H:16])([H:17])[C:7]1([H:18])[H:19])([H:8])([H:9])[H:10]>>[C:1]([C:2](=[C:4]([H:12])[H:13])[C:7]([C:6]([C:5]([O:3][H:11])([H:14])[H:15])([H:16])[H:17])([H:18])[H:19])([H:8])([H:9])[H:10]"
C        1.98528542      -0.77795219      -0.46564240
C        0.62339374      -0.18032471      -0.38218843
O        0.40648128       0.06812172       1.70380944
C        0.30972363       1.06255805      -1.00775875
C       -1.06013081       1.05181459       0.84783201
C       -1.74865321      -0.16592395       0.22586248
C       -0.61507069      -1.06788858      -0.31436480
H        2.76934250      -0.02559600      -0.57760781
H        2.04493932      -1.46294904      -1.31459730
H        2.17312046      -1.32384203       0.46082589
H        1.02062923       0.66247308       2.13746976
H        1.09168572       1.81950772      -1.05729885
H       -0.18028567       0.99113526      -1.97776722
H       -1.47064819       1.22659244       1.84624133
H       -1.29039527       2.03771438       0.43866752
H       -2.41690033       0.15621475      -0.57442568
H       -2.36226112      -0.70350928       0.94968688
H       -0.85076983      -1.46553433      -1.30066351
H       -0.42948617      -1.90261187       0.36191947
