15
Frame=0 idx=011957 GeodesicLength=0.0 rxn_smarts="[C:1]([C@@:2]([O:3][H:12])([C:4]([O:5][C:6](=[O:7])[H:15])([H:13])[H:14])[H:11])([H:8])([H:9])[H:10]>>[C:1]([C@@:2]1([H:11])[O:3][C@:6]([O:7][H:12])([H:15])[O:5][C:4]1([H:13])[H:14])([H:8])([H:9])[H:10]"
C       -1.53262793       0.97845368      -0.37706823
C       -0.08391324       0.56226932      -0.49715733
O        0.63542867       0.81365120       0.70468993
C        0.10638583      -0.93990095      -0.75645807
O        1.42664529      -1.19024488      -0.29369231
C        1.57219505      -0.63365588       0.93304205
O        0.82818828      -0.98046367       1.93384509
H       -2.02465665       0.42964585       0.42879302
H       -2.06405671       0.77206255      -1.30822313
H       -1.61144164       2.04509857      -0.16850291
H        0.41504421       1.13079175      -1.28735995
H        0.26813909       0.09695419       1.60352517
H        0.06997678      -1.20215285      -1.81156697
H       -0.61823796      -1.53960015      -0.19861840
H        2.61293089      -0.34290868       1.09475208
15
Frame=1 idx=011957 GeodesicLength=0.0659914228844961 rxn_smarts="[C:1]([C@@:2]([O:3][H:12])([C:4]([O:5][C:6](=[O:7])[H:15])([H:13])[H:14])[H:11])([H:8])([H:9])[H:10]>>[C:1]([C@@:2]1([H:11])[O:3][C@:6]([O:7][H:12])([H:15])[O:5][C:4]1([H:13])[H:14])([H:8])([H:9])[H:10]"
C       -1.53739294       0.98194734      -0.38941459
C       -0.08843968       0.56237828      -0.49114835
O        0.61427462       0.81414224       0.71912292
C        0.10105982      -0.93905400      -0.75026638
O        1.42368538      -1.19327168      -0.29474184
C        1.58578057      -0.63260945       0.92870365
O        0.86034079      -0.98627925       1.94046819
H       -2.04147101       0.43187752       0.40805078
H       -2.05682544       0.78134753      -1.32855480
H       -1.61522231       2.04794879      -0.17714299
H        0.42052666       1.13008282      -1.27614954
H        0.26774800       0.08388036       1.62889735
H        0.05832228      -1.19993486      -1.80548714
H       -0.62129544      -1.53905440      -0.18974819
H        2.62890871      -0.34340125       1.07741093
15
Frame=2 idx=011957 GeodesicLength=0.13184390332738571 rxn_smarts="[C:1]([C@@:2]([O:3][H:12])([C:4]([O:5][C:6](=[O:7])[H:15])([H:13])[H:14])[H:11])([H:8])([H:9])[H:10]>>[C:1]([C@@:2]1([H:11])[O:3][C@:6]([O:7][H:12])([H:15])[O:5][C:4]1([H:13])[H:14])([H:8])([H:9])[H:10]"
C       -1.54207372       0.98547181      -0.40195030
C       -0.09311617       0.56244489      -0.48494146
O        0.59245396       0.81407669       0.73391170
C        0.09560526      -0.93825445      -0.74393903
O        1.42050151      -1.19649316      -0.29559182
C        1.59939141      -0.63130884       0.92409473
O        0.89288796      -0.99136378       1.94675277
H       -2.05836558       0.43404227       0.38666871
H       -2.04905910       0.79083898      -1.34909774
H       -1.61901399       2.05076074      -0.18573844
H        0.42608793       1.12942274      -1.26435564
H        0.26774061       0.07043998       1.65472486
H        0.04661440      -1.19773579      -1.79924288
H       -0.62450358      -1.53851198      -0.18073844
H        2.64484911      -0.34383011       1.05944297
15
Frame=3 idx=011957 GeodesicLength=0.1975678761268 rxn_smarts="[C:1]([C@@:2]([O:3][H:12])([C:4]([O:5][C:6](=[O:7])[H:15])([H:13])[H:14])[H:11])([H:8])([H:9])[H:10]>>[C:1]([C@@:2]1([H:11])[O:3][C@:6]([O:7][H:12])([H:15])[O:5][C:4]1([H:13])[H:14])([H:8])([H:9])[H:10]"
C       -1.54665884       0.98902216      -0.41466665
C       -0.09794729       0.56246318      -0.47853390
O        0.56995487       0.81342680       0.74904156
C        0.09002344      -0.93750646      -0.73748332
O        1.41708658      -1.19991822      -0.29622464
C        1.61301360      -0.62974696       0.91920795
O        0.92579519      -0.99565865       1.95268874
H       -2.07531828       0.43612755       0.36463413
H       -2.04073450       0.80054401      -1.36983174
H       -1.62281462       2.05352360      -0.19426581
H        0.43171116       1.12880734      -1.25196428
H        0.26815308       0.05667147       1.68101332
H        0.03487157      -1.19555129      -1.79284564
H       -0.62786841      -1.53798186      -0.17161078
H        2.66073244      -0.34422267       1.04084106
15
Frame=4 idx=011957 GeodesicLength=0.2631704158296432 rxn_smarts="[C:1]([C@@:2]([O:3][H:12])([C:4]([O:5][C:6](=[O:7])[H:15])([H:13])[H:14])[H:11])([H:8])([H:9])[H:10]>>[C:1]([C@@:2]1([H:11])[O:3][C@:6]([O:7][H:12])([H:15])[O:5][C:4]1([H:13])[H:14])([H:8])([H:9])[H:10]"
C       -1.55113640       0.99259391      -0.42755515
C       -0.10293784       0.56242665      -0.47192245
O        0.54676377       0.81216216       0.76449863
C        0.08431625      -0.93681443      -0.73090737
O        1.41343350      -1.20355616      -0.29662094
C        1.62663424      -0.62791872       0.91403354
O        0.95902568      -0.99909851       1.95826733
H       -2.09230646       0.43812046       0.34193208
H       -2.03182755       0.81046988      -1.39073331
H       -1.62662369       2.05622553      -0.20269973
H        0.43737806       1.12823282      -1.23895822
H        0.26902113       0.04261955       1.70776666
H        0.02311417      -1.19337627      -1.78630837
H       -0.63139629      -1.53747418      -0.16238907
H        2.67654142      -0.34461270       1.02159637
15
Frame=5 idx=011957 GeodesicLength=0.32865341481872773 rxn_smarts="[C:1]([C@@:2]([O:3][H:12])([C:4]([O:5][C:6](=[O:7])[H:15])([H:13])[H:14])[H:11])([H:8])([H:9])[H:10]>>[C:1]([C@@:2]1([H:11])[O:3][C@:6]([O:7][H:12])([H:15])[O:5][C:4]1([H:13])[H:14])([H:8])([H:9])[H:10]"
C       -1.55549444       0.99618076      -0.44060332
C       -0.10809224       0.56232920      -0.46510605
O        0.52287331       0.81025538       0.78026167
C        0.07848648      -0.93618242      -0.72422255
O        1.40953564      -1.20741554      -0.29676228
C        1.64023736      -0.62582127       0.90856467
O        0.99253264      -1.00161674       1.96347922
H       -2.10930296       0.44000659       0.31855571
H       -2.02231726       0.82062079      -1.41177474
H       -1.63044177       2.05885351      -0.21101184
H        0.44306879       1.12769626      -1.22532618
H        0.27038710       0.02833666       1.73498508
H        0.01136514      -1.19120412      -1.77964783
H       -0.63509342      -1.53700011      -0.15310251
H        2.69225563      -0.34503895       1.00171096
15
Frame=6 idx=011957 GeodesicLength=0.394026843366292 rxn_smarts="[C:1]([C@@:2]([O:3][H:12])([C:4]([O:5][C:6](=[O:7])[H:15])([H:13])[H:14])[H:11])([H:8])([H:9])[H:10]>>[C:1]([C@@:2]1([H:11])[O:3][C@:6]([O:7][H:12])([H:15])[O:5][C:4]1([H:13])[H:14])([H:8])([H:9])[H:10]"
C       -1.55972057       0.99977769      -0.45379926
C       -0.11341561       0.56216326      -0.45808258
O        0.49827329       0.80767616       0.79631140
C        0.07253798      -0.93561487      -0.71743995
O        1.40538786      -1.21150460      -0.29662772
C        1.65380863      -0.62345141       0.90279210
O        1.02627201      -1.00314242       1.96831784
H       -2.12627891       0.44177333       0.29449343
H       -2.01218122       0.83100343      -1.43292424
H       -1.63427069       2.06139396      -0.21917514
H        0.44876046       1.12719532      -1.21105425
H        0.27228611       0.01387717       1.76267150
H       -0.00035074      -1.18902792      -1.77288120
H       -0.63896518      -1.53657197      -0.14378133
H        2.70785658      -0.34554712       0.98117939
15
Frame=7 idx=011957 GeodesicLength=0.45927943881663036 rxn_smarts="[C:1]([C@@:2]([O:3][H:12])([C:4]([O:5][C:6](=[O:7])[H:15])([H:13])[H:14])[H:11])([H:8])([H:9])[H:10]>>[C:1]([C@@:2]1([H:11])[O:3][C@:6]([O:7][H:12])([H:15])[O:5][C:4]1([H:13])[H:14])([H:8])([H:9])[H:10]"
C       -1.56380284       1.00337728      -0.46712575
C       -0.11891214       0.56192249      -0.45085356
O        0.47296052       0.80439803       0.81262220
C        0.06647620      -0.93511505      -0.71057570
O        1.40098553      -1.21582896      -0.29619887
C        1.66733144      -0.62081202       0.89671071
O        1.06018479      -1.00360539       1.97277304
H       -2.14320067       0.44340566       0.26974546
H       -2.00140471       0.84161861      -1.45414377
H       -1.63811366       2.06383120      -0.22715749
H        0.45442796       1.12672698      -1.19613803
H        0.27476866      -0.00068577       1.79081873
H       -0.01200478      -1.18683823      -1.76603150
H       -0.64301713      -1.53620364      -0.13446408
H        2.72332084      -0.34619119       0.96001862
15
Frame=8 idx=011957 GeodesicLength=0.5244141569201679 rxn_smarts="[C:1]([C@@:2]([O:3][H:12])([C:4]([O:5][C:6](=[O:7])[H:15])([H:13])[H:14])[H:11])([H:8])([H:9])[H:10]>>[C:1]([C@@:2]1([H:11])[O:3][C@:6]([O:7][H:12])([H:15])[O:5][C:4]1([H:13])[H:14])([H:8])([H:9])[H:10]"
C       -1.56772990       1.00697238      -0.48056550
C       -0.12458716       0.56159897      -0.44341927
O        0.44693029       0.80039398       0.82916871
C        0.06030751      -0.93468652      -0.70364544
O        1.39632543      -1.22039495      -0.29545464
C        1.68079073      -0.61790297       0.89031279
O        1.09421488      -1.00292863       1.97684097
H       -2.16003467       0.44489147       0.24430518
H       -1.98996707       0.85247221      -1.47539069
H       -1.64197825       2.06614655      -0.23492876
H        0.46004382       1.12628819      -1.18056800
H        0.27787647      -0.01528236       1.81942415
H       -0.02356624      -1.18462484      -1.75912170
H       -0.64725407      -1.53590917      -0.12519002
H        2.73862824      -0.34703432       0.93823225
15
Frame=9 idx=011957 GeodesicLength=0.5892836745802208 rxn_smarts="[C:1]([C@@:2]([O:3][H:12])([C:4]([O:5][C:6](=[O:7])[H:15])([H:13])[H:14])[H:11])([H:8])([H:9])[H:10]>>[C:1]([C@@:2]1([H:11])[O:3][C@:6]([O:7][H:12])([H:15])[O:5][C:4]1([H:13])[H:14])([H:8])([H:9])[H:10]"
C       -1.57150204       1.01055506      -0.49410663
C       -0.13045352       0.56118837      -0.43578959
O        0.42017722       0.79562740       0.84592772
C        0.05403810      -0.93433007      -0.69666346
O        1.39139790      -1.22519699      -0.29436128
C        1.69414715      -0.61473568       0.88360674
O        1.12833469      -1.00112701       1.98048286
H       -2.17676152       0.44622269       0.21815500
H       -1.97786793       0.86356731      -1.49662806
H       -1.64588638       2.06831433      -0.24245198
H        0.46557097       1.12589006      -1.16434153
H        0.28175612      -0.02974725       1.84843298
H       -0.03499808      -1.18237958      -1.75216983
H       -0.65168081      -1.53570026      -0.11599473
H        2.75372813      -0.34814839       0.91590178
15
Frame=10 idx=011957 GeodesicLength=0.654038168630593 rxn_smarts="[C:1]([C@@:2]([O:3][H:12])([C:4]([O:5][C:6](=[O:7])[H:15])([H:13])[H:14])[H:11])([H:8])([H:9])[H:10]>>[C:1]([C@@:2]1([H:11])[O:3][C@:6]([O:7][H:12])([H:15])[O:5][C:4]1([H:13])[H:14])([H:8])([H:9])[H:10]"
C       -1.57509796       1.01411640      -0.50771964
C       -0.13650665       0.56067811      -0.42795632
O        0.39270521       0.79008106       0.86286218
C        0.04767589      -0.93405263      -0.68965241
O        1.38620746      -1.23025436      -0.29291007
C        1.70741074      -0.61131473       0.87656953
O        1.16244428      -0.99804722       1.98372384
H       -2.19332767       0.44737756       0.19131411
H       -1.96508123       0.87491000      -1.51780167
H       -1.64983315       2.07032154      -0.24969323
H        0.47099320       1.12551675      -1.14744758
H        0.28634462      -0.04405550       1.87787870
H       -0.04627019      -1.18008499      -1.74521158
H       -0.65630261      -1.53559808      -0.10693257
H        2.76863807      -0.34959392       0.89297671
15
Frame=11 idx=011957 GeodesicLength=0.7186783188584563 rxn_smarts="[C:1]([C@@:2]([O:3][H:12])([C:4]([O:5][C:6](=[O:7])[H:15])([H:13])[H:14])[H:11])([H:8])([H:9])[H:10]>>[C:1]([C@@:2]1([H:11])[O:3][C@:6]([O:7][H:12])([H:15])[O:5][C:4]1([H:13])[H:14])([H:8])([H:9])[H:10]"
C       -1.57850829       1.01764690      -0.52138020
C       -0.14274915       0.56006156      -0.41992056
O        0.36451676       0.78373597       0.87993705
C        0.04123068      -0.93385653      -0.68263432
O        1.38075335      -1.23556842      -0.29108256
C        1.72056786      -0.60765411       0.86919768
O        1.19647547      -0.99363166       1.98655185
H       -2.20969564       0.44833721       0.16379531
H       -1.95160200       0.88650055      -1.53886462
H       -1.65383141       2.07214810      -0.25661476
H        0.47628466       1.12516843      -1.12988398
H        0.29168504      -0.05808539       1.90774136
H       -0.05734626      -1.17772633      -1.73827768
H       -0.66112254      -1.53562212      -0.09805280
H        2.78334147      -0.35145416       0.86948822
15
Frame=12 idx=011957 GeodesicLength=0.7832242056155483 rxn_smarts="[C:1]([C@@:2]([O:3][H:12])([C:4]([O:5][C:6](=[O:7])[H:15])([H:13])[H:14])[H:11])([H:8])([H:9])[H:10]>>[C:1]([C@@:2]1([H:11])[O:3][C@:6]([O:7][H:12])([H:15])[O:5][C:4]1([H:13])[H:14])([H:8])([H:9])[H:10]"
C       -1.58172389       1.02113763      -0.53506276
C       -0.14918413       0.55932847      -0.41168275
O        0.33561543       0.77656887       0.89711770
C        0.03471151      -0.93374659      -0.67562928
O        1.37503688      -1.24114519      -0.28885766
C        1.73360890      -0.60376648       0.86148100
O        1.23036727      -0.98781968       1.98895791
H       -2.22582667       0.44908770       0.13560422
H       -1.93741856       0.89834968      -1.55976466
H       -1.65789535       2.07377102      -0.26317808
H        0.48141677       1.12484259      -1.11164789
H        0.29780047      -0.07171955       1.93800659
H       -0.06818978      -1.17528884      -1.73139830
H       -0.66614419      -1.53579275      -0.08940428
H        2.79782534      -0.35380687       0.84545825
15
Frame=13 idx=011957 GeodesicLength=0.8476888792868268 rxn_smarts="[C:1]([C@@:2]([O:3][H:12])([C:4]([O:5][C:6](=[O:7])[H:15])([H:13])[H:14])[H:11])([H:8])([H:9])[H:10]>>[C:1]([C@@:2]1([H:11])[O:3][C@:6]([O:7][H:12])([H:15])[O:5][C:4]1([H:13])[H:14])([H:8])([H:9])[H:10]"
C       -1.58473615       1.02457901      -0.54873696
C       -0.15581346       0.55847117      -0.40324427
O        0.30601126       0.76856487       0.91436325
C        0.02812942      -0.93372473      -0.66866320
O        1.36905931      -1.24698662      -0.28622004
C        1.74652282      -0.59967356       0.85341424
O        1.26404465      -0.98054959       1.99093111
H       -2.24167927       0.44961553       0.10676479
H       -1.92253377       0.91045267      -1.58044756
H       -1.66204015       2.07517001      -0.26934841
H        0.48636335       1.12453772      -1.09274021
H        0.30472489      -0.08483438       1.96865411
H       -0.07876058      -1.17275254      -1.72461003
H       -0.67137076      -1.53613031      -0.08104495
H        2.81207843      -0.35673923       0.82092812
15
Frame=14 idx=011957 GeodesicLength=0.9120687351380882 rxn_smarts="[C:1]([C@@:2]([O:3][H:12])([C:4]([O:5][C:6](=[O:7])[H:15])([H:13])[H:14])[H:11])([H:8])([H:9])[H:10]>>[C:1]([C@@:2]1([H:11])[O:3][C@:6]([O:7][H:12])([H:15])[O:5][C:4]1([H:13])[H:14])([H:8])([H:9])[H:10]"
C       -1.58753948       1.02796167      -0.56237546
C       -0.16264114       0.55747831      -0.39460566
O        0.27570791       0.75970027       0.93164043
C        0.02149703      -0.93379437      -0.66176051
O        1.36282411      -1.25309598      -0.28314976
C        1.75930235      -0.59539562       0.84498924
O        1.29743852      -0.97175924       1.99246167
H       -2.25721421       0.44990713       0.07728546
H       -1.90694276       0.92282117      -1.60085200
H       -1.66628742       2.07631741      -0.27508439
H        0.49109270       1.12425233      -1.07315765
H        0.31249106      -0.09728593       1.99965837
H       -0.08901560      -1.17009823      -1.71794759
H       -0.67680331      -1.53665778      -0.07303221
H        2.82609023      -0.36035114       0.79593005
15
Frame=15 idx=011957 GeodesicLength=0.976360744879869 rxn_smarts="[C:1]([C@@:2]([O:3][H:12])([C:4]([O:5][C:6](=[O:7])[H:15])([H:13])[H:14])[H:11])([H:8])([H:9])[H:10]>>[C:1]([C@@:2]1([H:11])[O:3][C@:6]([O:7][H:12])([H:15])[O:5][C:4]1([H:13])[H:14])([H:8])([H:9])[H:10]"
C       -1.59012845       1.03127538      -0.57594503
C       -0.16966912       0.55634106      -0.38576915
O        0.24471689       0.74995705       0.94891045
C        0.01482862      -0.93395651      -0.65495046
O        1.35633647      -1.25947304      -0.27963390
C        1.77194172      -0.59096064       0.83619907
O        1.33046806      -0.96138933       1.99353531
H       -2.27238952       0.44994945       0.04719124
H       -1.89065480       0.93545365      -1.62091362
H       -1.67065803       2.07718912      -0.28034777
H        0.49557462       1.12398530      -1.05290266
H        0.32113399      -0.10892277       2.03098954
H       -0.09890999      -1.16730246      -1.71145109
H       -0.68244181      -1.53739796      -0.06543034
H        2.83985134      -0.36474832       0.77051841
15
Frame=16 idx=011957 GeodesicLength=1.0405657317484245 rxn_smarts="[C:1]([C@@:2]([O:3][H:12])([C:4]([O:5][C:6](=[O:7])[H:15])([H:13])[H:14])[H:11])([H:8])([H:9])[H:10]>>[C:1]([C@@:2]1([H:11])[O:3][C@:6]([O:7][H:12])([H:15])[O:5][C:4]1([H:13])[H:14])([H:8])([H:9])[H:10]"
C       -1.59250052       1.03451128      -0.58941447
C       -0.17690174       0.55504810      -0.37673475
O        0.21304441       0.73931189       0.96613966
C        0.00813773      -0.93421328      -0.64826035
O        1.34960069      -1.26611994      -0.27565700
C        1.78443780      -0.58639834       0.82703307
O        1.36306400      -0.94937683       1.99413607
H       -2.28716740       0.44973080       0.01649677
H       -1.87367418       0.94835867      -1.64056828
H       -1.67517711       2.07775872      -0.28509828
H        0.49977910       1.12373609      -1.03197093
H        0.33068316      -0.11958985       2.06261476
H       -0.10839953      -1.16434197      -1.70515832
H       -0.68828633      -1.53837444      -0.05830117
H        2.85335991      -0.37004090       0.74474322
