16
Frame=0 idx=010305 GeodesicLength=0.0 rxn_smarts="[C:1]([N:2]1[C@:3]2([H:11])[C:4]([H:12])([H:13])[C@@:5]1([H:14])[C:6]([H:15])=[C:7]2[H:16])([H:8])([H:9])[H:10]>>[C:1](=[N+:2]1[C@:3]2([H:11])[C-:4]([H:13])[C@@:5]1([H:14])[C:6]([H:15])=[C:7]2[H:16])([H:8])[H:9].[H:10][H:12]"
C        1.88491318      -0.39164500      -0.09248858
N        0.60169000      -0.36743984      -0.05457460
C       -0.42308223      -0.07843176       1.01419561
C       -0.58405399       1.14195727       0.13168058
C       -0.48020780       0.12381856      -0.98442975
C       -1.54636121      -0.95784925      -0.72024451
C       -1.50903904      -1.09067789       0.60019111
H        2.43627842      -0.56243940       0.82041034
H        2.38540878      -0.37699842      -1.04943090
H        1.93206020       1.75211482       0.12043590
H       -0.07155700      -0.03947665       2.04362931
H        1.10619100       1.83372548       0.15314842
H       -1.35658201       1.89701971       0.23143279
H       -0.19028351       0.36955755      -2.00444623
H       -2.12966669      -1.49174163      -1.45586054
H       -2.05570808      -1.76149351       1.24635104
16
Frame=1 idx=010305 GeodesicLength=0.10259178414070845 rxn_smarts="[C:1]([N:2]1[C@:3]2([H:11])[C:4]([H:12])([H:13])[C@@:5]1([H:14])[C:6]([H:15])=[C:7]2[H:16])([H:8])([H:9])[H:10]>>[C:1](=[N+:2]1[C@:3]2([H:11])[C-:4]([H:13])[C@@:5]1([H:14])[C:6]([H:15])=[C:7]2[H:16])([H:8])[H:9].[H:10][H:12]"
C        1.89106344      -0.37833238      -0.09271338
N        0.60414620      -0.35835508      -0.05738092
C       -0.41857040      -0.07034832       1.01259976
C       -0.58497963       1.15104217       0.12905302
C       -0.47900119       0.12857267      -0.98568433
C       -1.53910296      -0.95768707      -0.71859266
C       -1.49975532      -1.08821138       0.60186463
H        2.42856066      -0.60301279       0.81742024
H        2.38942177      -0.37843954      -1.05142843
H        1.93200601       1.72508654       0.12898356
H       -0.06959807      -0.02795375       2.04281892
H        1.08490397       1.84682409       0.15452395
H       -1.37645552       1.88681846       0.22733523
H       -0.19165631       0.37341435      -2.00671448
H       -2.12335047      -1.49336919      -1.45221847
H       -2.04763217      -1.75604877       1.25013334
16
Frame=2 idx=010305 GeodesicLength=0.20565315989281532 rxn_smarts="[C:1]([N:2]1[C@:3]2([H:11])[C:4]([H:12])([H:13])[C@@:5]1([H:14])[C:6]([H:15])=[C:7]2[H:16])([H:8])([H:9])[H:10]>>[C:1](=[N+:2]1[C@:3]2([H:11])[C-:4]([H:13])[C@@:5]1([H:14])[C:6]([H:15])=[C:7]2[H:16])([H:8])[H:9].[H:10][H:12]"
C        1.89722650      -0.36561843      -0.09226963
N        0.60658512      -0.34923116      -0.05995750
C       -0.41418081      -0.06224505       1.01111993
C       -0.58604144       1.16008044       0.12647716
C       -0.47769544       0.13326873      -0.98684036
C       -1.53171345      -0.95757930      -0.71691682
C       -1.49050075      -1.08573776       0.60356773
H        2.41990354      -0.64360029       0.81248559
H        2.39326798      -0.37956756      -1.05269376
H        1.93226767       1.69893603       0.13732078
H       -0.06782412      -0.01641320       2.04212826
H        1.06354912       1.85985519       0.15587447
H       -1.39569232       1.87643925       0.22326072
H       -0.19274339       0.37713777      -2.00883988
H       -2.11678604      -1.49511109      -1.44859202
H       -2.03962216      -1.75061357       1.25387536
16
Frame=3 idx=010305 GeodesicLength=0.30891950646024763 rxn_smarts="[C:1]([N:2]1[C@:3]2([H:11])[C:4]([H:12])([H:13])[C@@:5]1([H:14])[C:6]([H:15])=[C:7]2[H:16])([H:8])([H:9])[H:10]>>[C:1](=[N+:2]1[C@:3]2([H:11])[C-:4]([H:13])[C@@:5]1([H:14])[C:6]([H:15])=[C:7]2[H:16])([H:8])[H:9].[H:10][H:12]"
C        1.90338838      -0.35359443      -0.09117067
N        0.60899768      -0.34005833      -0.06230609
C       -0.40992389      -0.05413401       1.00975858
C       -0.58726513       1.16906001       0.12395870
C       -0.47630268       0.13790893      -0.98789991
C       -1.52420161      -0.95752954      -0.71522057
C       -1.48128370      -1.08327011       0.60529789
H        2.41033846      -0.68395942       0.80569809
H        2.39696926      -0.38036887      -1.05326235
H        1.93308916       1.67348147       0.14536452
H       -0.06624610      -0.00487625       2.04156072
H        1.04202625       1.87286371       0.15724724
H       -1.41434278       1.86589149       0.21921262
H       -0.19355576       0.38074063      -2.01082433
H       -2.11000215      -1.49694785      -1.44498619
H       -2.03168539      -1.74520741       1.25757177
16
Frame=4 idx=010305 GeodesicLength=0.4121962001712875 rxn_smarts="[C:1]([N:2]1[C@:3]2([H:11])[C:4]([H:12])([H:13])[C@@:5]1([H:14])[C:6]([H:15])=[C:7]2[H:16])([H:8])([H:9])[H:10]>>[C:1](=[N+:2]1[C@:3]2([H:11])[C-:4]([H:13])[C@@:5]1([H:14])[C:6]([H:15])=[C:7]2[H:16])([H:8])[H:9].[H:10][H:12]"
C        1.90953396      -0.34234152      -0.08944214
N        0.61137710      -0.33081858      -0.06443128
C       -0.40580549      -0.04602287       1.00851503
C       -0.58867788       1.17797171       0.12150292
C       -0.47483336       0.14249881      -0.98886544
C       -1.51656812      -0.95754245      -0.71350863
C       -1.47210217      -1.08082206       0.60704968
H        2.39990096      -0.72386506       0.79717598
H        2.40053724      -0.38087005      -1.05318201
H        1.93469774       1.64854405       0.15304259
H       -0.06487134       0.00664338       2.04111537
H        1.02022723       1.88590911       0.15869116
H       -1.43246310       1.85517711       0.21519714
H       -0.19410638       0.38424074      -2.01266887
H       -2.10302625      -1.49885509      -1.44140534
H       -2.02382014      -1.73984720       1.26121384
16
Frame=5 idx=010305 GeodesicLength=0.5152981694848742 rxn_smarts="[C:1]([N:2]1[C@:3]2([H:11])[C:4]([H:12])([H:13])[C@@:5]1([H:14])[C:6]([H:15])=[C:7]2[H:16])([H:8])([H:9])[H:10]>>[C:1](=[N+:2]1[C@:3]2([H:11])[C-:4]([H:13])[C@@:5]1([H:14])[C:6]([H:15])=[C:7]2[H:16])([H:8])[H:9].[H:10][H:12]"
C        1.91565019      -0.33192877      -0.08712245
N        0.61372035      -0.32148206      -0.06634048
C       -0.40182615      -0.03791171       1.00738767
C       -0.59030909       1.18681289       0.11911239
C       -0.47329792       0.14704973      -0.98974272
C       -1.50880874      -0.95762342      -0.71178675
C       -1.46294560      -1.07840697       0.60881833
H        2.38862713      -0.76312588       0.78704794
H        2.40397970      -0.38112778      -1.05250776
H        1.93728665       1.62392980       0.16031252
H       -0.06369991       0.01814334       2.04079148
H        0.99804440       1.89907674       0.16024960
H       -1.45011463       1.84429602       0.21121905
H       -0.19441242       0.38766345      -2.01437999
H       -2.09587781      -1.50081627      -1.43785474
H       -2.01601616      -1.73454911       1.26479589
16
Frame=6 idx=010305 GeodesicLength=0.618055735530421 rxn_smarts="[C:1]([N:2]1[C@:3]2([H:11])[C:4]([H:12])([H:13])[C@@:5]1([H:14])[C:6]([H:15])=[C:7]2[H:16])([H:8])([H:9])[H:10]>>[C:1](=[N+:2]1[C@:3]2([H:11])[C-:4]([H:13])[C@@:5]1([H:14])[C:6]([H:15])=[C:7]2[H:16])([H:8])[H:9].[H:10][H:12]"
C        1.92172489      -0.32241717      -0.08426045
N        0.61602664      -0.31200544      -0.06804559
C       -0.39798395      -0.02979112       1.00637013
C       -0.59219541       1.19558398       0.11678647
C       -0.47170780       0.15157860      -0.99053690
C       -1.50091239      -0.95777318      -0.71005707
C       -1.45379423      -1.07603097       0.61059916
H        2.37654273      -0.80162857       0.77545384
H        2.40729287      -0.38122719      -1.05131538
H        1.94104425       1.59949776       0.16717296
H       -0.06272836       0.02963406       2.04057929
H        0.97535428       1.91244856       0.16195266
H       -1.46736835       1.83324198       0.20728286
H       -0.19449513       0.39103833      -2.01596136
H       -2.08855000      -1.50282886      -1.43433370
H       -2.00825003      -1.72932074       1.26831307
16
Frame=7 idx=010305 GeodesicLength=0.7203121509814219 rxn_smarts="[C:1]([N:2]1[C@:3]2([H:11])[C:4]([H:12])([H:13])[C@@:5]1([H:14])[C:6]([H:15])=[C:7]2[H:16])([H:8])([H:9])[H:10]>>[C:1](=[N+:2]1[C@:3]2([H:11])[C-:4]([H:13])[C@@:5]1([H:14])[C:6]([H:15])=[C:7]2[H:16])([H:8])[H:9].[H:10][H:12]"
C        1.92774839      -0.31386182      -0.08091209
N        0.61829956      -0.30232854      -0.06955994
C       -0.39427320      -0.02164011       1.00545583
C       -0.59437882       1.20429343       0.11451941
C       -0.47007404       0.15610900      -0.99125685
C       -1.49286216      -0.95799296      -0.70832093
C       -1.44462015      -1.07369752       0.61239058
H        2.36365977      -0.83931042       0.76252340
H        2.41047167      -0.38127112      -1.04968073
H        1.94613201       1.57508772       0.17366655
H       -0.06194688       0.04114268       2.04046999
H        0.95202917       1.92613722       0.16381502
H       -1.48430238       1.82200812       0.20338682
H       -0.19437794       0.39440161      -2.01742307
H       -2.08102706      -1.50489855      -1.43083985
H       -2.00047795      -1.72417875       1.27176587
16
Frame=8 idx=010305 GeodesicLength=0.822112971465631 rxn_smarts="[C:1]([N:2]1[C@:3]2([H:11])[C:4]([H:12])([H:13])[C@@:5]1([H:14])[C:6]([H:15])=[C:7]2[H:16])([H:8])([H:9])[H:10]>>[C:1](=[N+:2]1[C@:3]2([H:11])[C-:4]([H:13])[C@@:5]1([H:14])[C:6]([H:15])=[C:7]2[H:16])([H:8])[H:9].[H:10][H:12]"
C        1.93370903      -0.30631663      -0.07713745
N        0.62054444      -0.29236987      -0.07089701
C       -0.39068742      -0.01342459       1.00463886
C       -0.59691511       1.21295907       0.11230415
C       -0.46840894       0.16067322      -0.99191278
C       -1.48462942      -0.95828501      -0.70657924
C       -1.43538240      -1.07140820       0.61419251
H        2.34995953      -0.87615846       0.74837015
H        2.41349869      -0.38138060      -1.04767383
H        1.95275419       1.55051000       0.17985997
H       -0.06134437       0.05271449       2.04045530
H        0.92790076       1.94029466       0.16584378
H       -1.50101131       1.81058656       0.19952693
H       -0.19408824       0.39779904      -2.01877745
H       -2.07326971      -1.50704505      -1.42737045
H       -1.99262973      -1.71914865       1.27515656
16
Frame=9 idx=010305 GeodesicLength=0.9235906575937386 rxn_smarts="[C:1]([N:2]1[C@:3]2([H:11])[C:4]([H:12])([H:13])[C@@:5]1([H:14])[C:6]([H:15])=[C:7]2[H:16])([H:8])([H:9])[H:10]>>[C:1](=[N+:2]1[C@:3]2([H:11])[C-:4]([H:13])[C@@:5]1([H:14])[C:6]([H:15])=[C:7]2[H:16])([H:8])[H:9].[H:10][H:12]"
C        1.93959027      -0.29984131      -0.07300224
N        0.62276776      -0.28202410      -0.07207438
C       -0.38721902      -0.00509343       1.00390667
C       -0.59987765       1.22160310       0.11012722
C       -0.46672692       0.16530893      -0.99251344
C       -1.47617039      -0.95864970      -0.70482593
C       -1.42602280      -1.06915489       0.61600629
H        2.33537584      -0.91225225       0.73308796
H        2.41634312      -0.38168584      -1.04538236
H        1.96117463       1.52560413       0.18589649
H       -0.06090692       0.06441971       2.04051274
H        0.90274783       1.95508307       0.16802084
H       -1.51760926       1.79896052       0.19569243
H       -0.19365944       0.40127732      -2.02003150
H       -2.06520468      -1.50930380      -1.42391028
H       -1.98460236      -1.71425147       1.27848947
16
Frame=10 idx=010305 GeodesicLength=1.0248214863142262 rxn_smarts="[C:1]([N:2]1[C@:3]2([H:11])[C:4]([H:12])([H:13])[C@@:5]1([H:14])[C:6]([H:15])=[C:7]2[H:16])([H:8])([H:9])[H:10]>>[C:1](=[N+:2]1[C@:3]2([H:11])[C-:4]([H:13])[C@@:5]1([H:14])[C:6]([H:15])=[C:7]2[H:16])([H:8])[H:9].[H:10][H:12]"
C        1.94538160      -0.29451535      -0.06857637
N        0.62498608      -0.27115761      -0.07310489
C       -0.38385382       0.00341988       1.00325592
C       -0.60334572       1.23026191       0.10796765
C       -0.46503962       0.17006452      -0.99307822
C       -1.46743785      -0.95909516      -0.70305859
C       -1.41647727      -1.06693423       0.61784243
H        2.31983121      -0.94767406       0.71671927
H        2.41898272      -0.38231772      -1.04287171
H        1.97159869       1.50009126       0.19199204
H       -0.06060645       0.07635051       2.04063984
H        0.87636227       1.97075133       0.17029028
H       -1.53421829       1.78711409       0.19186354
H       -0.19312280       0.40489681      -2.02121438
H       -2.05676419      -1.51172269      -1.42045239
H       -1.97627657      -1.70953348       1.28178558
16
Frame=11 idx=010305 GeodesicLength=1.1259996960561864 rxn_smarts="[C:1]([N:2]1[C@:3]2([H:11])[C:4]([H:12])([H:13])[C@@:5]1([H:14])[C:6]([H:15])=[C:7]2[H:16])([H:8])([H:9])[H:10]>>[C:1](=[N+:2]1[C@:3]2([H:11])[C-:4]([H:13])[C@@:5]1([H:14])[C:6]([H:15])=[C:7]2[H:16])([H:8])[H:9].[H:10][H:12]"
C        1.95106036      -0.29044500      -0.06393525
N        0.62721599      -0.25960268      -0.07400766
C       -0.38057815       0.01220776       1.00267259
C       -0.60742699       1.23897611       0.10579380
C       -0.46336207       0.17499360      -0.99362356
C       -1.45836116      -0.95962623      -0.70126240
C       -1.40665664      -1.06472552       0.61971456
H        2.30316895      -0.98263337       0.69926525
H        2.42137183      -0.38339781      -1.04024155
H        1.98435413       1.47373480       0.19849831
H       -0.06041363       0.08863766       2.04081084
H        0.84844560       1.98755436       0.17254912
H       -1.55099108       1.77501715       0.18800941
H       -0.19251830       0.40871405      -2.02234598
H       -2.04782757      -1.51437276      -1.41696790
H       -1.96748127      -1.70503212       1.28507042
16
Frame=12 idx=010305 GeodesicLength=1.2273396381325286 rxn_smarts="[C:1]([N:2]1[C@:3]2([H:11])[C:4]([H:12])([H:13])[C@@:5]1([H:14])[C:6]([H:15])=[C:7]2[H:16])([H:8])([H:9])[H:10]>>[C:1](=[N+:2]1[C@:3]2([H:11])[C-:4]([H:13])[C@@:5]1([H:14])[C:6]([H:15])=[C:7]2[H:16])([H:8])[H:9].[H:10][H:12]"
C        1.95659555      -0.28776741      -0.05916226
N        0.62948050      -0.24714971      -0.07480379
C       -0.37737317       0.02139265       1.00214235
C       -0.61224970       1.24780140       0.10356044
C       -0.46171076       0.18016010      -0.99417237
C       -1.44885302      -0.96025150      -0.69941517
C       -1.39645104      -1.06249855       0.62164769
H        2.28515871      -1.01741511       0.68064128
H        2.42345861      -0.38501703      -1.03759354
H        1.99980791       1.44620241       0.20592349
H       -0.06028659       0.10145655       2.04099927
H        0.81865181       2.00581511       0.17463621
H       -1.56810207       1.76263504       0.18408331
H       -0.19189373       0.41279133      -2.02345826
H       -2.03823291      -1.51736225      -1.41341793
H       -1.95800008      -1.70079303       1.28838929
16
Frame=13 idx=010305 GeodesicLength=1.328952358863305 rxn_smarts="[C:1]([N:2]1[C@:3]2([H:11])[C:4]([H:12])([H:13])[C@@:5]1([H:14])[C:6]([H:15])=[C:7]2[H:16])([H:8])([H:9])[H:10]>>[C:1](=[N+:2]1[C@:3]2([H:11])[C-:4]([H:13])[C@@:5]1([H:14])[C:6]([H:15])=[C:7]2[H:16])([H:8])[H:9].[H:10][H:12]"
C        1.96194403      -0.28666052      -0.05435063
N        0.63181194      -0.23354797      -0.07552044
C       -0.37421181       0.03113214       1.00164568
C       -0.61795954       1.25680561       0.10120127
C       -0.46010284       0.18563348      -0.99475426
C       -1.43880931      -0.96097982      -0.69748038
C       -1.38572826      -1.06020349       0.62368261
H        2.26548293      -1.05240897       0.66064617
H        2.42519644      -0.38720082      -1.03504977
H        2.01832758       1.41708641       0.21501073
H       -0.06016483       0.11503563       2.04116932
H        0.78659910       2.02589315       0.17630358
H       -1.58574239       1.74992542       0.18001752
H       -0.19130603       0.41718538      -2.02459527
H       -2.02776872      -1.52084153      -1.40974201
H       -1.94756828      -1.69685411       1.29181587
16
Frame=14 idx=010305 GeodesicLength=1.4309091963008234 rxn_smarts="[C:1]([N:2]1[C@:3]2([H:11])[C:4]([H:12])([H:13])[C@@:5]1([H:14])[C:6]([H:15])=[C:7]2[H:16])([H:8])([H:9])[H:10]>>[C:1](=[N+:2]1[C@:3]2([H:11])[C-:4]([H:13])[C@@:5]1([H:14])[C:6]([H:15])=[C:7]2[H:16])([H:8])[H:9].[H:10][H:12]"
C        1.96704126      -0.28734379      -0.04959776
N        0.63425245      -0.21850364      -0.07618958
C       -0.37105962       0.04162206       1.00115707
C       -0.62471992       1.26606887       0.09862956
C       -0.45855380       0.19148732      -0.99540246
C       -1.42810239      -0.96181966      -0.69540445
C       -1.37432955      -1.05776705       0.62587666
H        2.24370638      -1.08809879       0.63893564
H        2.42653857      -0.38988877      -1.03274314
H        2.04030548       1.38587531       0.22673106
H       -0.05997300       0.12966153       2.04127303
H        0.75185230       2.04817327       0.17722118
H       -1.60411707       1.73683834       0.17572390
H       -0.19081891       0.42194392      -2.02580831
H       -2.01616400      -1.52500197      -1.40585426
H       -1.93585817      -1.69324695       1.29545188
16
Frame=15 idx=010305 GeodesicLength=1.5332228605773495 rxn_smarts="[C:1]([N:2]1[C@:3]2([H:11])[C:4]([H:12])([H:13])[C@@:5]1([H:14])[C:6]([H:15])=[C:7]2[H:16])([H:8])([H:9])[H:10]>>[C:1](=[N+:2]1[C@:3]2([H:11])[C-:4]([H:13])[C@@:5]1([H:14])[C:6]([H:15])=[C:7]2[H:16])([H:8])[H:9].[H:10][H:12]"
C        1.97179335      -0.29007582      -0.04500337
N        0.63685846      -0.20168097      -0.07684726
C       -0.36787167       0.05309821       1.00064595
C       -0.63270368       1.27568452       0.09573743
C       -0.45707452       0.19779904      -0.99615318
C       -1.41658219      -0.96277528      -0.69311389
C       -1.36207107      -1.05508721       0.62830766
H        2.21925863      -1.12503100       0.61498658
H        2.42745700      -0.39290999      -1.03080100
H        2.06609900       1.35189891       0.24227696
H       -0.05961755       0.14568062       2.04125241
H        0.71394294       2.07304989       0.17698232
H       -1.62343367       1.72331856       0.17109416
H       -0.19050087       0.42710478      -2.02715710
H       -2.00307932      -1.53007991      -1.40164115
H       -1.92247484      -1.68999435       1.29943350
16
Frame=16 idx=010305 GeodesicLength=1.6358909506991501 rxn_smarts="[C:1]([N:2]1[C@:3]2([H:11])[C:4]([H:12])([H:13])[C@@:5]1([H:14])[C:6]([H:15])=[C:7]2[H:16])([H:8])([H:9])[H:10]>>[C:1](=[N+:2]1[C@:3]2([H:11])[C-:4]([H:13])[C@@:5]1([H:14])[C:6]([H:15])=[C:7]2[H:16])([H:8])[H:9].[H:10][H:12]"
C        1.97606509      -0.29514729      -0.04066538
N        0.63970505      -0.18270567      -0.07753120
C       -0.36459122       0.06583463       1.00007762
C       -0.64208513       1.28575731       0.09240024
C       -0.45566606       0.20464956      -0.99704109
C       -1.40407414      -0.96384139      -0.69051339
C       -1.34874499      -1.05202852       0.63107462
H        2.19141771      -1.16375803       0.58807104
H        2.42795502      -0.39597112      -1.02932013
H        2.09598724       1.31427263       0.26300722
H       -0.05898871       0.16349478       2.04104037
H        0.67237698       2.10090137       0.17512737
H       -1.64389106       1.70930555       0.16600600
H       -0.19041918       0.43269576      -2.02870437
H       -1.98809311      -1.53635442      -1.39696062
H       -1.90695349      -1.68710513       1.30393171
