13
Frame=0 idx=004823 GeodesicLength=0.0 rxn_smarts="[C:1]([C@@:2]1([H:10])[N:3]([H:11])[C:4]([H:12])([H:13])[C:5]1=[O:6])([H:7])([H:8])[H:9]>>[C:1]([N+:3]1([H:11])[C:2]([H:10])=[C:5]([O-:6])[C:4]1([H:12])[H:13])([H:7])([H:8])[H:9]"
C       -1.41171136      -0.39511463      -0.44924365
C       -0.20959725       0.27490868       0.99285996
N        0.26942524      -0.84498170       0.07334417
C        1.28620691       0.09826355      -0.45474424
C        0.70507164       1.21316831       0.45084214
O        0.95487337       2.39630954       0.54774558
H       -1.68547003      -1.42654960      -0.67796161
H       -1.14584737       0.15983359      -1.34069216
H       -2.24276718       0.09360999       0.05962659
H       -0.70159825       0.11325357       1.94011931
H        0.62425607      -1.69267331       0.51030082
H        1.28317501       0.22592853      -1.53756900
H        2.27398326      -0.21595657      -0.11462786
13
Frame=1 idx=004823 GeodesicLength=0.03948825388603351 rxn_smarts="[C:1]([C@@:2]1([H:10])[N:3]([H:11])[C:4]([H:12])([H:13])[C:5]1=[O:6])([H:7])([H:8])[H:9]>>[C:1]([N+:3]1([H:11])[C:2]([H:10])=[C:5]([O-:6])[C:4]1([H:12])[H:13])([H:7])([H:8])[H:9]"
C       -1.41447071      -0.39485044      -0.44814182
C       -0.21244590       0.26768981       0.98800997
N        0.27346572      -0.84159105       0.06529728
C        1.29418853       0.10420171      -0.45166427
C        0.70555273       1.21214348       0.45681091
O        0.94741796       2.39584514       0.55857798
H       -1.71216073      -1.42824210      -0.63343302
H       -1.15389583       0.12072673      -1.36502871
H       -2.23869276       0.13060175       0.03488906
H       -0.68953256       0.09561075       1.94128475
H        0.62553192      -1.69188910       0.49834082
H        1.29303636       0.23986285      -1.53351677
H        2.28200527      -0.21010953      -0.11142619
13
Frame=2 idx=004823 GeodesicLength=0.07882074968184012 rxn_smarts="[C:1]([C@@:2]1([H:10])[N:3]([H:11])[C:4]([H:12])([H:13])[C:5]1=[O:6])([H:7])([H:8])[H:9]>>[C:1]([N+:3]1([H:11])[C:2]([H:10])=[C:5]([O-:6])[C:4]1([H:12])[H:13])([H:7])([H:8])[H:9]"
C       -1.41719105      -0.39450814      -0.44726595
C       -0.21532016       0.26045025       0.98320001
N        0.27742861      -0.83811285       0.05724577
C        1.30194431       0.11023968      -0.44858900
C        0.70610468       1.21101332       0.46309840
O        0.94008972       2.39518676       0.56981425
H       -1.73853641      -1.42770261      -0.58814968
H       -1.16257888       0.07962925      -1.38847185
H       -2.23316388       0.16694568       0.00881749
H       -0.67773231       0.07806241       1.94202552
H        0.62672344      -1.69107732       0.48618279
H        1.30236176       0.25414584      -1.52937614
H        2.28987017      -0.20427228      -0.10853161
13
Frame=3 idx=004823 GeodesicLength=0.11799102529973554 rxn_smarts="[C:1]([C@@:2]1([H:10])[N:3]([H:11])[C:4]([H:12])([H:13])[C:5]1=[O:6])([H:7])([H:8])[H:9]>>[C:1]([N+:3]1([H:11])[C:2]([H:10])=[C:5]([O-:6])[C:4]1([H:12])[H:13])([H:7])([H:8])[H:9]"
C       -1.41985968      -0.39411382      -0.44662358
C       -0.21822654       0.25321925       0.97841864
N        0.28131468      -0.83454203       0.04921414
C        1.30947469       0.11636911      -0.44551944
C        0.70675446       1.20977626       0.46971259
O        0.93291005       2.39433766       0.58142737
H       -1.76453154      -1.42484523      -0.54237177
H       -1.17197824       0.03661335      -1.41081646
H       -2.22619720       0.20247456      -0.01856591
H       -0.66619552       0.06063810       1.94235597
H        0.62782207      -1.69022259       0.47387212
H        1.31113150       0.26874992      -1.52514598
H        2.29758125      -0.19845454      -0.10595770
13
Frame=4 idx=004823 GeodesicLength=0.15699596769979257 rxn_smarts="[C:1]([C@@:2]1([H:10])[N:3]([H:11])[C:4]([H:12])([H:13])[C:5]1=[O:6])([H:7])([H:8])[H:9]>>[C:1]([N+:3]1([H:11])[C:2]([H:10])=[C:5]([O-:6])[C:4]1([H:12])[H:13])([H:7])([H:8])[H:9]"
C       -1.42247095      -0.39369450      -0.44621766
C       -0.22117830       0.24602286       0.97366099
N        0.28513274      -0.83087926       0.04122117
C        1.31679077       0.12258075      -0.44246394
C        0.70751563       1.20843437       0.47665687
O        0.92589078       2.39330872       0.59339973
H       -1.79009147      -1.41961953      -0.49633729
H       -1.18216830      -0.00822524      -1.43186982
H       -2.21783270       0.23705651      -0.04724568
H       -0.65492696       0.04335802       1.94230657
H        0.62883518      -1.68932258       0.46145127
H        1.31934697       0.28365098      -1.52084231
H        2.30515662      -0.19267110      -0.10371990
13
Frame=5 idx=004823 GeodesicLength=0.19581087691584628 rxn_smarts="[C:1]([C@@:2]1([H:10])[N:3]([H:11])[C:4]([H:12])([H:13])[C:5]1=[O:6])([H:7])([H:8])[H:9]>>[C:1]([N+:3]1([H:11])[C:2]([H:10])=[C:5]([O-:6])[C:4]1([H:12])[H:13])([H:7])([H:8])[H:9]"
C       -1.42501794      -0.39328633      -0.44606381
C       -0.22416647       0.23889107       0.96892766
N        0.28887098      -0.82713194       0.03327259
C        1.32389058       0.12887719      -0.43942329
C        0.70841643       1.20701689       0.48394069
O        0.91906094       2.39215912       0.60573385
H       -1.81522422      -1.41199120      -0.45028984
H       -1.19320439      -0.05483905      -1.45145598
H       -2.20805774       0.27054464      -0.07721109
H       -0.64388702       0.02623360       1.94191571
H        0.62973093      -1.68839184       0.44894293
H        1.32700410       0.29883240      -1.51647975
H        2.31258383      -0.18691454      -0.10180967
13
Frame=6 idx=004823 GeodesicLength=0.23460775320506239 rxn_smarts="[C:1]([C@@:2]1([H:10])[N:3]([H:11])[C:4]([H:12])([H:13])[C:5]1=[O:6])([H:7])([H:8])[H:9]>>[C:1]([N+:3]1([H:11])[C:2]([H:10])=[C:5]([O-:6])[C:4]1([H:12])[H:13])([H:7])([H:8])[H:9]"
C       -1.42750863      -0.39290290      -0.44611555
C       -0.22720999       0.23178590       0.96414066
N        0.29257229      -0.82323459       0.02535891
C        1.33080122       0.13526741      -0.43637683
C        0.70941648       1.20541897       0.49152394
O        0.91236636       2.39068106       0.61841152
H       -1.83993258      -1.40183411      -0.40423739
H       -1.20516311      -0.10321721      -1.46931466
H       -2.19688675       0.30294279      -0.10856421
H       -0.63309153       0.00921904       1.94105794
H        0.63059040      -1.68729574       0.43630798
H        1.33412797       0.31430920      -1.51195631
H        2.31991788      -0.18113982      -0.10023600
13
Frame=7 idx=004823 GeodesicLength=0.2732216839284563 rxn_smarts="[C:1]([C@@:2]1([H:10])[N:3]([H:11])[C:4]([H:12])([H:13])[C:5]1=[O:6])([H:7])([H:8])[H:9]>>[C:1]([N+:3]1([H:11])[C:2]([H:10])=[C:5]([O-:6])[C:4]1([H:12])[H:13])([H:7])([H:8])[H:9]"
C       -1.42995384      -0.39261671      -0.44640472
C       -0.23028369       0.22479895       0.95932960
N        0.29619215      -0.81923537       0.01749025
C        1.33752345       0.14174285      -0.43332619
C        0.71059567       1.20376212       0.49943265
O        0.90594229       2.38910044       0.63143243
H       -1.86420854      -1.38928761      -0.35863722
H       -1.21811115      -0.15313136      -1.48528277
H       -2.18439955       0.33394797      -0.14117347
H       -0.62246723      -0.00760089       1.93983303
H        0.63131637      -1.68612810       0.42359998
H        1.34072303       0.33001876      -1.50732788
H        2.32713105      -0.17537104      -0.09896569
13
Frame=8 idx=004823 GeodesicLength=0.3117357823103055 rxn_smarts="[C:1]([C@@:2]1([H:10])[N:3]([H:11])[C:4]([H:12])([H:13])[C:5]1=[O:6])([H:7])([H:8])[H:9]>>[C:1]([N+:3]1([H:11])[C:2]([H:10])=[C:5]([O-:6])[C:4]1([H:12])[H:13])([H:7])([H:8])[H:9]"
C       -1.43231550      -0.39241193      -0.44689345
C       -0.23337620       0.21785161       0.95453622
N        0.29978468      -0.81514400       0.00965260
C        1.34406658       0.14829412      -0.43029068
C        0.71186617       1.20198241       0.50765572
O        0.89955148       2.38734150       0.64473412
H       -1.88807127      -1.37423177      -0.31352251
H       -1.23210593      -0.20455362      -1.49924939
H       -2.17044293       0.36372092      -0.17512069
H       -0.61203167      -0.02432012       1.93831642
H        0.63200846      -1.68490156       0.41081451
H        1.34682529       0.34597716      -1.50264240
H        2.33424085      -0.16960473      -0.09799047
13
Frame=9 idx=004823 GeodesicLength=0.35013159272924355 rxn_smarts="[C:1]([C@@:2]1([H:10])[N:3]([H:11])[C:4]([H:12])([H:13])[C:5]1=[O:6])([H:7])([H:8])[H:9]>>[C:1]([N+:3]1([H:11])[C:2]([H:10])=[C:5]([O-:6])[C:4]1([H:12])[H:13])([H:7])([H:8])[H:9]"
C       -1.43465204      -0.39236215      -0.44756263
C       -0.23655156       0.21104062       0.94964982
N        0.30330531      -0.81089103       0.00184602
C        1.35047898       0.15493675      -0.42726622
C        0.71328365       1.20009947       0.51611096
O        0.89349894       2.38535641       0.65836136
H       -1.91146690      -1.35679995      -0.26914856
H       -1.24713942      -0.25714156      -1.51091287
H       -2.15532508       0.39177210      -0.21027898
H       -0.60181312      -0.04084702       1.93639503
H        0.63256685      -1.68349537       0.39797041
H        1.35254277       0.36215425      -1.49784694
H        2.34127163      -0.16382252      -0.09731739
13
Frame=10 idx=004823 GeodesicLength=0.38842574245950406 rxn_smarts="[C:1]([C@@:2]1([H:10])[N:3]([H:11])[C:4]([H:12])([H:13])[C:5]1=[O:6])([H:7])([H:8])[H:9]>>[C:1]([N+:3]1([H:11])[C:2]([H:10])=[C:5]([O-:6])[C:4]1([H:12])[H:13])([H:7])([H:8])[H:9]"
C       -1.43693440      -0.39247084      -0.44838714
C       -0.23971570       0.20428586       0.94472933
N        0.30679930      -0.80654833      -0.00596845
C        1.35673453       0.16165628      -0.42422943
C        0.71477795       1.19812456       0.52482632
O        0.88750975       2.38323368       0.67225768
H       -1.93446561      -1.33694659      -0.22561541
H       -1.26337296      -0.31092312      -1.52019146
H       -2.13876083       0.41836631      -0.24676856
H       -0.59170791      -0.05727189       1.93413025
H        0.63309813      -1.68203246       0.38501211
H        1.35783104       0.37854731      -1.49293416
H        2.34820671      -0.15802079      -0.09686109
13
Frame=11 idx=004823 GeodesicLength=0.42657195482687355 rxn_smarts="[C:1]([C@@:2]1([H:10])[N:3]([H:11])[C:4]([H:12])([H:13])[C:5]1=[O:6])([H:7])([H:8])[H:9]>>[C:1]([N+:3]1([H:11])[C:2]([H:10])=[C:5]([O-:6])[C:4]1([H:12])[H:13])([H:7])([H:8])[H:9]"
C       -1.43918073      -0.39279162      -0.44934564
C       -0.24293241       0.19767346       0.93965874
N        0.31020572      -0.80203174      -0.01378056
C        1.36286501       0.16846837      -0.42117955
C        0.71641163       1.19605053       0.53370390
O        0.88188153       2.38088387       0.68641464
H       -1.95699920      -1.31480505      -0.18316215
H       -1.28066990      -0.36545688      -1.52683293
H       -2.12109340       0.44293127      -0.28436332
H       -0.58177494      -0.07351400       1.93139786
H        0.63345893      -1.68036703       0.37198460
H        1.36280573       0.39514126      -1.48785857
H        2.35502203      -0.15218244      -0.09663702
13
Frame=12 idx=004823 GeodesicLength=0.46461707348704584 rxn_smarts="[C:1]([C@@:2]1([H:10])[N:3]([H:11])[C:4]([H:12])([H:13])[C:5]1=[O:6])([H:7])([H:8])[H:9]>>[C:1]([N+:3]1([H:11])[C:2]([H:10])=[C:5]([O-:6])[C:4]1([H:12])[H:13])([H:7])([H:8])[H:9]"
C       -1.44147239      -0.39335156      -0.45044699
C       -0.24615398       0.19117279       0.93453588
N        0.31360724      -0.79740576      -0.02165258
C        1.36893079       0.17535125      -0.41813108
C        0.71812302       1.19391911       0.54280648
O        0.87642136       2.37841437       0.70093389
H       -1.97922104      -1.29034412      -0.14181178
H       -1.29923565      -0.42080137      -1.53085962
H       -2.10226531       0.46567028      -0.32323971
H       -0.57194833      -0.08959857       1.92836030
H        0.63384413      -1.67861098       0.35880890
H        1.36750436       0.41190675      -1.48270761
H        2.36186581      -0.14632219      -0.09659609
13
Frame=13 idx=004823 GeodesicLength=0.5027257625731174 rxn_smarts="[C:1]([C@@:2]1([H:10])[N:3]([H:11])[C:4]([H:12])([H:13])[C:5]1=[O:6])([H:7])([H:8])[H:9]>>[C:1]([N+:3]1([H:11])[C:2]([H:10])=[C:5]([O-:6])[C:4]1([H:12])[H:13])([H:7])([H:8])[H:9]"
C       -1.44378710      -0.39416981      -0.45163024
C       -0.24936708       0.18469558       0.92935582
N        0.31699493      -0.79264990      -0.02962828
C        1.37490972       0.18236004      -0.41508073
C        0.71987303       1.19168354       0.55213626
O        0.87102491       2.37575514       0.71583616
H       -2.00130086      -1.26337116      -0.10144897
H       -1.31906870      -0.47714338      -1.53205413
H       -2.08195215       0.48665092      -0.36365342
H       -0.56219166      -0.10569736       1.92498305
H        0.63423844      -1.67673593       0.34537118
H        1.37193304       0.42896190      -1.47742744
H        2.36869348      -0.14033958      -0.09675926
13
Frame=14 idx=004823 GeodesicLength=0.5407757228861898 rxn_smarts="[C:1]([C@@:2]1([H:10])[N:3]([H:11])[C:4]([H:12])([H:13])[C:5]1=[O:6])([H:7])([H:8])[H:9]>>[C:1]([N+:3]1([H:11])[C:2]([H:10])=[C:5]([O-:6])[C:4]1([H:12])[H:13])([H:7])([H:8])[H:9]"
C       -1.44608545      -0.39526888      -0.45288032
C       -0.25262449       0.17832195       0.92401292
N        0.32031230      -0.78770439      -0.03768106
C        1.38074502       0.18949970      -0.41203874
C        0.72165091       1.18934246       0.56158397
O        0.86597286       2.37281624       0.73118180
H       -2.02302174      -1.23397781      -0.06221317
H       -1.33996363      -0.53404053      -1.53023860
H       -2.06043316       0.50537620      -0.40549329
H       -0.55252772      -0.12175382       1.92116358
H        0.63452663      -1.67466741       0.33174887
H        1.37608663       0.44634116      -1.47200309
H        2.37536185      -0.13428487      -0.09714288
13
Frame=15 idx=004823 GeodesicLength=0.5788480208493048 rxn_smarts="[C:1]([C@@:2]1([H:10])[N:3]([H:11])[C:4]([H:12])([H:13])[C:5]1=[O:6])([H:7])([H:8])[H:9]>>[C:1]([N+:3]1([H:11])[C:2]([H:10])=[C:5]([O-:6])[C:4]1([H:12])[H:13])([H:7])([H:8])[H:9]"
C       -1.44843506      -0.39667900      -0.45413708
C       -0.25584909       0.17197011       0.91853381
N        0.32358644      -0.78259839      -0.04589034
C        1.38654515       0.19674878      -0.40895906
C        0.72346926       1.18688949       0.57114232
O        0.86101729       2.36966123       0.74675062
H       -2.04450463      -1.20219070      -0.02434258
H       -1.36214648      -0.59118706      -1.52527445
H       -2.03764952       0.52176202      -0.44856037
H       -0.54295512      -0.13780308       1.91688854
H        0.63476245      -1.67241514       0.31782482
H        1.38014810       0.46393475      -1.46637214
H        2.38201122      -0.12809301      -0.09760410
13
Frame=16 idx=004823 GeodesicLength=0.6168894490193949 rxn_smarts="[C:1]([C@@:2]1([H:10])[N:3]([H:11])[C:4]([H:12])([H:13])[C:5]1=[O:6])([H:7])([H:8])[H:9]>>[C:1]([N+:3]1([H:11])[C:2]([H:10])=[C:5]([O-:6])[C:4]1([H:12])[H:13])([H:7])([H:8])[H:9]"
C       -1.45086075      -0.39840019      -0.45540948
C       -0.25905220       0.16567220       0.91294919
N        0.32684077      -0.77734208      -0.05426576
C        1.39230002       0.20410039      -0.40587076
C        0.72530220       1.18434543       0.58084539
O        0.85617828       2.36631577       0.76268548
H       -2.06574115      -1.16793647       0.01212517
H       -1.38555945      -0.64849633      -1.51713487
H       -2.01371963       0.53565544      -0.49297024
H       -0.53343573      -0.15385255       1.91224292
H        0.63501270      -1.67002520       0.30359107
H        1.38408041       0.48178345      -1.46060430
H        2.38865453      -0.12181985      -0.09818383
