11
Frame=0 idx=003029 GeodesicLength=0.0 rxn_smarts="[C:1]([C@@:2]([O:3][H:10])([C:4](=[O:5])[H:11])[H:9])([H:6])([H:7])[H:8]>>[C:1]([C@@:2]1([H:9])[O:3][C@:4]1([O:5][H:10])[H:11])([H:6])([H:7])[H:8]"
C        1.25766205      -0.40365226      -0.07355219
C        0.08987677       0.43336811       0.43650497
O       -0.24604492       1.52173367      -0.33078317
C       -1.25662382      -0.16366934       0.27107430
O       -1.72837350      -0.24765524      -0.91070162
H        2.14594486       0.22912858      -0.07063554
H        1.44738500      -1.28016508       0.55178998
H        1.07978015      -0.73008051      -1.10075811
H        0.24514667       0.66311217       1.50406034
H       -1.09171353       0.43480141      -1.34460200
H       -1.94303969      -0.45692154       1.06760307
11
Frame=1 idx=003029 GeodesicLength=0.06958568322984314 rxn_smarts="[C:1]([C@@:2]([O:3][H:10])([C:4](=[O:5])[H:11])[H:9])([H:6])([H:7])[H:8]>>[C:1]([C@@:2]1([H:9])[O:3][C@:4]1([O:5][H:10])[H:11])([H:6])([H:7])[H:8]"
C        1.25827921      -0.40515587      -0.07178576
C        0.09160019       0.43018967       0.43961231
O       -0.25633711       1.51210459      -0.33527142
C       -1.25755196      -0.15823802       0.26936350
O       -1.73165964      -0.24825870      -0.91244646
H        2.14662754       0.22751743      -0.07150802
H        1.44742287      -1.28049367       0.55518827
H        1.08007073      -0.73377881      -1.09813252
H        0.24613722       0.66823015       1.50477519
H       -1.09056496       0.45175429      -1.34951734
H       -1.93402409      -0.46387107       1.06972225
11
Frame=2 idx=003029 GeodesicLength=0.1391654263090208 rxn_smarts="[C:1]([C@@:2]([O:3][H:10])([C:4](=[O:5])[H:11])[H:9])([H:6])([H:7])[H:8]>>[C:1]([C@@:2]1([H:9])[O:3][C@:4]1([O:5][H:10])[H:11])([H:6])([H:7])[H:8]"
C        1.25883093      -0.40662408      -0.07003465
C        0.09322962       0.42704865       0.44267310
O       -0.26646743       1.50259339      -0.33953486
C       -1.25851069      -0.15284608       0.26769245
O       -1.73512975      -0.24898940      -0.91404864
H        2.14726107       0.22590505      -0.07233569
H        1.44738138      -1.28081041       0.55853333
H        1.08030895      -0.73740027      -1.09553138
H        0.24711591       0.67334392       1.50538380
H       -1.08915931       0.46853899      -1.35456103
H       -1.92486068      -0.47075976       1.07176356
11
Frame=3 idx=003029 GeodesicLength=0.2087465696477238 rxn_smarts="[C:1]([C@@:2]([O:3][H:10])([C:4](=[O:5])[H:11])[H:9])([H:6])([H:7])[H:8]>>[C:1]([C@@:2]1([H:9])[O:3][C@:4]1([O:5][H:10])[H:11])([H:6])([H:7])[H:8]"
C        1.25932815      -0.40805631      -0.06830547
C        0.09476655       0.42392866       0.44569563
O       -0.27645699       1.49319100      -0.34357057
C       -1.25949458      -0.14752549       0.26606533
O       -1.73877924      -0.24987670      -0.91550241
H        2.14784816       0.22430770      -0.07312608
H        1.44728241      -1.28112084       0.56181177
H        1.08050830      -0.74093873      -1.09296543
H        0.24808100       0.67843234       1.50589783
H       -1.08748154       0.48516940      -1.35973040
H       -1.91560223      -0.47751102       1.07372980
11
Frame=4 idx=003029 GeodesicLength=0.27831563788774194 rxn_smarts="[C:1]([C@@:2]([O:3][H:10])([C:4](=[O:5])[H:11])[H:9])([H:6])([H:7])[H:8]>>[C:1]([C@@:2]1([H:9])[O:3][C@:4]1([O:5][H:10])[H:11])([H:6])([H:7])[H:8]"
C        1.25976928      -0.40945569      -0.06659432
C        0.09621311       0.42083082       0.44868117
O       -0.28631352       1.48389537      -0.34739316
C       -1.26050576      -0.14227069       0.26448074
O       -1.74261893      -0.25090946      -0.91680215
H        2.14838775       0.22272111      -0.07388518
H        1.44712976      -1.28142006       0.56503624
H        1.08066096      -0.74440759      -1.09042556
H        0.24903200       0.68350260       1.50631624
H       -1.08552288       0.50167305      -1.36502938
H       -1.90623176      -0.48415947       1.07561536
11
Frame=5 idx=003029 GeodesicLength=0.3478935242407912 rxn_smarts="[C:1]([C@@:2]([O:3][H:10])([C:4](=[O:5])[H:11])[H:9])([H:6])([H:7])[H:8]>>[C:1]([C@@:2]1([H:9])[O:3][C@:4]1([O:5][H:10])[H:11])([H:6])([H:7])[H:8]"
C        1.26016583      -0.41081937      -0.06491019
C        0.09757261       0.41773326       0.45163713
O       -0.29605923       1.47468782      -0.35099464
C       -1.26153146      -0.13712277       0.26294038
O       -1.74663075      -0.25214008      -0.91794401
H        2.14888163       0.22116171      -0.07461304
H        1.44694709      -1.28171248       0.56818280
H        1.08078485      -0.74778857      -1.08792821
H        0.24996953       0.68852521       1.50664990
H       -1.08327572       0.51806833      -1.37045117
H       -1.89682438      -0.49059306       1.07743104
11
Frame=6 idx=003029 GeodesicLength=0.4174614051062249 rxn_smarts="[C:1]([C@@:2]([O:3][H:10])([C:4](=[O:5])[H:11])[H:9])([H:6])([H:7])[H:8]>>[C:1]([C@@:2]1([H:9])[O:3][C@:4]1([O:5][H:10])[H:11])([H:6])([H:7])[H:8]"
C        1.26051925      -0.41215046      -0.06325039
C        0.09884659       0.41463459       0.45456475
O       -0.30570345       1.46556660      -0.35438533
C       -1.26257406      -0.13208302       0.26143911
O       -1.75082453      -0.25355899      -0.91892917
H        2.14933007       0.21963005      -0.07532237
H        1.44674315      -1.28199311       0.57126608
H        1.08087492      -0.75109705      -1.08546506
H        0.25089259       0.69350262       1.50689869
H       -1.08072906       0.53438350      -1.37599586
H       -1.88737548      -0.49683471       1.07917956
11
Frame=7 idx=003029 GeodesicLength=0.48703233063418655 rxn_smarts="[C:1]([C@@:2]([O:3][H:10])([C:4](=[O:5])[H:11])[H:9])([H:6])([H:7])[H:8]>>[C:1]([C@@:2]1([H:9])[O:3][C@:4]1([O:5][H:10])[H:11])([H:6])([H:7])[H:8]"
C        1.26083747      -0.41344679      -0.06162108
C        0.10003834       0.41152093       0.45746838
O       -0.31526240       1.45651663      -0.35756577
C       -1.26362373      -0.12717902       0.25997876
O       -1.75518855      -0.25520620      -0.91974901
H        2.14973499       0.21813608      -0.07600606
H        1.44652981      -1.28226943       0.57426369
H        1.08094571      -0.75431512      -1.08304938
H        0.25179995       0.69841718       1.50706918
H       -1.07787434       0.55063490      -1.38166166
H       -1.87793724      -0.50280916       1.08087296
11
Frame=8 idx=003029 GeodesicLength=0.5565913564697526 rxn_smarts="[C:1]([C@@:2]([O:3][H:10])([C:4](=[O:5])[H:11])[H:9])([H:6])([H:7])[H:8]>>[C:1]([C@@:2]1([H:9])[O:3][C@:4]1([O:5][H:10])[H:11])([H:6])([H:7])[H:8]"
C        1.26112311      -0.41471066      -0.06002168
C        0.10114985       0.40838822       0.46034976
O       -0.32474555       1.44753344      -0.36054318
C       -1.26467993      -0.12241827       0.25855480
O       -1.75973145      -0.25707588      -0.92040444
H        2.15009602       0.21668335      -0.07667759
H        1.44632087      -1.28253489       0.57718746
H        1.08099436      -0.75745859      -1.08067553
H        0.25269057       0.70326863       1.50716286
H       -1.07469917       0.56685101      -1.38744798
H       -1.86851869      -0.50852636       1.08251553
11
Frame=9 idx=003029 GeodesicLength=0.6261575939956864 rxn_smarts="[C:1]([C@@:2]([O:3][H:10])([C:4](=[O:5])[H:11])[H:9])([H:6])([H:7])[H:8]>>[C:1]([C@@:2]1([H:9])[O:3][C@:4]1([O:5][H:10])[H:11])([H:6])([H:7])[H:8]"
C        1.26138415      -0.41594061      -0.05845902
C        0.10218346       0.40522188       0.46321160
O       -0.33416992       1.43860272      -0.36331544
C       -1.26573545      -0.11782770       0.25716440
O       -1.76444739      -0.25920239      -0.92089181
H        2.15041372       0.21528392      -0.07733847
H        1.44613444      -1.28279059       0.58002376
H        1.08103421      -0.76051915      -1.07835368
H        0.25356219       0.70803472       1.50718536
H       -1.07118839       0.58305321      -1.39334973
H       -1.85917102      -0.51391602       1.08412303
11
Frame=10 idx=003029 GeodesicLength=0.6957167826436271 rxn_smarts="[C:1]([C@@:2]([O:3][H:10])([C:4](=[O:5])[H:11])[H:9])([H:6])([H:7])[H:8]>>[C:1]([C@@:2]1([H:9])[O:3][C@:4]1([O:5][H:10])[H:11])([H:6])([H:7])[H:8]"
C        1.26162253      -0.41713845      -0.05693212
C        0.10314097       0.40201825       0.46605596
O       -0.34354155       1.42971958      -0.36588905
C       -1.26678856      -0.11341319       0.25580255
O       -1.76933544      -0.26158868      -0.92121160
H        2.15068671       0.21394075      -0.07800504
H        1.44598191      -1.28303066       0.58278197
H        1.08106079      -0.76351243      -1.07607740
H        0.25441196       0.71271717       1.50713802
H       -1.06733180       0.59927606      -1.39936567
H       -1.84990753      -0.51898840       1.08570238
11
Frame=11 idx=003029 GeodesicLength=0.7652732532938389 rxn_smarts="[C:1]([C@@:2]([O:3][H:10])([C:4](=[O:5])[H:11])[H:9])([H:6])([H:7])[H:8]>>[C:1]([C@@:2]1([H:9])[O:3][C@:4]1([O:5][H:10])[H:11])([H:6])([H:7])[H:8]"
C        1.26183395      -0.41830732      -0.05543726
C        0.10402327       0.39878428       0.46888071
O       -0.35286550       1.42088320      -0.36828293
C       -1.26784275      -0.10916355       0.25446902
O       -1.77440947      -0.26422693      -0.92135535
H        2.15091354       0.21264653      -0.07867724
H        1.44585486      -1.28325420       0.58547274
H        1.08106645      -0.76644710      -1.07384097
H        0.25523985       0.71733316       1.50701648
H       -1.06310993       0.61554855      -1.40550189
H       -1.84070428      -0.52379661       1.08725671
11
Frame=12 idx=003029 GeodesicLength=0.8348320958386243 rxn_smarts="[C:1]([C@@:2]([O:3][H:10])([C:4](=[O:5])[H:11])[H:9])([H:6])([H:7])[H:8]>>[C:1]([C@@:2]1([H:9])[O:3][C@:4]1([O:5][H:10])[H:11])([H:6])([H:7])[H:8]"
C        1.26202024      -0.41944805      -0.05397630
C        0.10483145       0.39551457       0.47168592
O       -0.36215158       1.41208485      -0.37050445
C       -1.26889508      -0.10509066       0.25316023
O       -1.77967028      -0.26713272      -0.92131986
H        2.15109422       0.21140338      -0.07935837
H        1.44575911      -1.28346057       0.58809569
H        1.08105392      -0.76932632      -1.07164531
H        0.25604329       0.72188380       1.50681859
H       -1.05850758       0.63190330      -1.41175377
H       -1.83157771      -0.52833158       1.08879764
11
Frame=13 idx=003029 GeodesicLength=0.9043895084020734 rxn_smarts="[C:1]([C@@:2]([O:3][H:10])([C:4](=[O:5])[H:11])[H:9])([H:6])([H:7])[H:8]>>[C:1]([C@@:2]1([H:9])[O:3][C@:4]1([O:5][H:10])[H:11])([H:6])([H:7])[H:8]"
C        1.26218476      -0.42056017      -0.05255213
C        0.10556706       0.39220253       0.47447193
O       -0.37141031       1.40331317      -0.37255902
C       -1.26994260      -0.10120926       0.25187331
O       -1.78511513      -0.27032833      -0.92109966
H        2.15122751       0.21021861      -0.08005150
H        1.44570269      -1.28365089       0.59064382
H        1.08102847      -0.77214571      -1.06949479
H        0.25682016       0.72635876       1.50654589
H       -1.05350542       0.64836446      -1.41811839
H       -1.82255718      -0.53256318       1.09034054
11
Frame=14 idx=003029 GeodesicLength=0.9739513619647863 rxn_smarts="[C:1]([C@@:2]([O:3][H:10])([C:4](=[O:5])[H:11])[H:9])([H:6])([H:7])[H:8]>>[C:1]([C@@:2]1([H:9])[O:3][C@:4]1([O:5][H:10])[H:11])([H:6])([H:7])[H:8]"
C        1.26232779      -0.42164715      -0.05116170
C        0.10623043       0.38885087       0.47723779
O       -0.38065040       1.39456766      -0.37445921
C       -1.27099054      -0.09751665       0.25060540
O       -1.79075765      -0.27381253      -0.92069293
H        2.15131442       0.20908991      -0.08077189
H        1.44569147      -1.28381914       0.59313575
H        1.08098265      -0.77492376      -1.06738163
H        0.25757028       0.73076696       1.50619703
H       -1.04808358       0.66497286      -1.42459772
H       -1.81363488      -0.53652903       1.09188911
11
Frame=15 idx=003029 GeodesicLength=1.0435099208622693 rxn_smarts="[C:1]([C@@:2]([O:3][H:10])([C:4](=[O:5])[H:11])[H:9])([H:6])([H:7])[H:8]>>[C:1]([C@@:2]1([H:9])[O:3][C@:4]1([O:5][H:10])[H:11])([H:6])([H:7])[H:8]"
C        1.26244234      -0.42270965      -0.04980669
C        0.10682000       0.38545977       0.47998103
O       -0.38987816       1.38583755      -0.37621385
C       -1.27203317      -0.09401257       0.24935588
O       -1.79658195      -0.27760560      -0.92008947
H        2.15134456       0.20801325      -0.08152311
H        1.44571522      -1.28395946       0.59556992
H        1.08091134      -0.77766620      -1.06530433
H        0.25828769       0.73511603       1.50576568
H       -1.04222181       0.68176576      -1.43118253
H       -1.80480605      -0.54023888       1.09344746
11
Frame=16 idx=003029 GeodesicLength=1.1130724738151958 rxn_smarts="[C:1]([C@@:2]([O:3][H:10])([C:4](=[O:5])[H:11])[H:9])([H:6])([H:7])[H:8]>>[C:1]([C@@:2]1([H:9])[O:3][C@:4]1([O:5][H:10])[H:11])([H:6])([H:7])[H:8]"
C        1.26253558      -0.42374798      -0.04848916
C        0.10733738       0.38202261       0.48270154
O       -0.39910592       1.37711406      -0.37783355
C       -1.27307589      -0.09071428       0.24812056
O       -1.80261327      -0.28171715      -0.91928455
H        2.15132297       0.20699939      -0.08230815
H        1.44579150      -1.28407577       0.59794550
H        1.08082069      -0.78037295      -1.06326594
H        0.25897141       0.73939966       1.50525243
H       -1.03588750       0.69876834      -1.43787375
H       -1.79609693      -0.54367592       1.09503507
