14
Frame=0 idx=005732 GeodesicLength=0.0 rxn_smarts="[C:1]([C@@:2]1([H:10])[C:3]([H:11])([H:12])[C:4]([H:13])([H:14])[C:5]1=[O:6])([H:7])([H:8])[H:9]>>[C:1]([C@@:2]1([H:10])[C:3]([H:11])([H:12])[C:4]([H:13])=[C:5]1[O:6][H:14])([H:7])([H:8])[H:9]"
C        1.61301983      -0.60462477       0.25918837
C        0.55340394       0.39769276      -0.14339738
C       -0.55785890      -0.01966902      -1.16960164
C       -1.60113548       0.34517899      -0.12050464
C       -0.59790555       0.61355821       0.81162024
O       -0.75025336       0.55477843       2.09066578
H        2.15702120      -0.25616749       1.13801584
H        1.15976037      -1.56692840       0.50811226
H        2.33000661      -0.76483839      -0.54769154
H        0.99097809       1.35703582      -0.43024338
H       -0.58156141       0.57951502      -2.08084175
H       -0.51058377      -1.07728703      -1.43566903
H       -2.64553274       0.61793840      -0.18043516
H       -1.55935877      -0.17618247       1.30078202
14
Frame=1 idx=005732 GeodesicLength=0.06180669850305111 rxn_smarts="[C:1]([C@@:2]1([H:10])[C:3]([H:11])([H:12])[C:4]([H:13])([H:14])[C:5]1=[O:6])([H:7])([H:8])[H:9]>>[C:1]([C@@:2]1([H:10])[C:3]([H:11])([H:12])[C:4]([H:13])=[C:5]1[O:6][H:14])([H:7])([H:8])[H:9]"
C        1.61740817      -0.60177023       0.25652620
C        0.55325272       0.39694809      -0.14331307
C       -0.55803455      -0.02434488      -1.16694603
C       -1.60178107       0.34049209      -0.11764447
C       -0.59574027       0.61047057       0.81442845
O       -0.75290533       0.54295711       2.09132870
H        2.16407730      -0.25070381       1.13269540
H        1.16771637      -1.56499620       0.50833411
H        2.33169932      -0.76076306      -0.55303852
H        0.98790497       1.35791316      -0.42963766
H       -0.58306002       0.57094404      -2.08065258
H       -0.51006235      -1.08294173      -1.42904874
H       -2.63557463       0.64867847      -0.19079754
H       -1.58490062      -0.18288361       1.30776576
14
Frame=2 idx=005732 GeodesicLength=0.12356489436625384 rxn_smarts="[C:1]([C@@:2]1([H:10])[C:3]([H:11])([H:12])[C:4]([H:13])([H:14])[C:5]1=[O:6])([H:7])([H:8])[H:9]>>[C:1]([C@@:2]1([H:10])[C:3]([H:11])([H:12])[C:4]([H:13])=[C:5]1[O:6][H:14])([H:7])([H:8])[H:9]"
C        1.62177091      -0.59886011       0.25381293
C        0.55316349       0.39632080      -0.14325854
C       -0.55824769      -0.02892018      -1.16418058
C       -1.60240973       0.33633476      -0.11470896
C       -0.59340985       0.60781051       0.81725023
O       -0.75559398       0.53016862       2.09186696
H        2.17120656      -0.24512979       1.12721842
H        1.17556979      -1.56290522       0.50868045
H        2.33325621      -0.75681932      -0.55847726
H        0.98497076       1.35882676      -0.42918058
H       -0.58452291       0.56228494      -2.08045484
H       -0.50975337      -1.08854106      -1.42210961
H       -2.62465513       0.67841008      -0.20100432
H       -1.61134504      -0.18898079       1.31454571
14
Frame=3 idx=005732 GeodesicLength=0.18530827180712575 rxn_smarts="[C:1]([C@@:2]1([H:10])[C:3]([H:11])([H:12])[C:4]([H:13])([H:14])[C:5]1=[O:6])([H:7])([H:8])[H:9]>>[C:1]([C@@:2]1([H:10])[C:3]([H:11])([H:12])[C:4]([H:13])=[C:5]1[O:6][H:14])([H:7])([H:8])[H:9]"
C        1.62612650      -0.59589078       0.25104591
C        0.55315148       0.39581310      -0.14323565
C       -0.55848814      -0.03340022      -1.16129796
C       -1.60299962       0.33269631      -0.11168625
C       -0.59089110       0.60559588       0.82009155
O       -0.75833657       0.51633371       2.09223915
H        2.17842953      -0.23943956       1.12157654
H        1.18334155      -1.56064978       0.50915611
H        2.33469170      -0.75300721      -0.56401152
H        0.98219011       1.35977717      -0.42888409
H       -0.58595375       0.55352757      -2.08023976
H       -0.50964554      -1.09408852      -1.41483554
H       -2.61286691       0.70715105      -0.21102878
H       -1.63874925      -0.19441872       1.32111029
14
Frame=4 idx=005732 GeodesicLength=0.2470891411809198 rxn_smarts="[C:1]([C@@:2]1([H:10])[C:3]([H:11])([H:12])[C:4]([H:13])([H:14])[C:5]1=[O:6])([H:7])([H:8])[H:9]>>[C:1]([C@@:2]1([H:10])[C:3]([H:11])([H:12])[C:4]([H:13])=[C:5]1[O:6][H:14])([H:7])([H:8])[H:9]"
C        1.63049209      -0.59285938       0.24822271
C        0.55323119       0.39542785      -0.14324578
C       -0.55874658      -0.03778901      -1.15829041
C       -1.60353311       0.32956859      -0.10856191
C       -0.58816298       0.60384666       0.82295738
O       -0.76114028       0.50138102       2.09240700
H        2.18576655      -0.23362735       1.11576196
H        1.19104807      -1.55822428       0.50976578
H        2.33602027      -0.74932997      -0.56964538
H        0.97957937       1.36076496      -0.42875947
H       -0.58735380       0.54466633      -2.07999705
H       -0.50972753      -1.09958733      -1.40721385
H       -2.60030246       0.73490875      -0.22085174
H       -1.66717078      -0.19914684       1.32745077
14
Frame=5 idx=005732 GeodesicLength=0.30893373809804864 rxn_smarts="[C:1]([C@@:2]1([H:10])[C:3]([H:11])([H:12])[C:4]([H:13])([H:14])[C:5]1=[O:6])([H:7])([H:8])[H:9]>>[C:1]([C@@:2]1([H:10])[C:3]([H:11])([H:12])[C:4]([H:13])=[C:5]1[O:6][H:14])([H:7])([H:8])[H:9]"
C        1.63489102      -0.58976048       0.24533696
C        0.55341742       0.39516460      -0.14328889
C       -0.55901511      -0.04209657      -1.15514417
C       -1.60398598       0.32692662      -0.10531359
C       -0.58519536       0.60256783       0.82586289
O       -0.76405097       0.48521069       2.09229338
H        2.19324485      -0.22768553       1.10975933
H        1.19872400      -1.55562272       0.51051110
H        2.33725655      -0.74578030      -0.57538764
H        0.97714504       1.36178998      -0.42881728
H       -0.58873837       0.53568502      -2.07970913
H       -0.50998451      -1.10504128      -1.39922247
H       -2.58701055       0.76171456      -0.23043970
H       -1.69669802      -0.20307243       1.33355921
14
Frame=6 idx=005732 GeodesicLength=0.37084208275033026 rxn_smarts="[C:1]([C@@:2]1([H:10])[C:3]([H:11])([H:12])[C:4]([H:13])([H:14])[C:5]1=[O:6])([H:7])([H:8])[H:9]>>[C:1]([C@@:2]1([H:10])[C:3]([H:11])([H:12])[C:4]([H:13])=[C:5]1[O:6][H:14])([H:7])([H:8])[H:9]"
C        1.63934479      -0.58659109       0.24238332
C        0.55372313       0.39502211      -0.14336222
C       -0.55928555      -0.04633154      -1.15184624
C       -1.60434165       0.32474155      -0.10191846
C       -0.58196645       0.60175915       0.82882448
O       -0.76709573       0.46774465       2.09182978
H        2.20088944      -0.22160927       1.10355629
H        1.20639829      -1.55284395       0.51138869
H        2.33841778      -0.74235390      -0.58124732
H        0.97489442       1.36285330      -0.42906036
H       -0.59011633       0.52657820      -2.07935630
H       -0.51040058      -1.11045583      -1.39084680
H       -2.57306774       0.78759040      -0.23978280
H       -1.72739383      -0.20610377       1.33943794
14
Frame=7 idx=005732 GeodesicLength=0.43285061352660825 rxn_smarts="[C:1]([C@@:2]1([H:10])[C:3]([H:11])([H:12])[C:4]([H:13])([H:14])[C:5]1=[O:6])([H:7])([H:8])[H:9]>>[C:1]([C@@:2]1([H:10])[C:3]([H:11])([H:12])[C:4]([H:13])=[C:5]1[O:6][H:14])([H:7])([H:8])[H:9]"
C        1.64387527      -0.58334665       0.23935499
C        0.55416077       0.39499913      -0.14346415
C       -0.55955021      -0.05050312      -1.14838277
C       -1.60458380       0.32298981      -0.09835304
C       -0.57845141       0.60141900       0.83185727
O       -0.77030910       0.44889646       2.09094829
H        2.20872673      -0.21539104       1.09713899
H        1.21410237      -1.54988415       0.51239602
H        2.33951945      -0.73904470      -0.58723481
H        0.97283227       1.36395528      -0.42949345
H       -0.59149678       0.51733619      -2.07892074
H       -0.51096103      -1.11583836      -1.38206806
H       -2.55853447       0.81256187      -0.24886826
H       -1.75933008      -0.20814972       1.34508971
14
Frame=8 idx=005732 GeodesicLength=0.4948965458189656 rxn_smarts="[C:1]([C@@:2]1([H:10])[C:3]([H:11])([H:12])[C:4]([H:13])([H:14])[C:5]1=[O:6])([H:7])([H:8])[H:9]>>[C:1]([C@@:2]1([H:10])[C:3]([H:11])([H:12])[C:4]([H:13])=[C:5]1[O:6][H:14])([H:7])([H:8])[H:9]"
C        1.64850943      -0.58002316       0.23624206
C        0.55474108       0.39508917      -0.14358684
C       -0.55980319      -0.05462542      -1.14473492
C       -1.60469497       0.32163094      -0.09458777
C       -0.57462133       0.60151576       0.83499202
O       -0.77376774       0.42857789       2.08954064
H        2.21678858      -0.20902838       1.09048893
H        1.22188471      -1.54674698       0.51352073
H        2.34057820      -0.73583445      -0.59336659
H        0.97095162       1.36509762      -0.43010779
H       -0.59289669       0.50794787      -2.07837713
H       -0.51164886      -1.12119743      -1.37286602
H       -2.54345604       0.83666231      -0.25768561
H       -1.79256480      -0.20906572       1.35052830
14
Frame=9 idx=005732 GeodesicLength=0.5567803268564608 rxn_smarts="[C:1]([C@@:2]1([H:10])[C:3]([H:11])([H:12])[C:4]([H:13])([H:14])[C:5]1=[O:6])([H:7])([H:8])[H:9]>>[C:1]([C@@:2]1([H:10])[C:3]([H:11])([H:12])[C:4]([H:13])=[C:5]1[O:6][H:14])([H:7])([H:8])[H:9]"
C        1.65326301      -0.57660233       0.23303270
C        0.55543932       0.39527705      -0.14371214
C       -0.56005106      -0.05874029      -1.14088585
C       -1.60470332       0.32064180      -0.09061219
C       -0.57050970       0.60196343       0.83826473
O       -0.77747483       0.40666960       2.08752751
H        2.22508238      -0.20249309       1.08359955
H        1.22979766      -1.54343744       0.51473140
H        2.34161529      -0.73266609      -0.59966205
H        0.96919372       1.36628652      -0.43086587
H       -0.59431040       0.49836918      -2.07771240
H       -0.51246044      -1.12658413      -1.36321170
H       -2.52778110       0.86002458      -0.26627410
H       -1.82710052      -0.20870880       1.35578041
14
Frame=10 idx=005732 GeodesicLength=0.6186794085348656 rxn_smarts="[C:1]([C@@:2]1([H:10])[C:3]([H:11])([H:12])[C:4]([H:13])([H:14])[C:5]1=[O:6])([H:7])([H:8])[H:9]>>[C:1]([C@@:2]1([H:10])[C:3]([H:11])([H:12])[C:4]([H:13])=[C:5]1[O:6][H:14])([H:7])([H:8])[H:9]"
C        1.65816325      -0.57309766       0.22972119
C        0.55629513       0.39556276      -0.14384401
C       -0.56027651      -0.06282898      -1.13682311
C       -1.60455904       0.31995831      -0.08638106
C       -0.56603980       0.60277539       0.84169479
O       -0.78156649       0.38317851       2.08478591
H        2.23364815      -0.19581193       1.07645003
H        1.23786934      -1.53996292       0.51602364
H        2.34264194      -0.72956186      -0.60612914
H        0.96760063       1.36751753      -0.43177960
H       -0.59577172       0.48863885      -2.07688942
H       -0.51336035      -1.13195794      -1.35311562
H       -2.51162712       0.88253749      -0.27456399
H       -1.86301740      -0.20694755       1.36085039
14
Frame=11 idx=005732 GeodesicLength=0.6806122677671583 rxn_smarts="[C:1]([C@@:2]1([H:10])[C:3]([H:11])([H:12])[C:4]([H:13])([H:14])[C:5]1=[O:6])([H:7])([H:8])[H:9]>>[C:1]([C@@:2]1([H:10])[C:3]([H:11])([H:12])[C:4]([H:13])=[C:5]1[O:6][H:14])([H:7])([H:8])[H:9]"
C        1.66322593      -0.56950836       0.22630008
C        0.55731073       0.39593679      -0.14397470
C       -0.56047696      -0.06690142      -1.13253439
C       -1.60426133       0.31953711      -0.08186753
C       -0.56119918       0.60390572       0.84530832
O       -0.78610925       0.35809523       2.08121923
H        2.24250176      -0.18898660       1.06903118
H        1.24613302      -1.53633137       0.51737437
H        2.34367422      -0.72650353      -0.61277637
H        0.96615998       1.36878996      -0.43283096
H       -0.59729319       0.47876014      -2.07588208
H       -0.51432969      -1.13732345      -1.34257872
H       -2.49501117       0.90420447      -0.28253644
H       -1.90032485      -0.20367469       1.36574799
14
Frame=12 idx=005732 GeodesicLength=0.7425882924640848 rxn_smarts="[C:1]([C@@:2]1([H:10])[C:3]([H:11])([H:12])[C:4]([H:13])([H:14])[C:5]1=[O:6])([H:7])([H:8])[H:9]>>[C:1]([C@@:2]1([H:10])[C:3]([H:11])([H:12])[C:4]([H:13])=[C:5]1[O:6][H:14])([H:7])([H:8])[H:9]"
C        1.66846248      -0.56584175       0.22276611
C        0.55849189       0.39638815      -0.14409597
C       -0.56064727      -0.07095822      -1.12801185
C       -1.60380339       0.31931576      -0.07704343
C       -0.55596747       0.60530300       0.84913410
O       -0.79120395       0.33148530       2.07670906
H        2.25165287      -0.18203399       1.06133969
H        1.25461469      -1.53256256       0.51875644
H        2.34472348      -0.72348016      -0.61960919
H        0.96486522       1.37010273      -0.43399630
H       -0.59889357       0.46876022      -2.07466268
H       -0.51534113      -1.14267142      -1.33161932
H       -2.47797375       0.92499505      -0.29015952
H       -1.93898011      -0.19880212       1.37049288
14
Frame=13 idx=005732 GeodesicLength=0.8046215547560169 rxn_smarts="[C:1]([C@@:2]1([H:10])[C:3]([H:11])([H:12])[C:4]([H:13])([H:14])[C:5]1=[O:6])([H:7])([H:8])[H:9]>>[C:1]([C@@:2]1([H:10])[C:3]([H:11])([H:12])[C:4]([H:13])=[C:5]1[O:6][H:14])([H:7])([H:8])[H:9]"
C        1.67387450      -0.56211017       0.21912038
C        0.55984004       0.39690467      -0.14420166
C       -0.56078308      -0.07499329      -1.12325516
C       -1.60318646       0.31924051      -0.07188699
C       -0.55033358       0.60691542       0.85318878
O       -0.79693858       0.30349141       2.07117185
H        2.26109858      -0.17498058       1.05338041
H        1.26332394      -1.52867773       0.52014144
H        2.34579706      -0.72048788      -0.62662088
H        0.96371133       1.37144968      -0.43524983
H       -0.60058443       0.45867853      -2.07320898
H       -0.51636790      -1.14798638      -1.32027245
H       -2.46057416       0.94486703      -0.29739992
H       -1.97887726      -0.19231121       1.37509301
14
Frame=14 idx=005732 GeodesicLength=0.8666643452295302 rxn_smarts="[C:1]([C@@:2]1([H:10])[C:3]([H:11])([H:12])[C:4]([H:13])([H:14])[C:5]1=[O:6])([H:7])([H:8])[H:9]>>[C:1]([C@@:2]1([H:10])[C:3]([H:11])([H:12])[C:4]([H:13])=[C:5]1[O:6][H:14])([H:7])([H:8])[H:9]"
C        1.67945222      -0.55833690       0.21537040
C        0.56135472       0.39747178      -0.14428446
C       -0.56087979      -0.07899042      -1.11827592
C       -1.60241365       0.31923640      -0.06638495
C       -0.54429079       0.60868147       0.85749096
O       -0.80341854       0.27435971       2.06451547
H        2.27082047      -0.16786847       1.04517441
H        1.27225353      -1.52471328       0.52149729
H        2.34689732      -0.71752922      -0.63379705
H        0.96269718       1.37282638      -0.43655664
H       -0.60238174       0.44858046      -2.07150216
H       -0.51737726      -1.15323893      -1.30860315
H       -2.44288904       0.96374654      -0.30421217
H       -2.01982464      -0.18422553       1.37956796
14
Frame=15 idx=005732 GeodesicLength=0.9287074739284935 rxn_smarts="[C:1]([C@@:2]1([H:10])[C:3]([H:11])([H:12])[C:4]([H:13])([H:14])[C:5]1=[O:6])([H:7])([H:8])[H:9]>>[C:1]([C@@:2]1([H:10])[C:3]([H:11])([H:12])[C:4]([H:13])=[C:5]1[O:6][H:14])([H:7])([H:8])[H:9]"
C        1.68517098      -0.55455354       0.21153264
C        0.56303377       0.39807704      -0.14434282
C       -0.56093386      -0.08291993      -1.11309578
C       -1.60149291       0.31924035      -0.06053203
C       -0.53783935       0.61055987       0.86203870
O       -0.81072373       0.24445934       2.05670290
H        2.28078324      -0.16075308       1.03675374
H        1.28136592      -1.52070636       0.52279985
H        2.34801746      -0.71462706      -0.64110632
H        0.96183325       1.37422166      -0.43788970
H       -0.60429683       0.43855115      -2.06953129
H       -0.51833867      -1.15838677      -1.29669806
H       -2.42502012       0.98155330      -0.31054662
H       -2.06155913      -0.17471595       1.38391480
14
Frame=16 idx=005732 GeodesicLength=0.9907216838816097 rxn_smarts="[C:1]([C@@:2]1([H:10])[C:3]([H:11])([H:12])[C:4]([H:13])([H:14])[C:5]1=[O:6])([H:7])([H:8])[H:9]>>[C:1]([C@@:2]1([H:10])[C:3]([H:11])([H:12])[C:4]([H:13])=[C:5]1[O:6][H:14])([H:7])([H:8])[H:9]"
C        1.69099177      -0.55080185       0.20763245
C        0.56487333       0.39870908      -0.14437841
C       -0.56094242      -0.08674055      -1.10774863
C       -1.60043512       0.31919121      -0.05433412
C       -0.53098613       0.61252172       0.86682032
O       -0.81891570       0.21428416       2.04772980
H        2.29093575      -0.15370293       1.02816462
H        1.29059563      -1.51670263       0.52403262
H        2.34914204      -0.71182173      -0.64850475
H        0.96114070       1.37562297      -0.43922486
H       -0.60633843       0.42869754      -2.06729687
H       -0.51922305      -1.16337618      -1.28466860
H       -2.40709109       0.99820243      -0.31634698
H       -2.10374727      -0.16408325       1.38812340
