16
Frame=0 idx=008685 GeodesicLength=0.0 rxn_smarts="[C:1]([N:2]([C:3]([C:4](=[O:5])[O:6][C:7]([H:14])([H:15])[H:16])([H:12])[H:13])[H:11])([H:8])([H:9])[H:10]>>[C:1]([N:2]([C:3]([C:4](=[O:5])[H:15])([H:12])[H:13])[H:11])([H:8])([H:9])[H:10].[O:6]=[C:7]([H:14])[H:16]"
C       -1.96004235       0.67262364      -0.47760797
N       -1.66937887      -0.43814866       0.40722151
C       -0.31755049      -0.52850217       0.87121998
C        0.67868886      -0.73841780      -0.27537455
O        0.74073857      -1.54262455      -1.13314060
O        2.20239456      -0.59395221       0.82994968
C        2.33896090       0.39760549       0.01924725
H       -1.71589213       1.61050046       0.02705679
H       -3.02686482       0.68655324      -0.70087100
H       -1.41355393       0.64419275      -1.43116436
H       -1.97462430      -1.31447715       0.00906664
H       -0.20779781      -1.39043669       1.52800935
H       -0.03577129       0.36495169       1.42618014
H        2.39385059       1.42308777       0.42036202
H        1.08638973       0.49057602      -0.59149851
H        2.88045274       0.25646817      -0.92865642
16
Frame=1 idx=008685 GeodesicLength=0.10134661514038579 rxn_smarts="[C:1]([N:2]([C:3]([C:4](=[O:5])[O:6][C:7]([H:14])([H:15])[H:16])([H:12])[H:13])[H:11])([H:8])([H:9])[H:10]>>[C:1]([N:2]([C:3]([C:4](=[O:5])[H:15])([H:12])[H:13])[H:11])([H:8])([H:9])[H:10].[O:6]=[C:7]([H:14])[H:16]"
C       -1.99349825       0.65982514      -0.47633647
N       -1.68311605      -0.44825657       0.40554720
C       -0.32931828      -0.51272959       0.86925793
C        0.67241382      -0.71233521      -0.27248393
O        0.72340963      -1.50322239      -1.14536417
O        2.20332846      -0.60373684       0.82538901
C        2.38398116       0.38736968       0.02019669
H       -1.77667376       1.60048511       0.03558465
H       -3.05847190       0.64845559      -0.70855023
H       -1.43899151       0.64930205      -1.42552920
H       -1.96756308      -1.32865951       0.00080249
H       -0.20744235      -1.36604320       1.53573585
H       -0.06241490       0.38864927       1.41931392
H        2.50187902       1.40157551       0.43458189
H        1.11688612       0.51916759      -0.58924588
H        2.91559187       0.22015337      -0.92889976
16
Frame=2 idx=008685 GeodesicLength=0.20185825606935826 rxn_smarts="[C:1]([N:2]([C:3]([C:4](=[O:5])[O:6][C:7]([H:14])([H:15])[H:16])([H:12])[H:13])[H:11])([H:8])([H:9])[H:10]>>[C:1]([N:2]([C:3]([C:4](=[O:5])[H:15])([H:12])[H:13])[H:11])([H:8])([H:9])[H:10].[O:6]=[C:7]([H:14])[H:16]"
C       -2.02762332       0.64622382      -0.47512956
N       -1.69665798      -0.45857771       0.40376627
C       -0.34138928      -0.49594377       0.86731481
C        0.66621142      -0.68418095      -0.26933675
O        0.70660466      -1.46096521      -1.15744926
O        2.20396671      -0.61233135       0.82052539
C        2.42964612       0.37630932       0.02103487
H       -1.83912165       1.58898994       0.04408853
H       -3.08999223       0.60878640      -0.71650343
H       -1.46546480       0.65456888      -1.41973908
H       -1.95943836      -1.34273639      -0.00760724
H       -0.20697330      -1.34022610       1.54344425
H       -0.09050417       0.41336322       1.41242842
H        2.61272546       1.37453683       0.44883013
H        1.14854695       0.54897449      -0.58613092
H        2.94946377       0.18320858      -0.92953643
16
Frame=3 idx=008685 GeodesicLength=0.3015356511868635 rxn_smarts="[C:1]([N:2]([C:3]([C:4](=[O:5])[O:6][C:7]([H:14])([H:15])[H:16])([H:12])[H:13])[H:11])([H:8])([H:9])[H:10]>>[C:1]([N:2]([C:3]([C:4](=[O:5])[H:15])([H:12])[H:13])[H:11])([H:8])([H:9])[H:10].[O:6]=[C:7]([H:14])[H:16]"
C       -2.06239069       0.63174074      -0.47399376
N       -1.70991940      -0.46911924       0.40185929
C       -0.35376486      -0.47804579       0.86541041
C        0.66009752      -0.65376798      -0.26586963
O        0.69035272      -1.41562184      -1.16933310
O        2.20431588      -0.61962230       0.81534255
C        2.47593730       0.36438609       0.02174101
H       -1.90330329       1.57584879       0.05258054
H       -3.12131793       0.56740596      -0.72477666
H       -1.49299058       0.65999951      -1.41376733
H       -1.95007917      -1.35666446      -0.01619894
H       -0.20638221      -1.31283900       1.55116500
H       -0.12015368       0.43915372       1.40554710
H        2.72619867       1.34135906       0.46294682
H        1.18145887       0.58008658      -0.58204518
H        2.98194084       0.14570015      -0.93060813
16
Frame=4 idx=008685 GeodesicLength=0.4004216493057506 rxn_smarts="[C:1]([N:2]([C:3]([C:4](=[O:5])[O:6][C:7]([H:14])([H:15])[H:16])([H:12])[H:13])[H:11])([H:8])([H:9])[H:10]>>[C:1]([N:2]([C:3]([C:4](=[O:5])[H:15])([H:12])[H:13])[H:11])([H:8])([H:9])[H:10].[O:6]=[C:7]([H:14])[H:16]"
C       -2.09774757       0.61631098      -0.47295202
N       -1.72279321      -0.47989710       0.39981758
C       -0.36643735      -0.45895252       0.86359427
C        0.65409105      -0.62092000      -0.26201652
O        0.67468592      -1.36698839      -1.18096760
O        2.20439215      -0.62550669       0.80983756
C        2.52282146       0.35157371       0.02229387
H       -1.96921343       1.56092482       0.06104688
H       -3.15231336       0.52422048      -0.73341133
H       -1.52159622       0.66558150      -1.40763937
H       -1.93929401      -1.37042155      -0.02501110
H       -0.20565196      -1.28377264       1.55897606
H       -0.15147514       0.46608035       1.39874385
H        2.84195551       1.30143697       0.47676051
H        1.21570808       0.61260121      -0.57689100
H        3.01286809       0.10772888      -0.93218163
16
Frame=5 idx=008685 GeodesicLength=0.49849815096576383 rxn_smarts="[C:1]([N:2]([C:3]([C:4](=[O:5])[O:6][C:7]([H:14])([H:15])[H:16])([H:12])[H:13])[H:11])([H:8])([H:9])[H:10]>>[C:1]([N:2]([C:3]([C:4](=[O:5])[H:15])([H:12])[H:13])[H:11])([H:8])([H:9])[H:10].[O:6]=[C:7]([H:14])[H:16]"
C       -2.13364394       0.59981476      -0.47198645
N       -1.73516405      -0.49090492       0.39759021
C       -0.37941667      -0.43853114       0.86187245
C        0.64821652      -0.58540427      -0.25764600
O        0.65961419      -1.31472318      -1.19224953
O        2.20419134      -0.62980859       0.80407960
C        2.57027682       0.33777349       0.02268126
H       -2.03709703       1.54391339       0.06960089
H       -3.18277488       0.47895902      -0.74255836
H       -1.55118547       0.67147656      -1.40118663
H       -1.92684272      -1.38388919      -0.03411134
H       -0.20480906      -1.25281082       1.56685799
H       -0.18460548       0.49417300       1.39198817
H        2.95971778       1.25410061       0.48982699
H        1.25140670       0.64659463      -0.57050633
H        3.04211597       0.06926665      -0.93425294
16
Frame=6 idx=008685 GeodesicLength=0.5958234824139238 rxn_smarts="[C:1]([N:2]([C:3]([C:4](=[O:5])[O:6][C:7]([H:14])([H:15])[H:16])([H:12])[H:13])[H:11])([H:8])([H:9])[H:10]>>[C:1]([N:2]([C:3]([C:4](=[O:5])[H:15])([H:12])[H:13])[H:11])([H:8])([H:9])[H:10].[O:6]=[C:7]([H:14])[H:16]"
C       -2.16996760       0.58218937      -0.47115292
N       -1.74686828      -0.50215177       0.39519490
C       -0.39266801      -0.41669643       0.86033265
C        0.64249377      -0.54703040      -0.25268978
O        0.64516888      -1.25862528      -1.20313366
O        2.20375052      -0.63249115       0.79802705
C        2.61823251       0.32295634       0.02288424
H       -2.10676476       1.52469409       0.07813088
H       -3.21250459       0.43159535      -0.75222021
H       -1.58183207       0.67756343      -1.39453328
H       -1.91248466      -1.39704561      -0.04350536
H       -0.20380563      -1.21985620       1.57495497
H       -0.21963800       0.52349930       1.38540623
H        3.07877982       1.19869737       0.50204109
H        1.28865423       0.68217261      -0.56279886
H        3.06945387       0.03052898      -0.93693794
16
Frame=7 idx=008685 GeodesicLength=0.6922545745120687 rxn_smarts="[C:1]([N:2]([C:3]([C:4](=[O:5])[O:6][C:7]([H:14])([H:15])[H:16])([H:12])[H:13])[H:11])([H:8])([H:9])[H:10]>>[C:1]([N:2]([C:3]([C:4](=[O:5])[H:15])([H:12])[H:13])[H:11])([H:8])([H:9])[H:10].[O:6]=[C:7]([H:14])[H:16]"
C       -2.20655854       0.56330515      -0.47046296
N       -1.75772622      -0.51360382       0.39261218
C       -0.40617409      -0.39331683       0.85899980
C        0.63694719      -0.50554534      -0.24702451
O        0.63138700      -1.19834472      -1.21344811
O        2.20307445      -0.63345870       0.79157911
C        2.66659884       0.30703556       0.02287027
H       -2.17804310       1.50297665       0.08655290
H       -3.24122923       0.38201733      -0.76238655
H       -1.61350704       0.68370461      -1.38764644
H       -1.89595183      -1.40972886      -0.05320123
H       -0.20264929      -1.18468667       1.58328648
H       -0.25668472       0.55407461       1.37900658
H        3.19827767       1.13447156       0.51314901
H        1.32757610       0.71936315      -0.55360581
H        3.09466281      -0.00826367      -0.94028070
16
Frame=8 idx=008685 GeodesicLength=0.7879051867831721 rxn_smarts="[C:1]([N:2]([C:3]([C:4](=[O:5])[O:6][C:7]([H:14])([H:15])[H:16])([H:12])[H:13])[H:11])([H:8])([H:9])[H:10]>>[C:1]([N:2]([C:3]([C:4](=[O:5])[H:15])([H:12])[H:13])[H:11])([H:8])([H:9])[H:10].[O:6]=[C:7]([H:14])[H:16]"
C       -2.24328410       0.54304456      -0.46995379
N       -1.76752457      -0.52526630       0.38983275
C       -0.41990655      -0.36824280       0.85796261
C        0.63160300      -0.46068804      -0.24049930
O        0.61825032      -1.13351697      -1.22311769
O        2.20216267      -0.63266457       0.78479233
C        2.71530666       0.28985572       0.02262029
H       -2.25103953       1.47847136       0.09490795
H       -3.26862166       0.32997522      -0.77325417
H       -1.64613382       0.69002074      -1.38048267
H       -1.87689124      -1.42185530      -0.06323587
H       -0.20132727      -1.14709266       1.59199348
H       -0.29586197       0.58598190       1.37285065
H        3.31741270       1.06076145       0.52271687
H        1.36834037       0.75826073      -0.54276124
H        3.11751497      -0.04704506      -0.94437219
16
Frame=9 idx=008685 GeodesicLength=0.8824953097516024 rxn_smarts="[C:1]([N:2]([C:3]([C:4](=[O:5])[O:6][C:7]([H:14])([H:15])[H:16])([H:12])[H:13])[H:11])([H:8])([H:9])[H:10]>>[C:1]([N:2]([C:3]([C:4](=[O:5])[H:15])([H:12])[H:13])[H:11])([H:8])([H:9])[H:10].[O:6]=[C:7]([H:14])[H:16]"
C       -2.27984675       0.52129122      -0.46962836
N       -1.77600549      -0.53706015       0.38683449
C       -0.43382735      -0.34137608       0.85725347
C        0.62650805      -0.41225229      -0.23294691
O        0.60584571      -1.06382584      -1.23186718
O        2.20101313      -0.63006765       0.77749505
C        2.76418083       0.27124470       0.02206080
H       -2.32530399       1.45087006       0.10304662
H       -3.29427284       0.27550462      -0.78472472
H       -1.67960603       0.69624842      -1.37301333
H       -1.85497199      -1.43314935      -0.07361423
H       -0.19986514      -1.10686934       1.60108418
H       -0.33725934       0.61913386       1.36696062
H        3.43458636       0.97708965       0.53044165
H        1.41106548       0.79873980      -0.53011540
H        3.13775937      -0.08552162      -0.94926675
16
Frame=10 idx=008685 GeodesicLength=0.9762097732118454 rxn_smarts="[C:1]([N:2]([C:3]([C:4](=[O:5])[O:6][C:7]([H:14])([H:15])[H:16])([H:12])[H:13])[H:11])([H:8])([H:9])[H:10]>>[C:1]([N:2]([C:3]([C:4](=[O:5])[H:15])([H:12])[H:13])[H:11])([H:8])([H:9])[H:10].[O:6]=[C:7]([H:14])[H:16]"
C       -2.31598391       0.49794932      -0.46955885
N       -1.78289915      -0.54899037       0.38361189
C       -0.44790438      -0.31262344       0.85702669
C        0.62168112      -0.36002345      -0.22413714
O        0.59412691      -0.98897232      -1.23954350
O        2.19961282      -0.62565044       0.76979763
C        2.81305271       0.25100984       0.02114426
H       -2.40073473       1.41988874       0.11096202
H       -3.31770576       0.21844590      -0.79704107
H       -1.71375984       0.70249095      -1.36524384
H       -1.82980992      -1.44349789      -0.08438554
H       -0.19829181      -1.06390168       1.61076860
H       -0.38097159       0.65352592       1.36148546
H        3.54863439       0.88309828       0.53573447
H        1.45588636       0.84082998      -0.51551008
H        3.15506678      -0.12357934      -0.95511098
16
Frame=11 idx=008685 GeodesicLength=1.0690082514196124 rxn_smarts="[C:1]([N:2]([C:3]([C:4](=[O:5])[O:6][C:7]([H:14])([H:15])[H:16])([H:12])[H:13])[H:11])([H:8])([H:9])[H:10]>>[C:1]([N:2]([C:3]([C:4](=[O:5])[H:15])([H:12])[H:13])[H:11])([H:8])([H:9])[H:10].[O:6]=[C:7]([H:14])[H:16]"
C       -2.35131506       0.47293297      -0.46980423
N       -1.78788868      -0.56100427       0.38015418
C       -0.46209384      -0.28192813       0.85741868
C        0.61715919      -0.30384272      -0.21380189
O        0.58310284      -0.90868661      -1.24587344
O        2.19794213      -0.61943399       0.76170576
C        2.86165782       0.22887846       0.01976409
H       -2.47695118       1.38522728       0.11855215
H       -3.33835050       0.15879954      -0.81032886
H       -1.74836531       0.70869604      -1.35716304
H       -1.80100402      -1.45266143      -0.09557142
H       -0.19665962      -1.01808986       1.62119719
H       -0.42706896       0.68903807       1.35655174
H        3.65784407       0.77874399       0.53804386
H        1.50289848       0.88439638      -0.49880574
H        3.16909265      -0.16106572      -0.96203904
16
Frame=12 idx=008685 GeodesicLength=1.160866730722063 rxn_smarts="[C:1]([N:2]([C:3]([C:4](=[O:5])[O:6][C:7]([H:14])([H:15])[H:16])([H:12])[H:13])[H:11])([H:8])([H:9])[H:10]>>[C:1]([N:2]([C:3]([C:4](=[O:5])[H:15])([H:12])[H:13])[H:11])([H:8])([H:9])[H:10].[O:6]=[C:7]([H:14])[H:16]"
C       -2.38542189       0.44610981      -0.47043147
N       -1.79062969      -0.57304767       0.37644888
C       -0.47636989      -0.24918474       0.85856711
C        0.61296255      -0.24347849      -0.20163192
O        0.57275353      -0.82260183      -1.25049497
O        2.19589689      -0.61143959       0.75319179
C        2.90966445       0.20453449       0.01777651
H       -2.55357921       1.34647498       0.12570312
H       -3.35555139       0.09647194      -0.82476563
H       -1.78315753       0.71478563      -1.34872835
H       -1.76810989      -1.46035811      -0.10717964
H       -0.19506560      -0.96925507       1.63253870
H       -0.47564702       0.72557975       1.35224735
H        3.76058222       0.66391133       0.53675967
H        1.55224839       0.92928680      -0.47981585
H        3.17942408      -0.19778923      -0.97018529
16
Frame=13 idx=008685 GeodesicLength=1.251673803651013 rxn_smarts="[C:1]([N:2]([C:3]([C:4](=[O:5])[O:6][C:7]([H:14])([H:15])[H:16])([H:12])[H:13])[H:11])([H:8])([H:9])[H:10]>>[C:1]([N:2]([C:3]([C:4](=[O:5])[H:15])([H:12])[H:13])[H:11])([H:8])([H:9])[H:10].[O:6]=[C:7]([H:14])[H:16]"
C       -2.41780722       0.41740546      -0.47151307
N       -1.79073534      -0.58499923       0.37250504
C       -0.49067330      -0.21437517       0.86061591
C        0.60912846      -0.17887627      -0.18731399
O        0.56310835      -0.73054173      -1.25301974
O        2.19343406      -0.60188325       0.74408831
C        2.95662907       0.17760293       0.01499046
H       -2.62987852       1.30340815       0.13214188
H       -3.36868050       0.03164400      -0.84032408
H       -1.81786415       0.72043772      -1.34001586
H       -1.73069856      -1.46621978      -0.11915363
H       -0.19357833      -0.91730628       1.64495628
H       -0.52672294       0.76292689       1.34867581
H        3.85470120       0.53906873       0.53153959
H        1.60394952       0.97514109      -0.45843455
H        3.18568820      -0.23343326      -0.97973837
16
Frame=14 idx=008685 GeodesicLength=1.3415441267442954 rxn_smarts="[C:1]([N:2]([C:3]([C:4](=[O:5])[O:6][C:7]([H:14])([H:15])[H:16])([H:12])[H:13])[H:11])([H:8])([H:9])[H:10]>>[C:1]([N:2]([C:3]([C:4](=[O:5])[H:15])([H:12])[H:13])[H:11])([H:8])([H:9])[H:10].[O:6]=[C:7]([H:14])[H:16]"
C       -2.44789500       0.38670206      -0.47318597
N       -1.78780814      -0.59680491       0.36832023
C       -0.50500681      -0.17743358       0.86379987
C        0.60565517      -0.10985119      -0.17036980
O        0.55407997      -0.63218787      -1.25292620
O        2.19033654      -0.59072433       0.73454043
C        3.00198701       0.14771405       0.01115491
H       -2.70544963       1.25554609       0.13772378
H       -3.37682084      -0.03580030      -0.85742106
H       -1.85201407       0.72571610      -1.33096596
H       -1.68828287      -1.46992914      -0.13147113
H       -0.19240461      -0.86215584       1.65873277
H       -0.58039294       0.80092104       1.34597865
H        3.93865614       0.40448925       0.52143499
H        1.65808558       1.02173678      -0.43449031
H        3.18727450      -0.26793820      -0.99085518
16
Frame=15 idx=008685 GeodesicLength=1.430486591893692 rxn_smarts="[C:1]([N:2]([C:3]([C:4](=[O:5])[O:6][C:7]([H:14])([H:15])[H:16])([H:12])[H:13])[H:11])([H:8])([H:9])[H:10]>>[C:1]([N:2]([C:3]([C:4](=[O:5])[H:15])([H:12])[H:13])[H:11])([H:8])([H:9])[H:10].[O:6]=[C:7]([H:14])[H:16]"
C       -2.47504094       0.35396118      -0.47558708
N       -1.78142752      -0.60832418       0.36393272
C       -0.51934026      -0.13841488       0.86834650
C        0.60256102      -0.03647665      -0.15034707
O        0.54566569      -0.52751910      -1.24966632
O        2.18647475      -0.57815836       0.72447312
C        3.04504154       0.11450146       0.00594878
H       -2.77940130       1.20269789       0.14208035
H       -3.37916606      -0.10560201      -0.87615228
H       -1.88514624       0.73031960      -1.32169677
H       -1.64044251      -1.47106940      -0.14400029
H       -0.19171864      -0.80382988       1.67414116
H       -0.63664771       0.83923858       1.34428572
H        4.01038775       0.26110977       0.50594458
H        1.71454305       1.06858831      -0.40795295
H        3.18365737      -0.30102232      -1.00375018
16
Frame=16 idx=008685 GeodesicLength=1.518584825848731 rxn_smarts="[C:1]([N:2]([C:3]([C:4](=[O:5])[O:6][C:7]([H:14])([H:15])[H:16])([H:12])[H:13])[H:11])([H:8])([H:9])[H:10]>>[C:1]([N:2]([C:3]([C:4](=[O:5])[H:15])([H:12])[H:13])[H:11])([H:8])([H:9])[H:10].[O:6]=[C:7]([H:14])[H:16]"
C       -2.49846863       0.31913797      -0.47890065
N       -1.77113353      -0.61943314       0.35937824
C       -0.53367717      -0.09734867       0.87453439
C        0.59983320       0.04123347      -0.12664837
O        0.53780696      -0.41651174      -1.24250421
O        2.18157863      -0.56409181       0.71405773
C        3.08489393       0.07764384      -0.00102715
H       -2.85099006       1.14448655       0.14487571
H       -3.37459505      -0.17765481      -0.89691572
H       -1.91659923       0.73416656      -1.31221501
H       -1.58669911      -1.46921537      -0.15658909
H       -0.19179922      -0.74237135       1.69149941
H       -0.69551082       0.87757874       1.34371992
H        4.06812870       0.10975152       0.48408848
H        1.77317935       1.11525558      -0.37880414
H        3.17405205      -0.33262735      -1.01854954
