14
Frame=0 idx=000393 GeodesicLength=0.0 rxn_smarts="[C:1]([C:2]([C@@:3]([O:4][H:13])([C:5](=[O:6])[H:14])[H:12])([H:10])[H:11])([H:7])([H:8])[H:9]>>[C:1]([C:2]([C:3](=[O:4])[C:5]([O:6][H:13])([H:12])[H:14])([H:10])[H:11])([H:7])([H:8])[H:9]"
C       -1.49648956      -1.14125078      -0.18889029
C       -0.80263270       0.15996561      -0.59837135
C        0.34926146       0.44325028       0.29522132
O        0.16157156       0.77417984       1.52998517
C        1.76012330       0.39526853      -0.00963471
O        2.52470934       0.57186530       0.99848141
H       -2.32776846      -1.34735608      -0.86298438
H       -1.88696984      -1.07101914       0.82605542
H       -0.80724287      -1.98587915      -0.23242004
H       -1.50972949       0.99093536      -0.55099987
H       -0.43286644       0.09243799      -1.62421679
H        1.24336112       1.44891205      -0.49474173
H        1.14816809       0.77456372       1.84566834
H        2.07650455      -0.10587353      -0.93315249
14
Frame=1 idx=000393 GeodesicLength=0.07336984161919223 rxn_smarts="[C:1]([C:2]([C@@:3]([O:4][H:13])([C:5](=[O:6])[H:14])[H:12])([H:10])[H:11])([H:7])([H:8])[H:9]>>[C:1]([C:2]([C:3](=[O:4])[C:5]([O:6][H:13])([H:12])[H:14])([H:10])[H:11])([H:7])([H:8])[H:9]"
C       -1.49375313      -1.13827030      -0.18468095
C       -0.80226068       0.15993220      -0.60481065
C        0.34426866       0.46308219       0.29031616
O        0.15972473       0.76078975       1.53446640
C        1.75879587       0.40327173      -0.01457708
O        2.51893992       0.55515584       1.00274731
H       -2.32084787      -1.35560030      -0.86047251
H       -1.89128378      -1.05799075       0.82679854
H       -0.80125870      -1.98089796      -0.21399359
H       -1.51003028       0.99100868      -0.56922711
H       -0.43042001       0.08298368      -1.62938748
H        1.23343296       1.46755172      -0.49115798
H        1.16278490       0.75174726       1.85042898
H        2.07190740      -0.10276374      -0.93645004
14
Frame=2 idx=000393 GeodesicLength=0.14680815207620296 rxn_smarts="[C:1]([C:2]([C@@:3]([O:4][H:13])([C:5](=[O:6])[H:14])[H:12])([H:10])[H:11])([H:7])([H:8])[H:9]>>[C:1]([C:2]([C:3](=[O:4])[C:5]([O:6][H:13])([H:12])[H:14])([H:10])[H:11])([H:7])([H:8])[H:9]"
C       -1.49092698      -1.13521356      -0.18041177
C       -0.80159685       0.15985076      -0.61097162
C        0.33918600       0.48297350       0.28591163
O        0.15764075       0.74787097       1.53844668
C        1.75728891       0.41150318      -0.01947832
O        2.51316590       0.53817745       1.00630209
H       -2.31354097      -1.36384709      -0.85801393
H       -1.89583859      -1.04487058       0.82730666
H       -0.79521440      -1.97561253      -0.19517517
H       -1.51008418       0.99084526      -0.58769475
H       -0.42752934       0.07344217      -1.63412689
H        1.22316432       1.48645256      -0.48729274
H        1.17741757       0.72804245       1.85487850
H        2.06686786      -0.09961453      -0.93968036
14
Frame=3 idx=000393 GeodesicLength=0.22031295215760605 rxn_smarts="[C:1]([C:2]([C@@:3]([O:4][H:13])([C:5](=[O:6])[H:14])[H:12])([H:10])[H:11])([H:7])([H:8])[H:9]>>[C:1]([C:2]([C:3](=[O:4])[C:5]([O:6][H:13])([H:12])[H:14])([H:10])[H:11])([H:7])([H:8])[H:9]"
C       -1.48805310      -1.13211114      -0.17612801
C       -0.80063729       0.15970042      -0.61682780
C        0.33404652       0.50275327       0.28203898
O        0.15530563       0.73542134       1.54196943
C        1.75564562       0.41989846      -0.02428892
O        2.50740748       0.52101382       1.00918292
H       -2.30597923      -1.37198626      -0.85558833
H       -1.90056071      -1.03179673       0.82758593
H       -0.78922767      -1.97010208      -0.17620431
H       -1.50983872       0.99044564      -0.60629150
H       -0.42420470       0.06385048      -1.63842091
H        1.21253166       1.50550565      -0.48313195
H        1.19209399       0.70386816       1.85890722
H        2.06147052      -0.09646103      -0.94280275
14
Frame=4 idx=000393 GeodesicLength=0.29380324134973446 rxn_smarts="[C:1]([C:2]([C@@:3]([O:4][H:13])([C:5](=[O:6])[H:14])[H:12])([H:10])[H:11])([H:7])([H:8])[H:9]>>[C:1]([C:2]([C:3](=[O:4])[C:5]([O:6][H:13])([H:12])[H:14])([H:10])[H:11])([H:7])([H:8])[H:9]"
C       -1.48519177      -1.12896049      -0.17182397
C       -0.79936314       0.15943428      -0.62239580
C        0.32889091       0.52229144       0.27866983
O        0.15274724       0.72338387       1.54505022
C        1.75391382       0.42849065      -0.02901797
O        2.50170149       0.50372702       1.01137857
H       -2.29822450      -1.37999863      -0.85319312
H       -1.90552466      -1.01870828       0.82761726
H       -0.78341843      -1.96440042      -0.15702753
H       -1.50921022       0.98979232      -0.62503174
H       -0.42042031       0.05411723      -1.64227031
H        1.20147787       1.52470949      -0.47861659
H        1.20681322       0.67923711       1.86253596
H        2.05580848      -0.09311559      -0.94587482
14
Frame=5 idx=000393 GeodesicLength=0.36738561491378496 rxn_smarts="[C:1]([C:2]([C@@:3]([O:4][H:13])([C:5](=[O:6])[H:14])[H:12])([H:10])[H:11])([H:7])([H:8])[H:9]>>[C:1]([C:2]([C:3](=[O:4])[C:5]([O:6][H:13])([H:12])[H:14])([H:10])[H:11])([H:7])([H:8])[H:9]"
C       -1.48237981      -1.12579774      -0.16754619
C       -0.79778603       0.15904501      -0.62766093
C        0.32373050       0.54145627       0.27582397
O        0.14994501       0.71174417       1.54775357
C        1.75212589       0.43720844      -0.03361762
O        2.49605565       0.48638380       1.01294173
H       -2.29039132      -1.38779829      -0.85082431
H       -1.91066213      -1.00574431       0.82741565
H       -0.77788621      -1.95859598      -0.13787260
H       -1.50816451       0.98890160      -0.64380582
H       -0.41620036       0.04430078      -1.64568227
H        1.19000175       1.54396567      -0.47374476
H        1.22165401       0.65458171       1.86567704
H        2.04995757      -0.08965114      -0.94885748
14
Frame=6 idx=000393 GeodesicLength=0.44083371118781234 rxn_smarts="[C:1]([C:2]([C@@:3]([O:4][H:13])([C:5](=[O:6])[H:14])[H:12])([H:10])[H:11])([H:7])([H:8])[H:9]>>[C:1]([C:2]([C:3](=[O:4])[C:5]([O:6][H:13])([H:12])[H:14])([H:10])[H:11])([H:7])([H:8])[H:9]"
C       -1.47964779      -1.12260140      -0.16328514
C       -0.79590920       0.15850354      -0.63264794
C        0.31859899       0.56018343       0.27343435
O        0.14694767       0.70046501       1.55006453
C        1.75031938       0.44607796      -0.03810666
O        2.49050453       0.46904138       1.01384731
H       -2.28251116      -1.39538686      -0.84846947
H       -1.91601060      -0.99281919       0.82695404
H       -0.77267760      -1.95267153      -0.11867406
H       -1.50667320       0.98774573      -0.66262462
H       -0.41155407       0.03432952      -1.64865468
H        1.17806356       1.56324952      -0.46850766
H        1.23656607       0.62980940       1.86844236
H        2.04398345      -0.08592650      -0.95177237
14
Frame=7 idx=000393 GeodesicLength=0.514419230497775 rxn_smarts="[C:1]([C:2]([C@@:3]([O:4][H:13])([C:5](=[O:6])[H:14])[H:12])([H:10])[H:11])([H:7])([H:8])[H:9]>>[C:1]([C:2]([C:3](=[O:4])[C:5]([O:6][H:13])([H:12])[H:14])([H:10])[H:11])([H:7])([H:8])[H:9]"
C       -1.47700980      -1.11941907      -0.15909090
C       -0.79375936       0.15782654      -0.63735057
C        0.31348209       0.57840463       0.27154037
O        0.14369411       0.68959823       1.55207088
C        1.74850126       0.45500539      -0.04241770
O        2.48504374       0.45172879       1.01418311
H       -2.27469032      -1.40269579      -0.84613034
H       -1.92146150      -0.98010194       0.82627583
H       -0.76784611      -1.94673379      -0.09967822
H       -1.50473235       0.98636981      -0.68139941
H       -0.40651716       0.02429115      -1.65121654
H        1.16569521       1.58247605      -0.46290704
H        1.25167867       0.60533229       1.87070161
H        2.03792152      -0.08208230      -0.95458109
14
Frame=8 idx=000393 GeodesicLength=0.5879261707183718 rxn_smarts="[C:1]([C:2]([C@@:3]([O:4][H:13])([C:5](=[O:6])[H:14])[H:12])([H:10])[H:11])([H:7])([H:8])[H:9]>>[C:1]([C:2]([C:3](=[O:4])[C:5]([O:6][H:13])([H:12])[H:14])([H:10])[H:11])([H:7])([H:8])[H:9]"
C       -1.47450239      -1.11623428      -0.15494552
C       -0.79133663       0.15698548      -0.64180028
C        0.30840543       0.59608717       0.27007597
O        0.14023171       0.67908820       1.55377715
C        1.74670459       0.46402738      -0.04658132
O        2.47971182       0.43448737       1.01391765
H       -2.26694313      -1.40975611      -0.84380609
H       -1.92709579      -0.96748772       0.82535720
H       -0.76343946      -1.94077003      -0.08076651
H       -1.50231120       0.98475496      -0.70016274
H       -0.40108488       0.01410095      -1.65337956
H        1.15287377       1.60165278      -0.45692995
H        1.26695296       0.58101333       1.87258715
H        2.03183321      -0.07794950      -0.95734315
14
Frame=9 idx=000393 GeodesicLength=0.6615134413875257 rxn_smarts="[C:1]([C:2]([C@@:3]([O:4][H:13])([C:5](=[O:6])[H:14])[H:12])([H:10])[H:11])([H:7])([H:8])[H:9]>>[C:1]([C:2]([C:3](=[O:4])[C:5]([O:6][H:13])([H:12])[H:14])([H:10])[H:11])([H:7])([H:8])[H:9]"
C       -1.47217313      -1.11303980      -0.15082826
C       -0.78863100       0.15594520      -0.64603017
C        0.30336246       0.61319474       0.26902231
O        0.13655835       0.66886106       1.55522892
C        1.74494193       0.47319188      -0.05060039
O        2.47452767       0.41733082       1.01304579
H       -2.25927953      -1.41659797      -0.84150924
H       -1.93301740      -0.95487316       0.82417753
H       -0.75954483      -1.93479593      -0.06179519
H       -1.49934740       0.98289006      -0.71898951
H       -0.39522068       0.00365807      -1.65515647
H        1.13955329       1.62082261      -0.45051011
H        1.28247966       0.55675066       1.87408798
H        2.02579063      -0.07333823      -0.96014319
14
Frame=10 idx=000393 GeodesicLength=0.7350730237975279 rxn_smarts="[C:1]([C:2]([C@@:3]([O:4][H:13])([C:5](=[O:6])[H:14])[H:12])([H:10])[H:11])([H:7])([H:8])[H:9]>>[C:1]([C:2]([C:3](=[O:4])[C:5]([O:6][H:13])([H:12])[H:14])([H:10])[H:11])([H:7])([H:8])[H:9]"
C       -1.47006386      -1.10982902      -0.14671908
C       -0.78563910       0.15467900      -0.65006430
C        0.29834949       0.62972113       0.26835479
O        0.13271179       0.65885526       1.55646311
C        1.74322941       0.48254430      -0.05447696
O        2.46953172       0.40028050       1.01156621
H       -2.25169904      -1.42327623      -0.83925075
H       -1.93932374      -0.94215445       0.82270829
H       -0.75622815      -1.92880818      -0.04261792
H       -1.49579761       0.98076763      -0.73793948
H       -0.38890322      -0.00712308      -1.65655386
H        1.12571136       1.64001992      -0.44360732
H        1.29827220       0.53240293       1.87519407
H        2.01984875      -0.06807972      -0.96305679
14
Frame=11 idx=000393 GeodesicLength=0.8085886150932415 rxn_smarts="[C:1]([C:2]([C@@:3]([O:4][H:13])([C:5](=[O:6])[H:14])[H:12])([H:10])[H:11])([H:7])([H:8])[H:9]>>[C:1]([C:2]([C:3](=[O:4])[C:5]([O:6][H:13])([H:12])[H:14])([H:10])[H:11])([H:7])([H:8])[H:9]"
C       -1.46818255      -1.10656308      -0.14258696
C       -0.78235355       0.15316685      -0.65392673
C        0.29337065       0.64568579       0.26803440
O        0.12871341       0.64896970       1.55746526
C        1.74156457       0.49212903      -0.05824335
O        2.46467878       0.38331547       1.00942456
H       -2.24415248      -1.42981940      -0.83702840
H       -1.94608451      -0.92920074       0.82091111
H       -0.75350254      -1.92273908      -0.02306342
H       -1.49164247       0.97834023      -0.75706920
H       -0.38210664      -0.01832529      -1.65755299
H        1.11130005       1.65926674      -0.43619044
H        1.31433705       0.50779599       1.87596263
H        2.01406025      -0.06202223      -0.96613649
14
Frame=12 idx=000393 GeodesicLength=0.8821587273949811 rxn_smarts="[C:1]([C:2]([C@@:3]([O:4][H:13])([C:5](=[O:6])[H:14])[H:12])([H:10])[H:11])([H:7])([H:8])[H:9]>>[C:1]([C:2]([C:3](=[O:4])[C:5]([O:6][H:13])([H:12])[H:14])([H:10])[H:11])([H:7])([H:8])[H:9]"
C       -1.46657468      -1.10327301      -0.13844290
C       -0.77878178       0.15139798      -0.65763383
C        0.28841758       0.66108026       0.26806525
O        0.12454821       0.63924494       1.55831785
C        1.73996202       0.50194553      -0.06186730
O        2.46003396       0.36648382       1.00665520
H       -2.23670631      -1.43625857      -0.83484729
H       -1.95332392      -0.91603713       0.81879019
H       -0.75145133      -1.91664134      -0.00315865
H       -1.48684852       0.97562676      -0.77639415
H       -0.37482808      -0.02996822      -1.65818414
H        1.09634500       1.67855908      -0.42824927
H        1.33075330       0.48296325       1.87637168
H        2.00845454      -0.05512334      -0.96942261
14
Frame=13 idx=000393 GeodesicLength=0.9557866562177618 rxn_smarts="[C:1]([C:2]([C@@:3]([O:4][H:13])([C:5](=[O:6])[H:14])[H:12])([H:10])[H:11])([H:7])([H:8])[H:9]>>[C:1]([C:2]([C:3](=[O:4])[C:5]([O:6][H:13])([H:12])[H:14])([H:10])[H:11])([H:7])([H:8])[H:9]"
C       -1.46521807      -1.09992833      -0.13429198
C       -0.77493651       0.14936585      -0.66117856
C        0.28345613       0.67589301       0.26841739
O        0.12021143       0.62967657       1.55902796
C        1.73839078       0.51197065      -0.06529856
O        2.45559707       0.34986631       1.00329719
H       -2.22933804      -1.44256005      -0.83267605
H       -1.96098806      -0.90261671       0.81630202
H       -0.75006094      -1.91047567       0.01709027
H       -1.48140689       0.97262232      -0.79590799
H       -0.36708185      -0.04207245      -1.65839995
H        1.08079812       1.69781891      -0.41978216
H        1.34754362       0.45781990       1.87626280
H        2.00303322      -0.04738032      -0.97286239
14
Frame=14 idx=000393 GeodesicLength=1.0294846095973156 rxn_smarts="[C:1]([C:2]([C@@:3]([O:4][H:13])([C:5](=[O:6])[H:14])[H:12])([H:10])[H:11])([H:7])([H:8])[H:9]>>[C:1]([C:2]([C:3](=[O:4])[C:5]([O:6][H:13])([H:12])[H:14])([H:10])[H:11])([H:7])([H:8])[H:9]"
C       -1.46411458      -1.09656215      -0.13015820
C       -0.77083936       0.14709879      -0.66457397
C        0.27850200       0.69017904       0.26908251
O        0.11566166       0.62034013       1.55960392
C        1.73686970       0.52214732      -0.06854981
O        2.45137594       0.33343896       0.99933118
H       -2.22213460      -1.44870879      -0.83050343
H       -1.96898893      -0.88907308       0.81350200
H       -0.74932768      -1.90427628       0.03750630
H       -1.47536511       0.96931580      -0.81555254
H       -0.35890390      -0.05455535      -1.65824201
H        1.06474449       1.71701137      -0.41087437
H        1.36471833       0.43255491       1.87586839
H        1.99780204      -0.03891068      -0.97643996
14
Frame=15 idx=000393 GeodesicLength=1.1032353853365027 rxn_smarts="[C:1]([C:2]([C@@:3]([O:4][H:13])([C:5](=[O:6])[H:14])[H:12])([H:10])[H:11])([H:7])([H:8])[H:9]>>[C:1]([C:2]([C:3](=[O:4])[C:5]([O:6][H:13])([H:12])[H:14])([H:10])[H:11])([H:7])([H:8])[H:9]"
C       -1.46323759      -1.09317509      -0.12606712
C       -0.76651831       0.14461774      -0.66781378
C        0.27353843       0.70395611       0.27003141
O        0.11087816       0.61128135       1.56005786
C        1.73538063       0.53241054      -0.07158738
O        2.44737091       0.31726101       0.99480906
H       -2.21512424      -1.45466103      -0.82831074
H       -1.97722018      -0.87546948       0.81039869
H       -0.74921540      -1.89805016       0.05794628
H       -1.46875342       0.96571852      -0.83526226
H       -0.35034420      -0.06735762      -1.65770322
H        1.04820394       1.73605025      -0.40159224
H        1.38229853       0.40725599       1.87517509
H        1.99274274      -0.02983815      -0.98008166
14
Frame=16 idx=000393 GeodesicLength=1.1770218477916934 rxn_smarts="[C:1]([C:2]([C@@:3]([O:4][H:13])([C:5](=[O:6])[H:14])[H:12])([H:10])[H:11])([H:7])([H:8])[H:9]>>[C:1]([C:2]([C:3](=[O:4])[C:5]([O:6][H:13])([H:12])[H:14])([H:10])[H:11])([H:7])([H:8])[H:9]"
C       -1.46256542      -1.08977616      -0.12204141
C       -0.76200138       0.14194853      -0.67089718
C        0.26855787       0.71725646       0.27123940
O        0.10583686       0.60255670       1.56040674
C        1.73391411       0.54269889      -0.07438943
O        2.44358018       0.30138967       0.98978390
H       -2.20834255      -1.46038562      -0.82608896
H       -1.98558688      -0.86188022       0.80701954
H       -0.74968615      -1.89181679       0.07827138
H       -1.46161082       0.96184570      -0.85497285
H       -0.34145371      -0.08041118      -1.65679518
H        1.03121690       1.75487156      -0.39201057
H        1.40030061       0.38199999       1.87420243
H        1.98784037      -0.02029755      -0.98372780
