12
Frame=0 idx=008066 GeodesicLength=0.0 rxn_smarts="[N:1]#[C:2][C@@:3]1([H:8])[C:4]([H:9])([H:10])[N:5]=[C:6]([H:11])[N:7]1[H:12]>>[C:4](=[N+:5]=[C-:6][H:11])([H:9])[H:10].[N:1]#[C:2]/[C:3](=[N:7]\[H:12])[H:8]"
N        2.54665152      -1.10686107       0.91490245
C        1.85829457      -0.49336911       0.22710757
C        1.00455476       0.30955454      -0.61729961
C       -0.88310711      -1.16592310      -0.23365449
N       -1.49121431      -0.13555223       0.29233191
C       -1.47997795       1.02605155       0.55818387
N        0.56083830       1.48105672      -0.26019722
H        0.96994080       0.03046893      -1.66385536
H       -1.12503524      -1.40185451      -1.26194251
H       -0.58283485      -1.96491182       0.43229171
H       -2.22942317       1.71114986       0.92566845
H        0.85131269       1.71019020       0.68646324
12
Frame=1 idx=008066 GeodesicLength=0.04458239837218098 rxn_smarts="[N:1]#[C:2][C@@:3]1([H:8])[C:4]([H:9])([H:10])[N:5]=[C:6]([H:11])[N:7]1[H:12]>>[C:4](=[N+:5]=[C-:6][H:11])([H:9])[H:10].[N:1]#[C:2]/[C:3](=[N:7]\[H:12])[H:8]"
N        2.53862405      -1.10891584       0.91960128
C        1.86182625      -0.48804108       0.22729042
C        1.00385960       0.30756068      -0.62154182
C       -0.88235036      -1.16479677      -0.23399154
N       -1.50210790      -0.13949786       0.29579072
C       -1.47053608       1.02825104       0.54707485
N        0.55474726       1.48016690      -0.26316613
H        0.99758523       0.04058124      -1.67205782
H       -1.14032809      -1.41093851      -1.25636798
H       -0.58239025      -1.96455666       0.43159495
H       -2.21195299       1.70934126       0.93906148
H        0.83302327       1.71084560       0.68671160
12
Frame=2 idx=008066 GeodesicLength=0.08915373244324931 rxn_smarts="[N:1]#[C:2][C@@:3]1([H:8])[C:4]([H:9])([H:10])[N:5]=[C:6]([H:11])[N:7]1[H:12]>>[C:4](=[N+:5]=[C-:6][H:11])([H:9])[H:10].[N:1]#[C:2]/[C:3](=[N:7]\[H:12])[H:8]"
N        2.52906427      -1.11224566       0.92376727
C        1.86560028      -0.48237403       0.22695501
C        1.00317160       0.30584477      -0.62609806
C       -0.88140754      -1.16364101      -0.23402508
N       -1.51268853      -0.14333171       0.29935696
C       -1.46174156       1.03026124       0.53522503
N        0.54871582       1.47945004      -0.26596297
H        1.02558668       0.05205130      -1.67993382
H       -1.15544067      -1.42072968      -1.24991957
H       -0.58149297      -1.96383052       0.43150362
H       -2.19411362       1.70724475       0.95206561
H        0.81474623       1.71130050       0.68706599
12
Frame=3 idx=008066 GeodesicLength=0.1337569317585899 rxn_smarts="[N:1]#[C:2][C@@:3]1([H:8])[C:4]([H:9])([H:10])[N:5]=[C:6]([H:11])[N:7]1[H:12]>>[C:4](=[N+:5]=[C-:6][H:11])([H:9])[H:10].[N:1]#[C:2]/[C:3](=[N:7]\[H:12])[H:8]"
N        2.51833851      -1.11634833       0.92751960
C        1.86933936      -0.47641816       0.22654952
C        1.00248286       0.30425571      -0.63091614
C       -0.88045213      -1.16248836      -0.23394772
N       -1.52293141      -0.14714706       0.30320112
C       -1.45337685       1.03193560       0.52312825
N        0.54264383       1.47882034      -0.26882735
H        1.05420249       0.06461394      -1.68734106
H       -1.17067528      -1.43092978      -1.24280742
H       -0.58035585      -1.96298976       0.43157722
H       -2.17578307       1.70484690       0.96471098
H        0.79656753       1.71184895       0.68715300
12
Frame=4 idx=008066 GeodesicLength=0.17864671568989968 rxn_smarts="[N:1]#[C:2][C@@:3]1([H:8])[C:4]([H:9])([H:10])[N:5]=[C:6]([H:11])[N:7]1[H:12]>>[C:4](=[N+:5]=[C-:6][H:11])([H:9])[H:10].[N:1]#[C:2]/[C:3](=[N:7]\[H:12])[H:8]"
N        2.50344600      -1.11867299       0.93592273
C        1.87139100      -0.46912417       0.22863830
C        1.00185873       0.30218285      -0.63660461
C       -0.88003737      -1.16160408      -0.23560546
N       -1.53210435      -0.15186976       0.30829099
C       -1.44355330       1.03185975       0.51431534
N        0.53535023       1.47807485      -0.27536464
H        1.08563104       0.07577627      -1.69421845
H       -1.18768108      -1.43937599      -1.23719288
H       -0.57936182      -1.96390454       0.42796452
H       -2.15436758       1.70037795       0.98202892
H        0.77942851       1.71627987       0.68182525
12
Frame=5 idx=008066 GeodesicLength=0.2239475183824245 rxn_smarts="[N:1]#[C:2][C@@:3]1([H:8])[C:4]([H:9])([H:10])[N:5]=[C:6]([H:11])[N:7]1[H:12]>>[C:4](=[N+:5]=[C-:6][H:11])([H:9])[H:10].[N:1]#[C:2]/[C:3](=[N:7]\[H:12])[H:8]"
N        2.48531265      -1.12014521       0.94701713
C        1.87226260      -0.46082282       0.23238452
C        1.00128378       0.29983325      -0.64293146
C       -0.87998028      -1.16093307      -0.23833482
N       -1.54027572      -0.15733187       0.31469468
C       -1.43257159       1.03035120       0.50826534
N        0.52717363       1.47725260      -0.28434541
H        1.11911399       0.08648994      -1.70037550
H       -1.20610597      -1.44658558      -1.23227535
H       -0.57829026      -1.96611520       0.42175529
H       -2.13110520       1.69451136       1.00139029
H        0.76318237       1.72349540       0.67275530
12
Frame=6 idx=008066 GeodesicLength=0.2691589172180998 rxn_smarts="[N:1]#[C:2][C@@:3]1([H:8])[C:4]([H:9])([H:10])[N:5]=[C:6]([H:11])[N:7]1[H:12]>>[C:4](=[N+:5]=[C-:6][H:11])([H:9])[H:10].[N:1]#[C:2]/[C:3](=[N:7]\[H:12])[H:8]"
N        2.46743433      -1.12199198       0.95677565
C        1.87293768      -0.45264243       0.23602048
C        1.00069371       0.29745042      -0.64934171
C       -0.88010226      -1.16026321      -0.24086422
N       -1.54826574      -0.16266619       0.32129964
C       -1.42204101       1.02869408       0.50194816
N        0.51908955       1.47631932      -0.29296723
H        1.15303862       0.09849348      -1.70557675
H       -1.22470493      -1.45425747      -1.22656196
H       -0.57729586      -1.96812809       0.41592390
H       -2.10781321       1.68867018       1.01935592
H        0.74702912       1.73032188       0.66398813
12
Frame=7 idx=008066 GeodesicLength=0.3149138046372685 rxn_smarts="[N:1]#[C:2][C@@:3]1([H:8])[C:4]([H:9])([H:10])[N:5]=[C:6]([H:11])[N:7]1[H:12]>>[C:4](=[N+:5]=[C-:6][H:11])([H:9])[H:10].[N:1]#[C:2]/[C:3](=[N:7]\[H:12])[H:8]"
N        2.44688393      -1.12172000       0.96991381
C        1.87185388      -0.44353761       0.24187265
C        1.00016553       0.29449453      -0.65642270
C       -0.88090985      -1.15986473      -0.24489965
N       -1.55532770      -0.16878455       0.32901946
C       -1.41015973       1.02559866       0.49848381
N        0.50995042       1.47506997      -0.30462545
H        1.18939045       0.10952543      -1.70966327
H       -1.24504395      -1.46042411      -1.22204342
H       -0.57668537      -1.97167624       0.40687864
H       -2.08184636       1.68102065       1.04083614
H        0.73172874       1.74029799       0.65064997
12
Frame=8 idx=008066 GeodesicLength=0.3613274419811204 rxn_smarts="[N:1]#[C:2][C@@:3]1([H:8])[C:4]([H:9])([H:10])[N:5]=[C:6]([H:11])[N:7]1[H:12]>>[C:4](=[N+:5]=[C-:6][H:11])([H:9])[H:10].[N:1]#[C:2]/[C:3](=[N:7]\[H:12])[H:8]"
N        2.42362012      -1.11979516       0.98580411
C        1.86910474      -0.43347432       0.24969300
C        0.99974082       0.29105981      -0.66411619
C       -0.88229768      -1.15971178      -0.25020625
N       -1.56125099      -0.17577364       0.33822565
C       -1.39668332       1.02094229       0.49816488
N        0.49979598       1.47346384      -0.31900323
H        1.22791615       0.11996515      -1.71243585
H       -1.26713785      -1.46500469      -1.21838373
H       -0.57623683      -1.97669924       0.39473012
H       -2.05384205       1.67183887       1.06449375
H        0.71727092       1.75318888       0.63303373
12
Frame=9 idx=008066 GeodesicLength=0.4080919872622729 rxn_smarts="[N:1]#[C:2][C@@:3]1([H:8])[C:4]([H:9])([H:10])[N:5]=[C:6]([H:11])[N:7]1[H:12]>>[C:4](=[N+:5]=[C-:6][H:11])([H:9])[H:10].[N:1]#[C:2]/[C:3](=[N:7]\[H:12])[H:8]"
N        2.39957848      -1.11666118       1.00249895
C        1.86519085      -0.42311299       0.25849668
C        0.99939587       0.28725939      -0.67215219
C       -0.88421525      -1.15968034      -0.25616298
N       -1.56661572      -0.18304788       0.34793781
C       -1.38268699       1.01563328       0.49874945
N        0.48918488       1.47147129      -0.33460861
H        1.26767895       0.13070272      -1.71372898
H       -1.29018390      -1.46911125      -1.21485061
H       -0.57615581      -1.98224866       0.38123349
H       -2.02418524       1.66169922       1.08923574
H        0.70301388       1.76709640       0.61335126
12
Frame=10 idx=008066 GeodesicLength=0.45497671270412526 rxn_smarts="[N:1]#[C:2][C@@:3]1([H:8])[C:4]([H:9])([H:10])[N:5]=[C:6]([H:11])[N:7]1[H:12]>>[C:4](=[N+:5]=[C-:6][H:11])([H:9])[H:10].[N:1]#[C:2]/[C:3](=[N:7]\[H:12])[H:8]"
N        2.37551348      -1.11321553       1.01859496
C        1.86059263      -0.41274670       0.26754680
C        0.99914772       0.28327314      -0.68038255
C       -0.88647905      -1.15969664      -0.26224593
N       -1.57153148      -0.19037825       0.35802620
C       -1.36857811       1.01002172       0.49945477
N        0.47847916       1.46915406      -0.35042697
H        1.30795995       0.14247319      -1.71349641
H       -1.31374202      -1.47324773      -1.21080199
H       -0.57627372      -1.98785467       0.36739620
H       -1.99386197       1.65123302       1.11330346
H        0.68877342       1.78098440       0.59303146
12
Frame=11 idx=008066 GeodesicLength=0.5018185840915659 rxn_smarts="[N:1]#[C:2][C@@:3]1([H:8])[C:4]([H:9])([H:10])[N:5]=[C:6]([H:11])[N:7]1[H:12]>>[C:4](=[N+:5]=[C-:6][H:11])([H:9])[H:10].[N:1]#[C:2]/[C:3](=[N:7]\[H:12])[H:8]"
N        2.35210347      -1.10985603       1.03337968
C        1.85555477      -0.40260781       0.27647390
C        0.99901096       0.27916385      -0.68872418
C       -0.88903120      -1.15972693      -0.26821004
N       -1.57610269      -0.19761755       0.36837519
C       -1.35459300       1.00432211       0.49986478
N        0.46790598       1.46654865      -0.36590659
H        1.34830534       0.15559691      -1.71170911
H       -1.33757527      -1.47767261      -1.20595426
H       -0.57657868      -1.99329095       0.35374055
H       -1.96349820       1.64083929       1.13579029
H        0.67449852       1.79430108       0.57287978
12
Frame=12 idx=008066 GeodesicLength=0.5482978099148166 rxn_smarts="[N:1]#[C:2][C@@:3]1([H:8])[C:4]([H:9])([H:10])[N:5]=[C:6]([H:11])[N:7]1[H:12]>>[C:4](=[N+:5]=[C-:6][H:11])([H:9])[H:10].[N:1]#[C:2]/[C:3](=[N:7]\[H:12])[H:8]"
N        2.33021632      -1.10737474       1.04568377
C        1.85056946      -0.39305355       0.28465407
C        0.99899378       0.27505223      -0.69704160
C       -0.89171101      -1.15968426      -0.27363114
N       -1.58046894      -0.20452148       0.37882962
C       -1.34112424       0.99885087       0.49937055
N        0.45782991       1.46372774      -0.38015364
H        1.38802729       0.17059018      -1.70840754
H       -1.36128840      -1.48277955      -1.19978953
H       -0.57695725      -1.99816373       0.34112561
H       -1.93427115       1.63116519       1.15515665
H        0.66018422       1.80619107       0.55420318
12
Frame=13 idx=008066 GeodesicLength=0.5950551826699119 rxn_smarts="[N:1]#[C:2][C@@:3]1([H:8])[C:4]([H:9])([H:10])[N:5]=[C:6]([H:11])[N:7]1[H:12]>>[C:4](=[N+:5]=[C-:6][H:11])([H:9])[H:10].[N:1]#[C:2]/[C:3](=[N:7]\[H:12])[H:8]"
N        2.30801848      -1.10410431       1.05826262
C        1.84462698      -0.38334550       0.29337584
C        0.99915853       0.27068068      -0.70566739
C       -0.89480393      -1.15971441      -0.27950143
N       -1.58415480      -0.21164193       0.38979818
C       -1.32717492       0.99289053       0.49940378
N        0.44751343       1.46052681      -0.39514880
H        1.42811028       0.18615215      -1.70336368
H       -1.38570947      -1.48751690      -1.19342467
H       -0.57755366      -2.00334818       0.32749936
H       -1.90398028       1.62089580       1.17465617
H        0.64594936       1.81852525       0.53411001
12
Frame=14 idx=008066 GeodesicLength=0.6418685108902927 rxn_smarts="[N:1]#[C:2][C@@:3]1([H:8])[C:4]([H:9])([H:10])[N:5]=[C:6]([H:11])[N:7]1[H:12]>>[C:4](=[N+:5]=[C-:6][H:11])([H:9])[H:10].[N:1]#[C:2]/[C:3](=[N:7]\[H:12])[H:8]"
N        2.28625637      -1.10085919       1.06999404
C        1.83819853      -0.37380693       0.30205198
C        0.99954222       0.26619147      -0.71446602
C       -0.89814950      -1.15975922      -0.28540960
N       -1.58729613      -0.21875287       0.40112119
C       -1.31312054       0.98676598       0.49935495
N        0.43731968       1.45705881      -0.41003226
H        1.46787256       0.20276433      -1.69667283
H       -1.41041599      -1.49231390      -1.18638198
H       -0.57826142      -2.00848724       0.31371199
H       -1.87369475       1.61066989       1.19285296
H        0.63174897       1.83052887       0.51387557
12
Frame=15 idx=008066 GeodesicLength=0.6886075665135266 rxn_smarts="[N:1]#[C:2][C@@:3]1([H:8])[C:4]([H:9])([H:10])[N:5]=[C:6]([H:11])[N:7]1[H:12]>>[C:4](=[N+:5]=[C-:6][H:11])([H:9])[H:10].[N:1]#[C:2]/[C:3](=[N:7]\[H:12])[H:8]"
N        2.26532444      -1.09782919       1.08057359
C        1.83144959      -0.36457682       0.31049783
C        1.00016344       0.26162371      -0.72336850
C       -0.90170569      -1.15977743      -0.29125258
N       -1.58994680      -0.22576326       0.41269682
C       -1.29909950       0.98059776       0.49898753
N        0.42739075       1.45335714      -0.42450763
H        1.50693717       0.22044932      -1.68836606
H       -1.43523440      -1.49726153      -1.17854956
H       -0.57907201      -2.01344489       0.30000855
H       -1.84379787       1.60070428       1.20933314
H        0.61759087       1.84192090       0.49394686
12
Frame=16 idx=008066 GeodesicLength=0.7352220112708235 rxn_smarts="[N:1]#[C:2][C@@:3]1([H:8])[C:4]([H:9])([H:10])[N:5]=[C:6]([H:11])[N:7]1[H:12]>>[C:4](=[N+:5]=[C-:6][H:11])([H:9])[H:10].[N:1]#[C:2]/[C:3](=[N:7]\[H:12])[H:8]"
N        2.24539850      -1.09502332       1.09001097
C        1.82443952      -0.35570620       0.31867692
C        1.00104462       0.25699112      -0.73233833
C       -0.90545827      -1.15974649      -0.29703592
N       -1.59213470      -0.23263591       0.42444356
C       -1.28513620       0.97442206       0.49825954
N        0.41778114       1.44944908      -0.43850405
H        1.54505294       0.23905756      -1.67849722
H       -1.46005664      -1.50234057      -1.16995869
H       -0.57999934      -2.01818196       0.28642368
H       -1.81443121       1.59105382       1.22407669
H        0.60349964       1.85266079       0.47444286
