17
Frame=0 idx=009873 GeodesicLength=0.0 rxn_smarts="[C:1]([C@@:2]1([H:11])[C:3]([H:12])([H:13])[C@:4]2([C:5]([H:14])([H:15])[O:6]2)[C:7]1([H:16])[H:17])([H:8])([H:9])[H:10]>>[C:1]([C@@:2]1([H:11])[C:3]([H:12])([H:13])[C@:4]2([C-:5]=[O+:6]2)[C:7]1([H:16])[H:17])([H:8])([H:9])[H:10].[H:14][H:15]"
C       -2.28682184      -0.31070637       0.19658262
C       -0.93930461       0.13348578      -0.32977937
C       -0.08290580       1.07306560       0.55774492
C        1.11625031       0.21561678       0.20189810
C        2.47096590       0.67307612      -0.10531535
O        2.23665050       0.00781369       1.06310281
C        0.22200677      -0.89649338      -0.32509447
H       -2.19014229      -0.74554196       1.19486316
H       -2.97876433       0.53171528       0.26522393
H       -2.73872242      -1.06290631      -0.45388100
H       -1.04635589       0.56376046      -1.32786967
H       -0.03676619       2.12909094       0.29582998
H       -0.33033468       0.96996721       1.61717455
H        2.76478765      -0.51096692      -1.09729099
H        3.26125016       0.26563973      -0.92647855
H        0.07604294      -1.66235182       0.44151917
H        0.48216376      -1.37426475      -1.26822982
17
Frame=1 idx=009873 GeodesicLength=0.06551575753746712 rxn_smarts="[C:1]([C@@:2]1([H:11])[C:3]([H:12])([H:13])[C@:4]2([C:5]([H:14])([H:15])[O:6]2)[C:7]1([H:16])[H:17])([H:8])([H:9])[H:10]>>[C:1]([C@@:2]1([H:11])[C:3]([H:12])([H:13])[C@:4]2([C-:5]=[O+:6]2)[C:7]1([H:16])[H:17])([H:8])([H:9])[H:10].[H:14][H:15]"
C       -2.29004475      -0.30797610       0.19520710
C       -0.94001093       0.13205292      -0.32824092
C       -0.08382250       1.07132517       0.56010961
C        1.11364358       0.21007583       0.20836138
C        2.46995172       0.66039947      -0.10029456
O        2.23378600       0.00244101       1.07028138
C        0.21880718      -0.90079869      -0.31868983
H       -2.19710146      -0.74135822       1.19447599
H       -2.98025679       0.53613855       0.26046968
H       -2.74182468      -1.06028996      -0.45520953
H       -1.04327046       0.56095555      -1.32731347
H       -0.03520099       2.12693514       0.29665648
H       -0.33493405       0.97065886       1.61893185
H        2.79149014      -0.50669233      -1.10948058
H        3.26920487       0.29188067      -0.95309576
H        0.06858993      -1.66544050       0.44829282
H        0.48099318      -1.38030736      -1.26046164
17
Frame=2 idx=009873 GeodesicLength=0.131914956374846 rxn_smarts="[C:1]([C@@:2]1([H:11])[C:3]([H:12])([H:13])[C@:4]2([C:5]([H:14])([H:15])[O:6]2)[C:7]1([H:16])[H:17])([H:8])([H:9])[H:10]>>[C:1]([C@@:2]1([H:11])[C:3]([H:12])([H:13])[C@:4]2([C-:5]=[O+:6]2)[C:7]1([H:16])[H:17])([H:8])([H:9])[H:10].[H:14][H:15]"
C       -2.29328453      -0.30505891       0.19370945
C       -0.94060127       0.13050664      -0.32668158
C       -0.08459004       1.06944747       0.56249385
C        1.11104782       0.20412311       0.21517105
C        2.46914408       0.64671382      -0.09504293
O        2.23085089      -0.00340201       1.07787484
C        0.21551190      -0.90541653      -0.31198381
H       -2.20428998      -0.73687212       1.19402096
H       -2.98161541       0.54086913       0.25540085
H       -2.74498642      -1.05749106      -0.45662939
H       -1.03985234       0.55791904      -1.32679393
H       -0.03319184       2.12459098       0.29734856
H       -0.33954155       0.97141448       1.62067572
H        2.81937031      -0.50164579      -1.12188236
H        3.27536826       0.31981242      -0.98080896
H        0.06079359      -1.66872130       0.45541593
H        0.47986653      -1.38678937      -1.25228827
17
Frame=3 idx=009873 GeodesicLength=0.19846893157252954 rxn_smarts="[C:1]([C@@:2]1([H:11])[C:3]([H:12])([H:13])[C@:4]2([C:5]([H:14])([H:15])[O:6]2)[C:7]1([H:16])[H:17])([H:8])([H:9])[H:10]>>[C:1]([C@@:2]1([H:11])[C:3]([H:12])([H:13])[C@:4]2([C-:5]=[O+:6]2)[C:7]1([H:16])[H:17])([H:8])([H:9])[H:10].[H:14][H:15]"
C       -2.29651919      -0.30193528       0.19208404
C       -0.94105157       0.12883139      -0.32510762
C       -0.08516652       1.06741780       0.56487004
C        1.10848383       0.19772682       0.22232013
C        2.46855518       0.63191363      -0.08961089
O        2.22784800      -0.00973181       1.08589907
C        0.21212126      -0.91037629      -0.30495794
H       -2.21169187      -0.73204430       1.19349522
H       -2.98280066       0.54593327       0.24999616
H       -2.74819958      -1.05449086      -0.45813255
H       -1.03607124       0.55461227      -1.32632120
H       -0.03066950       2.12202675       0.29785938
H       -0.34411384       0.97224830       1.62237330
H        2.84853490      -0.49556066      -1.13472602
H        3.27932863       0.34939027      -1.00928804
H        0.05264369      -1.67219783       0.46292031
H        0.47876849      -1.39376347      -1.24367338
17
Frame=4 idx=009873 GeodesicLength=0.2648859486069862 rxn_smarts="[C:1]([C@@:2]1([H:11])[C:3]([H:12])([H:13])[C@:4]2([C:5]([H:14])([H:15])[O:6]2)[C:7]1([H:16])[H:17])([H:8])([H:9])[H:10]>>[C:1]([C@@:2]1([H:11])[C:3]([H:12])([H:13])[C@:4]2([C-:5]=[O+:6]2)[C:7]1([H:16])[H:17])([H:8])([H:9])[H:10].[H:14][H:15]"
C       -2.29974416      -0.29859429       0.19034842
C       -0.94136381       0.12700999      -0.32352680
C       -0.08552736       1.06522771       0.56719595
C        1.10595519       0.19086167       0.22976593
C        2.46817690       0.61590947      -0.08408321
O        2.22478243      -0.01655430       1.09431202
C        0.20861639      -0.91570641      -0.29761435
H       -2.21929255      -0.72684260       1.19292093
H       -2.98379345       0.55134805       0.24426672
H       -2.75147960      -1.05128556      -0.45967941
H       -1.03193944       0.55099557      -1.32590793
H       -0.02759623       2.11922350       0.29812627
H       -0.34861142       0.97318138       1.62398489
H        2.87898888      -0.48811397      -1.14824883
H        3.28105280       0.38050001      -1.03807268
H        0.04412449      -1.67587568       0.47082178
H        0.47765095      -1.40128453      -1.23460969
17
Frame=5 idx=009873 GeodesicLength=0.330974437769275 rxn_smarts="[C:1]([C@@:2]1([H:11])[C:3]([H:12])([H:13])[C@:4]2([C:5]([H:14])([H:15])[O:6]2)[C:7]1([H:16])[H:17])([H:8])([H:9])[H:10]>>[C:1]([C@@:2]1([H:11])[C:3]([H:12])([H:13])[C@:4]2([C-:5]=[O+:6]2)[C:7]1([H:16])[H:17])([H:8])([H:9])[H:10].[H:14][H:15]"
C       -2.30296940      -0.29502476       0.18853961
C       -0.94155640       0.12501818      -0.32194961
C       -0.08565374       1.06286718       0.56941452
C        1.10345003       0.18348776       0.23745061
C        2.46797132       0.59858940      -0.07858880
O        2.22165171      -0.02387593       1.10304549
C        0.20495705      -0.92144686      -0.28996372
H       -2.22708276      -0.72123010       1.19234426
H       -2.98458689       0.55713567       0.23824606
H       -2.75486356      -1.04787858      -0.46120331
H       -1.02749335       0.54701595      -1.32557365
H       -0.02393377       2.11615706       0.29806051
H       -0.35299085       0.97424500       1.62546052
H        2.91069384      -0.47886840      -1.16269631
H        3.28076597       0.41300287      -1.06661265
H        0.03520136      -1.67977072       0.47913278
H        0.47643943      -1.40942370      -1.22510632
17
Frame=6 idx=009873 GeodesicLength=0.3966264625114304 rxn_smarts="[C:1]([C@@:2]1([H:11])[C:3]([H:12])([H:13])[C@:4]2([C:5]([H:14])([H:15])[O:6]2)[C:7]1([H:16])[H:17])([H:8])([H:9])[H:10]>>[C:1]([C@@:2]1([H:11])[C:3]([H:12])([H:13])[C@:4]2([C-:5]=[O+:6]2)[C:7]1([H:16])[H:17])([H:8])([H:9])[H:10].[H:14][H:15]"
C       -2.30620046      -0.29121344       0.18668358
C       -0.94164671       0.12283304      -0.32038449
C       -0.08552278       1.06031694       0.57147131
C        1.10096450       0.17556693       0.24531146
C        2.46792661       0.57985498      -0.07324006
O        2.21846805      -0.03171687       1.11202434
C        0.20110451      -0.92763393      -0.28201364
H       -2.23504997      -0.71516542       1.19179479
H       -2.98516799       0.56331668       0.23195515
H       -2.75838715      -1.04425808      -0.46264942
H       -1.02276940       0.54262343      -1.32533058
H       -0.01964800       2.11279357       0.29758267
H       -0.35720210       0.97545090       1.62674934
H        2.94360400      -0.46750976      -1.17817630
H        3.27863195       0.44687845      -1.09448859
H        0.02584537      -1.68388762       0.48786814
H        0.47504959      -1.41824980      -1.21515771
17
Frame=7 idx=009873 GeodesicLength=0.46211474708341055 rxn_smarts="[C:1]([C@@:2]1([H:11])[C:3]([H:12])([H:13])[C@:4]2([C:5]([H:14])([H:15])[O:6]2)[C:7]1([H:16])[H:17])([H:8])([H:9])[H:10]>>[C:1]([C@@:2]1([H:11])[C:3]([H:12])([H:13])[C@:4]2([C-:5]=[O+:6]2)[C:7]1([H:16])[H:17])([H:8])([H:9])[H:10].[H:14][H:15]"
C       -2.30945389      -0.28715246       0.18481547
C       -0.94166443       0.12043380      -0.31883910
C       -0.08512452       1.05756315       0.57331457
C        1.09847903       0.16706825       0.25328633
C        2.46800342       0.55962291      -0.06813437
O        2.21522748      -0.04007831       1.12117169
C        0.19700888      -0.93429583      -0.27377834
H       -2.24318718      -0.70861887       1.19131227
H       -2.98553763       0.56990568       0.22543154
H       -2.76209521      -1.04042258      -0.46395636
H       -1.01782084       0.53777243      -1.32519050
H       -0.01472224       2.10910342       0.29662218
H       -0.36120549       0.97681675       1.62780443
H        2.97770265      -0.45374532      -1.19474860
H        3.27498283       0.48207678      -1.12137009
H        0.01601940      -1.68823173       0.49703340
H        0.47338775      -1.42781805      -1.20477451
17
Frame=8 idx=009873 GeodesicLength=0.5271465885188297 rxn_smarts="[C:1]([C@@:2]1([H:11])[C:3]([H:12])([H:13])[C@:4]2([C:5]([H:14])([H:15])[O:6]2)[C:7]1([H:16])[H:17])([H:8])([H:9])[H:10]>>[C:1]([C@@:2]1([H:11])[C:3]([H:12])([H:13])[C@:4]2([C-:5]=[O+:6]2)[C:7]1([H:16])[H:17])([H:8])([H:9])[H:10].[H:14][H:15]"
C       -2.31274014      -0.28280835       0.18297389
C       -0.94163618       0.11778629      -0.31732607
C       -0.08443200       1.05456612       0.57486000
C        1.09598439       0.15791232       0.26129896
C        2.46820767       0.53771903      -0.06342272
O        2.21194856      -0.04902594       1.13038589
C        0.19261349      -0.94149513      -0.26525837
H       -2.25147811      -0.70152010       1.19094425
H       -2.98568053       0.57694896       0.21869517
H       -2.76603761      -1.03634085      -0.46503805
H       -1.01270038       0.53239113      -1.32517577
H       -0.00911383       2.10502126       0.29504294
H       -0.36493476       0.97835004       1.62854634
H        3.01292129      -0.43714337      -1.21245134
H        3.27005528       0.51869384      -1.14680374
H        0.00567841      -1.69282282       0.50666346
H        0.47134444      -1.43823241      -1.19393483
17
Frame=9 idx=009873 GeodesicLength=0.5918902959954289 rxn_smarts="[C:1]([C@@:2]1([H:11])[C:3]([H:12])([H:13])[C@:4]2([C:5]([H:14])([H:15])[O:6]2)[C:7]1([H:16])[H:17])([H:8])([H:9])[H:10]>>[C:1]([C@@:2]1([H:11])[C:3]([H:12])([H:13])[C@:4]2([C-:5]=[O+:6]2)[C:7]1([H:16])[H:17])([H:8])([H:9])[H:10].[H:14][H:15]"
C       -2.31608567      -0.27821606       0.18125064
C       -0.94163993       0.11487934      -0.31586827
C       -0.08343404       1.05133628       0.57602923
C        1.09343135       0.14811938       0.26915560
C        2.46844284       0.51415434      -0.05922834
O        2.20862629      -0.05850754       1.13941372
C        0.18782199      -0.94920572      -0.25658462
H       -2.25985720      -0.69389189       1.19077217
H       -2.98560564       0.58439469       0.21191558
H       -2.77030630      -1.03205730      -0.46577975
H       -1.00757653       0.52645350      -1.32529930
H       -0.00282121       2.10055668       0.29278824
H       -0.36828731       0.98007738       1.62891950
H        3.04945509      -0.41739875      -1.23065401
H        3.26431924       0.55640412      -1.17063836
H       -0.00520802      -1.69762830       0.51662645
H        0.46872505      -1.44947014      -1.18281847
17
Frame=10 idx=009873 GeodesicLength=0.6558456756962839 rxn_smarts="[C:1]([C@@:2]1([H:11])[C:3]([H:12])([H:13])[C@:4]2([C:5]([H:14])([H:15])[O:6]2)[C:7]1([H:16])[H:17])([H:8])([H:9])[H:10]>>[C:1]([C@@:2]1([H:11])[C:3]([H:12])([H:13])[C@:4]2([C-:5]=[O+:6]2)[C:7]1([H:16])[H:17])([H:8])([H:9])[H:10].[H:14][H:15]"
C       -2.31949458      -0.27327440       0.17963448
C       -0.94164205       0.11164165      -0.31447721
C       -0.08205369       1.04778703       0.57672362
C        1.09086497       0.13750042       0.27687247
C        2.46876073       0.48851547      -0.05573061
O        2.20531760      -0.06869106       1.14827306
C        0.18260563      -0.95759519      -0.24763556
H       -2.26837654      -0.68555639       1.19081801
H       -2.98526509       0.59240128       0.20497172
H       -2.77494293      -1.02747354      -0.46611864
H       -1.00237005       0.51981206      -1.32560476
H        0.00430333       2.09557514       0.28964434
H       -0.37119880       0.98201165       1.62881578
H        3.08708845      -0.39399152      -1.24984893
H        3.25765662       0.59586717      -1.19224041
H       -0.01672714      -1.70272205       0.52712365
H        0.46547352      -1.46180773      -1.17122100
17
Frame=11 idx=009873 GeodesicLength=0.7193060732986343 rxn_smarts="[C:1]([C@@:2]1([H:11])[C:3]([H:12])([H:13])[C@:4]2([C:5]([H:14])([H:15])[O:6]2)[C:7]1([H:16])[H:17])([H:8])([H:9])[H:10]>>[C:1]([C@@:2]1([H:11])[C:3]([H:12])([H:13])[C@:4]2([C-:5]=[O+:6]2)[C:7]1([H:16])[H:17])([H:8])([H:9])[H:10].[H:14][H:15]"
C       -2.32298379      -0.26794874       0.17818270
C       -0.94167481       0.10801769      -0.31317592
C       -0.08022692       1.04387534       0.57683446
C        1.08826604       0.12595677       0.28433547
C        2.46908048       0.46056123      -0.05310116
O        2.20202500      -0.07964381       1.15682129
C        0.17686841      -0.96674910      -0.23842710
H       -2.27702191      -0.67641451       1.19115869
H       -2.98462113       0.60102499       0.19790732
H       -2.78003642      -1.02257147      -0.46594261
H       -0.99714493       0.51234335      -1.32613466
H        0.01237407       2.08999435       0.28544979
H       -0.37355063       0.98419286       1.62814265
H        3.12588387      -0.36644692      -1.26984536
H        3.25033389       0.63733430      -1.21124436
H       -0.02897472      -1.70812480       0.53818839
H        0.46140350      -1.47540154      -1.15914959
17
Frame=12 idx=009873 GeodesicLength=0.7822843668297369 rxn_smarts="[C:1]([C@@:2]1([H:11])[C:3]([H:12])([H:13])[C@:4]2([C:5]([H:14])([H:15])[O:6]2)[C:7]1([H:16])[H:17])([H:8])([H:9])[H:10]>>[C:1]([C@@:2]1([H:11])[C:3]([H:12])([H:13])[C@:4]2([C-:5]=[O+:6]2)[C:7]1([H:16])[H:17])([H:8])([H:9])[H:10].[H:14][H:15]"
C       -2.32656944      -0.26219342       0.17696088
C       -0.94177532       0.10394639      -0.31199140
C       -0.07788667       1.03954506       0.57621598
C        1.08563566       0.11337584       0.29139338
C        2.46937613       0.43003199      -0.05156804
O        2.19879889      -0.09145046       1.16485254
C        0.17052191      -0.97676102      -0.22897487
H       -2.28576267      -0.66634499       1.19187673
H       -2.98364391       0.61033223       0.19076532
H       -2.78568318      -1.01731441      -0.46510349
H       -0.99198606       0.50391516      -1.32693141
H        0.02149151       2.08371930       0.27998734
H       -0.37520307       0.98664975       1.62676365
H        3.16581808      -0.33429777      -1.29045614
H        3.24255828       0.68112317      -1.22705854
H       -0.04201971      -1.71385117       0.54986261
H        0.45632958      -1.49042565      -1.14659454
17
Frame=13 idx=009873 GeodesicLength=0.8447019477930353 rxn_smarts="[C:1]([C@@:2]1([H:11])[C:3]([H:12])([H:13])[C@:4]2([C:5]([H:14])([H:15])[O:6]2)[C:7]1([H:16])[H:17])([H:8])([H:9])[H:10]>>[C:1]([C@@:2]1([H:11])[C:3]([H:12])([H:13])[C@:4]2([C-:5]=[O+:6]2)[C:7]1([H:16])[H:17])([H:8])([H:9])[H:10].[H:14][H:15]"
C       -2.33026762      -0.25594059       0.17607147
C       -0.94198944       0.09933666      -0.31097141
C       -0.07493774       1.03472674       0.57465646
C        1.08296193       0.09958527       0.29784170
C        2.46957051       0.39650210      -0.05146135
O        2.19568275      -0.10424463       1.17209567
C        0.16343430      -0.98778287      -0.21929221
H       -2.29455729      -0.65517107       1.19312045
H       -2.98227662       0.62043190       0.18360159
H       -2.79200892      -1.01166810      -0.46338186
H       -0.98699834       0.49432720      -1.32808648
H        0.03180912       2.07662428       0.27291865
H       -0.37596406       0.98945183       1.62449949
H        3.20681566      -0.29673405      -1.31151488
H        3.23471859       0.72765843      -1.23879045
H       -0.05598111      -1.71994679       0.56223486
H        0.44998828      -1.50715631      -1.13354171
17
Frame=14 idx=009873 GeodesicLength=0.907139306279232 rxn_smarts="[C:1]([C@@:2]1([H:11])[C:3]([H:12])([H:13])[C@:4]2([C:5]([H:14])([H:15])[O:6]2)[C:7]1([H:16])[H:17])([H:8])([H:9])[H:10]>>[C:1]([C@@:2]1([H:11])[C:3]([H:12])([H:13])[C@:4]2([C-:5]=[O+:6]2)[C:7]1([H:16])[H:17])([H:8])([H:9])[H:10].[H:14][H:15]"
C       -2.33410440      -0.24914485       0.17561490
C       -0.94238435       0.09412490      -0.31014964
C       -0.07131346       1.02935476       0.57196625
C        1.08024413       0.08447935       0.30344559
C        2.46962474       0.35973444      -0.05309436
O        2.19276498      -0.11811209       1.17820964
C        0.15549526      -0.99989389      -0.20942848
H       -2.30333972      -0.64276189       1.19499788
H       -2.98050067       0.63137985       0.17650773
H       -2.79914157      -1.00558904      -0.46057324
H       -0.98234220       0.48343043      -1.32964097
H        0.04340667       2.06858937       0.26397507
H       -0.37564803       0.99261747       1.62117079
H        3.24899569      -0.25335872      -1.33246870
H        3.22702473       0.77730028      -1.24584557
H       -0.07091133      -1.72639690       0.57532289
H        0.44212954      -1.52575345      -1.12000977
17
Frame=15 idx=009873 GeodesicLength=0.9700694725559218 rxn_smarts="[C:1]([C@@:2]1([H:11])[C:3]([H:12])([H:13])[C@:4]2([C:5]([H:14])([H:15])[O:6]2)[C:7]1([H:16])[H:17])([H:8])([H:9])[H:10]>>[C:1]([C@@:2]1([H:11])[C:3]([H:12])([H:13])[C@:4]2([C-:5]=[O+:6]2)[C:7]1([H:16])[H:17])([H:8])([H:9])[H:10].[H:14][H:15]"
C       -2.33810467      -0.24175072       0.17574617
C       -0.94304956       0.08822399      -0.30958242
C       -0.06692943       1.02336067       0.56787228
C        1.07746862       0.06792149       0.30787890
C        2.46943809       0.31938734      -0.05692881
O        2.19014151      -0.13315319       1.18273262
C        0.14655913      -1.01320801      -0.19945717
H       -2.31200770      -0.62894916       1.19769547
H       -2.97828535       0.64325181       0.16962254
H       -2.80723841      -0.99904790      -0.45637659
H       -0.97823705       0.47102325      -1.33168078
H        0.05637942       2.05948500       0.25275884
H       -0.37400959       0.99620319       1.61654063
H        3.29243633      -0.20354783      -1.35269352
H        3.21988888       0.83044781      -1.24724247
H       -0.08687845      -1.73320187       0.58916061
H        0.43242823      -1.54644586      -1.10604630
17
Frame=16 idx=009873 GeodesicLength=1.0339558197258825 rxn_smarts="[C:1]([C@@:2]1([H:11])[C:3]([H:12])([H:13])[C@:4]2([C:5]([H:14])([H:15])[O:6]2)[C:7]1([H:16])[H:17])([H:8])([H:9])[H:10]>>[C:1]([C@@:2]1([H:11])[C:3]([H:12])([H:13])[C@:4]2([C-:5]=[O+:6]2)[C:7]1([H:16])[H:17])([H:8])([H:9])[H:10].[H:14][H:15]"
C       -2.34229895      -0.23370298       0.17667718
C       -0.94409881       0.08153227      -0.30934877
C       -0.06168483       1.01668641       0.56201876
C        1.07463097       0.04976598       0.31068760
C        2.46890165       0.27508334      -0.06362332
O        2.18796269      -0.14948577       1.18501082
C        0.13646029      -1.02785938      -0.18949664
H       -2.32042097      -0.61353518       1.20147316
H       -2.97560447       0.65613131       0.16314443
H       -2.81649333      -0.99203303      -0.45038879
H       -0.97497126       0.45686996      -1.33432657
H        0.07082674       2.04919482       0.23875218
H       -0.37073729       1.00029677       1.61031340
H        3.33723537      -0.14665223      -1.37125144
H        3.21372863       0.88758155      -1.24166528
H       -0.10393320      -1.74036125       0.60377150
H        0.42049677      -1.56951259      -1.09174820
