12
Frame=0 idx=004523 GeodesicLength=0.0 rxn_smarts="[O:1]([C@@:2]1([H:8])[C@@:3]2([H:9])[C:4]([H:10])([H:11])[O:5][C@@:6]12[H:12])[H:7]>>[O:1]([C:2]([C@@:3]1([H:9])[C:4]([H:10])([H:11])[O+:5]=[C-:6]1)([H:8])[H:12])[H:7]"
O       -0.45619701       1.01769177      -1.43483222
C        0.00630439       1.14539618      -0.14684325
C       -0.21802740       0.07808479       0.86774308
C       -0.41844869      -1.25658739       0.18702261
O        0.92036036      -1.15972641      -0.35964620
C        1.27817317      -0.11347451       0.50738114
H       -0.09394351       0.20114892      -1.80372873
H       -0.05481960       2.16521808       0.21941348
H       -0.60045474       0.33187326       1.84755930
H       -0.48304694      -2.10201003       0.87111854
H       -1.19222192      -1.33790675      -0.58120156
H        1.31232185       1.03029212      -0.17398623
12
Frame=1 idx=004523 GeodesicLength=0.05694772168996443 rxn_smarts="[O:1]([C@@:2]1([H:8])[C@@:3]2([H:9])[C:4]([H:10])([H:11])[O:5][C@@:6]12[H:12])[H:7]>>[O:1]([C:2]([C@@:3]1([H:9])[C:4]([H:10])([H:11])[O+:5]=[C-:6]1)([H:8])[H:12])[H:7]"
O       -0.45844157       1.01779673      -1.43739276
C        0.00726193       1.14632325      -0.14912898
C       -0.21618814       0.07694990       0.86487603
C       -0.42263272      -1.26058635       0.19122912
O        0.91786327      -1.17468084      -0.35386048
C        1.27520845      -0.11790467       0.49600320
H       -0.07960394       0.21313462      -1.81472892
H       -0.07558954       2.16328937       0.22090917
H       -0.58404535       0.33034980       1.85051182
H       -0.49450461      -2.10285732       0.87859460
H       -1.19405517      -1.34055458      -0.57921028
H        1.32472739       1.04874008      -0.16780251
12
Frame=2 idx=004523 GeodesicLength=0.11388905577061678 rxn_smarts="[O:1]([C@@:2]1([H:8])[C@@:3]2([H:9])[C:4]([H:10])([H:11])[O:5][C@@:6]12[H:12])[H:7]>>[O:1]([C:2]([C@@:3]1([H:9])[C:4]([H:10])([H:11])[O+:5]=[C-:6]1)([H:8])[H:12])[H:7]"
O       -0.46051201       1.01775833      -1.44012185
C        0.00817683       1.14727866      -0.15150531
C       -0.21422470       0.07577149       0.86193110
C       -0.42691321      -1.26460893       0.19553117
O        0.91518258      -1.18989121      -0.34798280
C        1.27220047      -0.12237123       0.48395546
H       -0.06505764       0.22555065      -1.82579117
H       -0.09663388       2.16095560       0.22214227
H       -0.56712905       0.32876525       1.85328668
H       -0.50605842      -2.10356139       0.88626216
H       -1.19603304      -1.34324425      -0.57705934
H        1.33700207       1.06759702      -0.16064837
12
Frame=3 idx=004523 GeodesicLength=0.17082174605691425 rxn_smarts="[O:1]([C@@:2]1([H:8])[C@@:3]2([H:9])[C:4]([H:10])([H:11])[O:5][C@@:6]12[H:12])[H:7]>>[O:1]([C:2]([C@@:3]1([H:9])[C:4]([H:10])([H:11])[O+:5]=[C-:6]1)([H:8])[H:12])[H:7]"
O       -0.46242220       1.01758126      -1.44302126
C        0.00904932       1.14826713      -0.15397766
C       -0.21213736       0.07455202       0.85890085
C       -0.43128092      -1.26865369       0.19993101
O        0.91232924      -1.20534696      -0.34199353
C        1.26913584      -0.12687206       0.47122479
H       -0.05033539       0.23841858      -1.83691624
H       -0.11791345       2.15821081       0.22310102
H       -0.54970775       0.32712277       1.85586011
H       -0.51769581      -2.10411332       0.89412912
H       -1.19814238      -1.34598542      -0.57475011
H        1.34912087       1.08681888      -0.15248811
12
Frame=4 idx=004523 GeodesicLength=0.22774378416627225 rxn_smarts="[O:1]([C@@:2]1([H:8])[C@@:3]2([H:9])[C:4]([H:10])([H:11])[O:5][C@@:6]12[H:12])[H:7]>>[O:1]([C:2]([C@@:3]1([H:9])[C:4]([H:10])([H:11])[O+:5]=[C-:6]1)([H:8])[H:12])[H:7]"
O       -0.46419007       1.01727104      -1.44609084
C        0.00988036       1.14929365      -0.15655131
C       -0.20992866       0.07329471       0.85577758
C       -0.43572487      -1.27271911       0.20443055
O        0.90931791      -1.22103393      -0.33586902
C        1.26599925      -0.13140447       0.45780367
H       -0.03547235       0.25176273      -1.84810528
H       -0.13938379       2.15505193       0.22377529
H       -0.53178776       0.32542626       1.85820745
H       -0.52940320      -2.10450412       0.90220259
H       -1.20036601      -1.34878943      -0.57228640
H        1.36105920       1.10635074      -0.14329429
12
Frame=5 idx=004523 GeodesicLength=0.2846534694561109 rxn_smarts="[O:1]([C@@:2]1([H:8])[C@@:3]2([H:9])[C:4]([H:10])([H:11])[O:5][C@@:6]12[H:12])[H:7]>>[O:1]([C:2]([C@@:3]1([H:9])[C:4]([H:10])([H:11])[O+:5]=[C-:6]1)([H:8])[H:12])[H:7]"
O       -0.46583721       1.01683427      -1.44932835
C        0.01067177       1.15036349      -0.15923119
C       -0.20760355       0.07200341       0.85255346
C       -0.44023214      -1.27680373       0.20903139
O        0.90616728      -1.23693423      -0.32958138
C        1.26277364      -0.13596538       0.44369088
H       -0.02050883       0.26561027      -1.85935977
H       -0.16099510       2.15147913       0.22415733
H       -0.51338135       0.32368023       1.86030295
H       -0.54116615      -2.10472486       0.91048888
H       -1.20268237      -1.35166960      -0.56967444
H        1.37279401       1.12612701      -0.13304975
12
Frame=6 idx=004523 GeodesicLength=0.34154919350396606 rxn_smarts="[O:1]([C@@:2]1([H:8])[C@@:3]2([H:9])[C:4]([H:10])([H:11])[O:5][C@@:6]12[H:12])[H:7]>>[O:1]([C:2]([C@@:3]1([H:9])[C:4]([H:10])([H:11])[O+:5]=[C-:6]1)([H:8])[H:12])[H:7]"
O       -0.46738857       1.01627848      -1.45272948
C        0.01142616       1.15148203      -0.16202169
C       -0.20516953       0.07068259       0.84922077
C       -0.44478816      -1.28090627       0.21373475
O        0.90290009      -1.25302632      -0.32309847
C        1.25944024      -0.14055159       0.42889199
H       -0.00549005       0.27999109      -1.87068121
H       -0.18269253       2.14749611       0.22424197
H       -0.49450723       0.32188986       1.86212023
H       -0.55296947      -2.10476699       0.91899314
H       -1.20506564      -1.35464130      -0.56692307
H        1.38430470       1.14607230      -0.12174894
12
Frame=7 idx=004523 GeodesicLength=0.39842930935409604 rxn_smarts="[O:1]([C@@:2]1([H:8])[C@@:3]2([H:9])[C:4]([H:10])([H:11])[O:5][C@@:6]12[H:12])[H:7]>>[O:1]([C:2]([C@@:3]1([H:9])[C:4]([H:10])([H:11])[O+:5]=[C-:6]1)([H:8])[H:12])[H:7]"
O       -0.46887208       1.01561202      -1.45628754
C        0.01214697       1.15265461      -0.16492633
C       -0.20263684       0.06933711       0.84577203
C       -0.44937672      -1.28502569       0.21854151
O        0.89954303      -1.26928492      -0.31638386
C        1.25597866      -0.14516012       0.41342007
H        0.00953340       0.29493773      -1.88207095
H       -0.20441602       2.14311056       0.22402713
H       -0.47519218       0.32006085       1.86363236
H       -0.56479715      -2.10462261       0.92771910
H       -1.20748562      -1.35772203      -0.56404381
H        1.39557454       1.16610249      -0.10939971
12
Frame=8 idx=004523 GeodesicLength=0.4552926998539149 rxn_smarts="[O:1]([C@@:2]1([H:8])[C@@:3]2([H:9])[C:4]([H:10])([H:11])[O:5][C@@:6]12[H:12])[H:7]>>[O:1]([C:2]([C@@:3]1([H:9])[C:4]([H:10])([H:11])[O+:5]=[C-:6]1)([H:8])[H:12])[H:7]"
O       -0.47031707       1.01484368      -1.45999438
C        0.01283807       1.15388624      -0.16794779
C       -0.20001797       0.06797207       0.84220034
C       -0.45398072      -1.28916126       0.22345215
O        0.89612619      -1.28568205      -0.30939699
C        1.25236726      -0.14978865       0.39729448
H        0.02450771       0.31048508      -1.89353021
H       -0.22610369       2.13833372       0.22351372
H       -0.45546843       0.31819905       1.86481313
H       -0.57663392      -2.10428444       0.93666903
H       -1.20990866      -1.36093099      -0.56105065
H        1.40659122       1.18612754      -0.09602282
12
Frame=9 idx=004523 GeodesicLength=0.5121385529316204 rxn_smarts="[O:1]([C@@:2]1([H:8])[C@@:3]2([H:9])[C:4]([H:10])([H:11])[O:5][C@@:6]12[H:12])[H:7]>>[O:1]([C:2]([C@@:3]1([H:9])[C:4]([H:10])([H:11])[O+:5]=[C-:6]1)([H:8])[H:12])[H:7]"
O       -0.47175360       1.01398204      -1.46384044
C        0.01350349       1.15518136      -0.17108782
C       -0.19732742       0.06659260       0.83849957
C       -0.45858276      -1.29331268       0.22846686
O        0.89268236      -1.30218772      -0.30209357
C        1.24858353      -0.15443600       0.38054007
H        0.03937763       0.32667058      -1.90505993
H       -0.24769351       2.13318024       0.22270548
H       -0.43537279       0.31631034       1.86563789
H       -0.58846603      -2.10374587       0.94584368
H       -1.21229838      -1.36428888      -0.55795991
H        1.41734749       1.20605399      -0.08165188
12
Frame=10 idx=004523 GeodesicLength=0.5689666727307281 rxn_smarts="[O:1]([C@@:2]1([H:8])[C@@:3]2([H:9])[C:4]([H:10])([H:11])[O:5][C@@:6]12[H:12])[H:7]>>[O:1]([C:2]([C@@:3]1([H:9])[C:4]([H:10])([H:11])[O+:5]=[C-:6]1)([H:8])[H:12])[H:7]"
O       -0.47321030       1.01303586      -1.46781603
C        0.01414702       1.15654370      -0.17434738
C       -0.19458095       0.06520362       0.83466447
C       -0.46316575      -1.29748025       0.23358556
O        0.88924643      -1.31877107      -0.29442607
C        1.24460435      -0.15910245       0.36318513
H        0.05408742       0.34353324      -1.91666068
H       -0.26912581       2.12766740       0.22160891
H       -0.41494477       0.31440028       1.86608394
H       -0.60028214      -2.10300104       0.95524258
H       -1.21461692      -1.36781747      -0.55478946
H        1.42784144       1.22578819      -0.06633098
12
Frame=11 idx=004523 GeodesicLength=0.6257769816253365 rxn_smarts="[O:1]([C@@:2]1([H:8])[C@@:3]2([H:9])[C:4]([H:10])([H:11])[O:5][C@@:6]12[H:12])[H:7]>>[O:1]([C:2]([C@@:3]1([H:9])[C:4]([H:10])([H:11])[O+:5]=[C-:6]1)([H:8])[H:12])[H:7]"
O       -0.47471455       1.01201247      -1.47191069
C        0.01477244       1.15797588      -0.17772645
C       -0.19179549       0.06380959       0.83069084
C       -0.46771328      -1.30166457       0.23880800
O        0.88585414      -1.33540015      -0.28634420
C        1.24040605      -0.16379047       0.34526111
H        0.06858170       0.36111417      -1.92833205
H       -0.29034326       2.12181504       0.22023233
H       -0.39422686       0.31247415       1.86613085
H       -0.61207277      -2.10204491       0.96486344
H       -1.21682514      -1.37153937      -0.55155872
H        1.43807703       1.24523818      -0.05011445
12
Frame=12 idx=004523 GeodesicLength=0.6825700424412423 rxn_smarts="[O:1]([C@@:2]1([H:8])[C@@:3]2([H:9])[C:4]([H:10])([H:11])[O:5][C@@:6]12[H:12])[H:7]>>[O:1]([C:2]([C@@:3]1([H:9])[C:4]([H:10])([H:11])[O+:5]=[C-:6]1)([H:8])[H:12])[H:7]"
O       -0.47628998       1.01091951      -1.47611513
C        0.01538274       1.15947959      -0.18122435
C       -0.18898822       0.06241441       0.82657546
C       -0.47221017      -1.30586703       0.24413378
O        0.88254213      -1.35204362      -0.27779506
C        1.23596482      -0.16850455       0.32679962
H        0.08280643       0.37945497      -1.94007276
H       -0.31129409       2.11564444       0.21858618
H       -0.37326109       0.31053645       1.86576094
H       -0.62383242      -2.10087294       0.97470306
H       -1.21888371      -1.37547783      -0.54828810
H        1.44806357       1.26431661      -0.03306362
12
Frame=13 idx=004523 GeodesicLength=0.7393476782645426 rxn_smarts="[O:1]([C@@:2]1([H:8])[C@@:3]2([H:9])[C:4]([H:10])([H:11])[O:5][C@@:6]12[H:12])[H:7]>>[O:1]([C:2]([C@@:3]1([H:9])[C:4]([H:10])([H:11])[O+:5]=[C-:6]1)([H:8])[H:12])[H:7]"
O       -0.47795691       1.00976295      -1.48042062
C        0.01598027       1.16105556      -0.18483957
C       -0.18617664       0.06102144       0.82231632
C       -0.47664318      -1.31008992       0.24956225
O        0.87934690      -1.36867068      -0.26872419
C        1.23125708      -0.17325178       0.30783177
H        0.09671026       0.39859809      -1.95188006
H       -0.33193188       2.10917902       0.21668182
H       -0.35208866       0.30859170       1.86495974
H       -0.63555884      -2.09948193       0.98475652
H       -1.22075445      -1.37965723      -0.54499876
H        1.45781604       1.28294279      -0.01524522
12
Frame=14 idx=004523 GeodesicLength=0.7961490238356295 rxn_smarts="[O:1]([C@@:2]1([H:8])[C@@:3]2([H:9])[C:4]([H:10])([H:11])[O:5][C@@:6]12[H:12])[H:7]>>[O:1]([C:2]([C@@:3]1([H:9])[C:4]([H:10])([H:11])[O+:5]=[C-:6]1)([H:8])[H:12])[H:7]"
O       -0.47973389       1.00855742      -1.48482067
C        0.01656656       1.16271427      -0.18857107
C       -0.18337922       0.05963485       0.81791174
C       -0.48100512      -1.31434810       0.25509355
O        0.87631281      -1.38526542      -0.25907487
C        1.22627001      -0.17804326       0.28838366
H        0.11024438       0.41858513      -1.96374937
H       -0.35222121       2.10246230       0.21453079
H       -0.33075041       0.30664842       1.86371458
H       -0.64726072      -2.09788653       0.99501982
H       -1.22241038      -1.38411556      -0.54171056
H        1.46736719       1.30105650       0.00327241
12
Frame=15 idx=004523 GeodesicLength=0.8528959621562646 rxn_smarts="[O:1]([C@@:2]1([H:8])[C@@:3]2([H:9])[C:4]([H:10])([H:11])[O:5][C@@:6]12[H:12])[H:7]>>[O:1]([C:2]([C@@:3]1([H:9])[C:4]([H:10])([H:11])[O+:5]=[C-:6]1)([H:8])[H:12])[H:7]"
O       -0.48161942       1.00730015      -1.48931256
C        0.01714540       1.16442995      -0.19241949
C       -0.18060843       0.05824807       0.81336167
C       -0.48527465      -1.31861709       0.26073022
O        0.87345528      -1.40176418      -0.24878655
C        1.22095229      -0.18289153       0.26848579
H        0.12335368       0.43946500      -1.97567925
H       -0.37211816       2.09546992       0.21214177
H       -0.30928495       0.30468714       1.86201496
H       -0.65892525      -2.09604671       1.00549030
H       -1.22378573      -1.38884141      -0.53844280
H        1.47670995       1.31856068       0.02241593
12
Frame=16 idx=004523 GeodesicLength=0.9095765472223911 rxn_smarts="[O:1]([C@@:2]1([H:8])[C@@:3]2([H:9])[C:4]([H:10])([H:11])[O:5][C@@:6]12[H:12])[H:7]>>[O:1]([C:2]([C@@:3]1([H:9])[C:4]([H:10])([H:11])[O+:5]=[C-:6]1)([H:8])[H:12])[H:7]"
O       -0.48363038       1.00597910      -1.49387991
C        0.01771746       1.16620010      -0.19637102
C       -0.17787978       0.05687370       0.80866410
C       -0.48944298      -1.32289917       0.26645595
O        0.87080939      -1.41813205      -0.23780566
C        1.21528389      -0.18780466       0.24817499
H        0.13596704       0.46123736      -1.98763883
H       -0.39157542       2.08823961       0.20953686
H       -0.28773275       0.30273648       1.85984782
H       -0.67055182      -2.09395773       1.01613005
H       -1.22484776      -1.39387079      -0.53523614
H        1.48588312       1.33539806       0.04212179
