10
Frame=0 idx=005486 GeodesicLength=0.0 rxn_smarts="[O:1]=[C:2]([C@@:3]1([H:7])[C:4]([H:8])([H:9])[N:5]1[H:10])[H:6]>>[O:1]=[C:2]([C:3]([N:5]([C:4][H:8])[H:10])([H:7])[H:9])[H:6]"
O        1.26886929      -0.02178787       1.70783669
C        1.26991051      -0.35199464       0.55792656
C        0.17088712       0.00144498      -0.40942431
C       -1.65604803      -0.00814089      -0.13910390
N       -0.72794306       1.04426240       0.06809126
H        2.09291059      -0.94882046       0.12365253
H        0.49734929       0.12721203      -1.43786288
H       -1.88479917       0.01687282      -1.22226024
H       -0.48095909      -0.99650275      -0.31500571
H       -0.55017745       1.13745438       1.06615001
10
Frame=1 idx=005486 GeodesicLength=0.047381635934547764 rxn_smarts="[O:1]=[C:2]([C@@:3]1([H:7])[C:4]([H:8])([H:9])[N:5]1[H:10])[H:6]>>[O:1]=[C:2]([C:3]([N:5]([C:4][H:8])[H:10])([H:7])[H:9])[H:6]"
O        1.26904123      -0.02546903       1.70810143
C        1.27431479      -0.34921708       0.55603358
C        0.17223285      -0.00175289      -0.40870086
C       -1.65619633      -0.00304249      -0.14533411
N       -0.72624183       1.04142127       0.06879954
H        2.10018158      -0.94214688       0.12164615
H        0.50040078       0.12832810      -1.43630971
H       -1.88995749       0.02122440      -1.22658913
H       -0.49216131      -1.00753760      -0.30451073
H       -0.55161427       1.13819221       1.06686384
10
Frame=2 idx=005486 GeodesicLength=0.09475920241626504 rxn_smarts="[O:1]=[C:2]([C@@:3]1([H:7])[C:4]([H:8])([H:9])[N:5]1[H:10])[H:6]>>[O:1]=[C:2]([C:3]([N:5]([C:4][H:8])[H:10])([H:7])[H:9])[H:6]"
O        1.26936070      -0.02903253       1.70825015
C        1.27870989      -0.34643660       0.55410868
C        0.17365650      -0.00486297      -0.40803729
C       -1.65621361       0.00192091      -0.15167790
N       -0.72460079       1.03851527       0.06953348
H        2.10729559      -0.93566689       0.11964553
H        0.50356302       0.12970174      -1.43476436
H       -1.89506253       0.02556148      -1.23098614
H       -0.50357714      -1.01853079      -0.29366027
H       -0.55313163       1.13883038       1.06758812
10
Frame=3 idx=005486 GeodesicLength=0.1421299291454311 rxn_smarts="[O:1]=[C:2]([C@@:3]1([H:7])[C:4]([H:8])([H:9])[N:5]1[H:10])[H:6]>>[O:1]=[C:2]([C:3]([N:5]([C:4][H:8])[H:10])([H:7])[H:9])[H:6]"
O        1.26982859      -0.03246202       1.70827982
C        1.28310835      -0.34362760       0.55214253
C        0.17517010      -0.00785976      -0.40744433
C       -1.65608832       0.00672426      -0.15812436
N       -0.72303260       1.03554423       0.07029421
H        2.11421146      -0.92945755       0.11766904
H        0.50684462       0.13137589      -1.43323409
H       -1.90011835       0.02985835      -1.23543619
H       -0.51518810      -1.02946783      -0.28246930
H       -0.55473575       1.13937204       1.06832266
10
Frame=4 idx=005486 GeodesicLength=0.18947196514179804 rxn_smarts="[O:1]=[C:2]([C@@:3]1([H:7])[C:4]([H:8])([H:9])[N:5]1[H:10])[H:6]>>[O:1]=[C:2]([C:3]([N:5]([C:4][H:8])[H:10])([H:7])[H:9])[H:6]"
O        1.27043641      -0.03575117       1.70818637
C        1.28751823      -0.34076888       0.55012569
C        0.17678091      -0.01072324      -0.40693433
C       -1.65581107       0.01135069      -0.16466256
N       -0.72154534       1.03250793       0.07107975
H        2.12089381      -0.92358527       0.11573050
H        0.51025423       0.13339907      -1.43172408
H       -1.90512716       0.03408323      -1.23992357
H       -0.52697210      -1.04033592      -0.27094184
H       -0.55642793       1.13982355       1.06906407
10
Frame=5 idx=005486 GeodesicLength=0.2368180164031004 rxn_smarts="[O:1]=[C:2]([C@@:3]1([H:7])[C:4]([H:8])([H:9])[N:5]1[H:10])[H:6]>>[O:1]=[C:2]([C:3]([N:5]([C:4][H:8])[H:10])([H:7])[H:9])[H:6]"
O        1.27116950      -0.03892868       1.70798329
C        1.29192589      -0.33789992       0.54806870
C        0.17848780      -0.01347098      -0.40650409
C       -1.65538670       0.01581499      -0.17130213
N       -0.72012531       1.02940529       0.07188138
H        2.12740682      -0.91795955       0.11380539
H        0.51379105       0.13573696      -1.43022770
H       -1.91009555       0.03825831      -1.24445602
H       -0.53897540      -1.05114034      -0.25905229
H       -0.55819809       1.14018393       1.06980346
10
Frame=6 idx=005486 GeodesicLength=0.2841544372256462 rxn_smarts="[O:1]=[C:2]([C@@:3]1([H:7])[C:4]([H:8])([H:9])[N:5]1[H:10])[H:6]>>[O:1]=[C:2]([C:3]([N:5]([C:4][H:8])[H:10])([H:7])[H:9])[H:6]"
O        1.27201500      -0.04201613       1.70767578
C        1.29632387      -0.33504119       0.54597474
C        0.18029029      -0.01611514      -0.40615822
C       -1.65481835       0.02012407      -0.17804683
N       -0.71876469       1.02623555       0.07269356
H        2.13378389      -0.91253505       0.11187926
H        0.51746126       0.13838096      -1.42874618
H       -1.91502417       0.04238715      -1.24903680
H       -0.55122369      -1.06187205      -0.24677234
H       -0.56004340       1.14045183       1.07053703
10
Frame=7 idx=005486 GeodesicLength=0.3314868578224741 rxn_smarts="[O:1]=[C:2]([C@@:3]1([H:7])[C:4]([H:8])([H:9])[N:5]1[H:10])[H:6]>>[O:1]=[C:2]([C:3]([N:5]([C:4][H:8])[H:10])([H:7])[H:9])[H:6]"
O        1.27295371      -0.04504524       1.70727232
C        1.30070707      -0.33221142       0.54384656
C        0.18218818      -0.01866578      -0.40590024
C       -1.65410626       0.02428538      -0.18490096
N       -0.71745455       1.02299783       0.07350648
H        2.14006175      -0.90725955       0.10993703
H        0.52126821       0.14132312      -1.42727742
H       -1.91991820       0.04647298      -1.25366683
H       -0.56374401      -1.07252619      -0.23407186
H       -0.56195590       1.14062889       1.07125492
10
Frame=8 idx=005486 GeodesicLength=0.3788194294518803 rxn_smarts="[O:1]=[C:2]([C@@:3]1([H:7])[C:4]([H:8])([H:9])[N:5]1[H:10])[H:6]>>[O:1]=[C:2]([C:3]([N:5]([C:4][H:8])[H:10])([H:7])[H:9])[H:6]"
O        1.27397187      -0.04804155       1.70677912
C        1.30506787      -0.32943464       0.54168771
C        0.18418122      -0.02113494      -0.40573359
C       -1.65325152       0.02830520      -0.19187094
N       -0.71618623       1.01968902       0.07431307
H        2.14627992      -0.90207623       0.10796454
H        0.52521591       0.14455110      -1.42581957
H       -1.92478127       0.05052417      -1.25834975
H       -0.57656854      -1.08309517      -0.22092074
H       -0.56392922       1.14071305       1.07195015
10
Frame=9 idx=005486 GeodesicLength=0.4261579120455118 rxn_smarts="[O:1]=[C:2]([C@@:3]1([H:7])[C:4]([H:8])([H:9])[N:5]1[H:10])[H:6]>>[O:1]=[C:2]([C:3]([N:5]([C:4][H:8])[H:10])([H:7])[H:9])[H:6]"
O        1.27504427      -0.05104851       1.70620693
C        1.30939559      -0.32674140       0.53950388
C        0.18626832      -0.02353823      -0.40566214
C       -1.65225514       0.03219415      -0.19895992
N       -0.71494764       1.01630869       0.07510180
H        2.15249007      -0.89690609       0.10594155
H        0.52930849       0.14804791      -1.42437148
H       -1.92961707       0.05454423      -1.26308656
H       -0.58973575      -1.09357035      -0.20728487
H       -0.56595114       1.14070960       1.07261082
10
Frame=10 idx=005486 GeodesicLength=0.4734905059824414 rxn_smarts="[O:1]=[C:2]([C@@:3]1([H:7])[C:4]([H:8])([H:9])[N:5]1[H:10])[H:6]>>[O:1]=[C:2]([C:3]([N:5]([C:4][H:8])[H:10])([H:7])[H:9])[H:6]"
O        1.27615584      -0.05409512       1.70556084
C        1.31368094      -0.32415973       0.53729903
C        0.18844906      -0.02589107      -0.40569007
C       -1.65111643       0.03595512      -0.20617296
N       -0.71372933       1.01285230       0.07586418
H        2.15873009      -0.89168656       0.10385360
H        0.53355255       0.15180519      -1.42292991
H       -1.93442739       0.05853629      -1.26787857
H       -0.60328285      -1.10393348      -0.19313343
H       -0.56801246       1.14061705       1.07322729
10
Frame=11 idx=005486 GeodesicLength=0.520842525735403 rxn_smarts="[O:1]=[C:2]([C@@:3]1([H:7])[C:4]([H:8])([H:9])[N:5]1[H:10])[H:6]>>[O:1]=[C:2]([C:3]([N:5]([C:4][H:8])[H:10])([H:7])[H:9])[H:6]"
O        1.27730706      -0.05716593       1.70483709
C        1.31793520      -0.32167069       0.53506573
C        0.19073624      -0.02816746      -0.40582808
C       -1.64982293       0.03956143      -0.21350493
N       -0.71254328       1.00931471       0.07660051
H        2.16497040      -0.88648003       0.10171852
H        0.53795550       0.15585959      -1.42149813
H       -1.93922232       0.06248905      -1.27271201
H       -0.61719836      -1.11417891      -0.17847686
H       -0.57011752       1.14043825       1.07379814
10
Frame=12 idx=005486 GeodesicLength=0.5681832439953423 rxn_smarts="[O:1]=[C:2]([C@@:3]1([H:7])[C:4]([H:8])([H:9])[N:5]1[H:10])[H:6]>>[O:1]=[C:2]([C:3]([N:5]([C:4][H:8])[H:10])([H:7])[H:9])[H:6]"
O        1.27848149      -0.06029434       1.70403933
C        1.32215181      -0.31929813       0.53280715
C        0.19313115      -0.03038298      -0.40608310
C       -1.64837539       0.04301133      -0.22095867
N       -0.71138249       1.00569191       0.07730304
H        2.17124957      -0.88122819       0.09952546
H        0.54252753       0.16020129      -1.42008065
H       -1.94400591       0.06640721      -1.27758671
H       -0.63151577      -1.12427854      -0.16328068
H       -0.57226200       1.14017044       1.07431481
10
Frame=13 idx=005486 GeodesicLength=0.6155424484617483 rxn_smarts="[O:1]=[C:2]([C@@:3]1([H:7])[C:4]([H:8])([H:9])[N:5]1[H:10])[H:6]>>[O:1]=[C:2]([C:3]([N:5]([C:4][H:8])[H:10])([H:7])[H:9])[H:6]"
O        1.27966270      -0.06350583       1.70317107
C        1.32632980      -0.31705200       0.53052001
C        0.19563524      -0.03253863      -0.40646162
C       -1.64676624       0.04630740      -0.22854133
N       -0.71023900       1.00197863       0.07796185
H        2.17758730      -0.87590063       0.09726363
H        0.54727033       0.16484181      -1.41866558
H       -1.94877941       0.07028241      -1.28250201
H       -0.64626266      -1.13422592      -0.14751359
H       -0.57443805       1.13981275       1.07476755
10
Frame=14 idx=005486 GeodesicLength=0.6629068984211628 rxn_smarts="[O:1]=[C:2]([C@@:3]1([H:7])[C:4]([H:8])([H:9])[N:5]1[H:10])[H:6]>>[O:1]=[C:2]([C:3]([N:5]([C:4][H:8])[H:10])([H:7])[H:9])[H:6]"
O        1.28084944      -0.06679304       1.70222782
C        1.33048240      -0.31491000       0.52819709
C        0.19826536      -0.03460838      -0.40697687
C       -1.64498508       0.04941651      -0.23624200
N       -0.70912605       0.99817397       0.07857827
H        2.18394978      -0.87056345       0.09495216
H        0.55219867       0.16981864      -1.41726610
H       -1.95354964       0.07409121      -1.28744046
H       -0.66143093      -1.14399183      -0.13118617
H       -0.57665394       1.13936637       1.07515626
10
Frame=15 idx=005486 GeodesicLength=0.7102749673559535 rxn_smarts="[O:1]=[C:2]([C@@:3]1([H:7])[C:4]([H:8])([H:9])[N:5]1[H:10])[H:6]>>[O:1]=[C:2]([C:3]([N:5]([C:4][H:8])[H:10])([H:7])[H:9])[H:6]"
O        1.28203596      -0.07015375       1.70120626
C        1.33461825      -0.31285615       0.52583214
C        0.20103460      -0.03656733      -0.40764083
C       -1.64301970       0.05231545      -0.24405300
N       -0.70805091       0.99427581       0.07914943
H        2.19030965      -0.86526955       0.09260494
H        0.55732125       0.17517160      -1.41588453
H       -1.95832242       0.07780606      -1.29238471
H       -0.67701529      -1.15355602      -0.11430609
H       -0.57891139       1.13883388       1.07547640
10
Frame=16 idx=005486 GeodesicLength=0.757643707027944 rxn_smarts="[O:1]=[C:2]([C@@:3]1([H:7])[C:4]([H:8])([H:9])[N:5]1[H:10])[H:6]>>[O:1]=[C:2]([C:3]([N:5]([C:4][H:8])[H:10])([H:7])[H:9])[H:6]"
O        1.28321580      -0.07358701       1.70010339
C        1.33874626      -0.31087431       0.52341933
C        0.20395679      -0.03839019      -0.40846546
C       -1.64085875       0.05498094      -0.25196679
N       -0.70702053       0.99028268       0.07967261
H        2.19664164      -0.86007040       0.09023508
H        0.56264718       0.18093863      -1.41452368
H       -1.96310389       0.08139977      -1.29731721
H       -0.69301171      -1.16289811      -0.09688117
H       -0.58121279       1.13821799       1.07572390
