16
Frame=0 idx=004635 GeodesicLength=0.0 rxn_smarts="[C:1]1([H:7])([H:8])[C:2]([H:9])([H:10])[C:3]([H:11])([H:12])[C:4]([H:13])=[C:5]([H:14])[C:6]1([H:15])[H:16]>>[C:1]1([H:7])([H:8])[C:2]([H:9])([H:10])[C:3]([H:11])([H:12])[C:4]1([C:5](=[C:6]([H:15])[H:16])[H:14])[H:13]"
C       -0.60868994      -1.24145127      -0.43025814
C       -1.01142061      -0.59745106       0.84556600
C       -1.16431296       0.83538134       0.41046033
C        0.05957653       1.21638142      -0.36408507
C        1.39799140       0.78724462      -0.19399709
C        1.90061068      -0.43906557      -0.46287856
H       -1.23059627      -1.03256089      -1.29537283
H       -0.18273133      -2.23883284      -0.41836561
H       -0.22558473      -0.70205151       1.59697988
H       -1.93420587      -1.00573653       1.27922289
H       -1.37190674       1.55979797       1.21133647
H       -2.03028799       0.88136786      -0.26384282
H       -0.00919025       2.23932606      -0.74572822
H        2.11848962       1.55116431       0.11671571
H        2.87417811      -0.74773892      -0.09150089
H        1.41808033      -1.06577501      -1.19425206
16
Frame=1 idx=004635 GeodesicLength=0.07350130420167626 rxn_smarts="[C:1]1([H:7])([H:8])[C:2]([H:9])([H:10])[C:3]([H:11])([H:12])[C:4]([H:13])=[C:5]([H:14])[C:6]1([H:15])[H:16]>>[C:1]1([H:7])([H:8])[C:2]([H:9])([H:10])[C:3]([H:11])([H:12])[C:4]1([C:5](=[C:6]([H:15])[H:16])[H:14])[H:13]"
C       -0.58672556      -1.22091247      -0.43635271
C       -1.01159015      -0.59829343       0.84617231
C       -1.16349307       0.84036513       0.42476556
C        0.05112543       1.20517067      -0.37431590
C        1.39167397       0.78712524      -0.19858975
C        1.88695251      -0.44954158      -0.44948274
H       -1.22027704      -1.02700766      -1.29710949
H       -0.17224768      -2.22361715      -0.42707412
H       -0.23517726      -0.70797221       1.60653716
H       -1.93754599      -1.01662011       1.26183895
H       -1.34441046       1.56051892       1.23501261
H       -2.04142166       0.89868030      -0.23255317
H       -0.02334180       2.21665204      -0.78379324
H        2.11181226       1.55658565       0.09596758
H        2.84928741      -0.76047813      -0.05141124
H        1.44537910      -1.06065520      -1.21961180
16
Frame=2 idx=004635 GeodesicLength=0.1468191617433693 rxn_smarts="[C:1]1([H:7])([H:8])[C:2]([H:9])([H:10])[C:3]([H:11])([H:12])[C:4]([H:13])=[C:5]([H:14])[C:6]1([H:15])[H:16]>>[C:1]1([H:7])([H:8])[C:2]([H:9])([H:10])[C:3]([H:11])([H:12])[C:4]1([C:5](=[C:6]([H:15])[H:16])[H:14])[H:13]"
C       -0.56570425      -1.20088930      -0.44216244
C       -1.01183784      -0.59915075       0.84641062
C       -1.16225299       0.84524440       0.43873979
C        0.04269258       1.19423758      -0.38419057
C        1.38535686       0.78724249      -0.20352461
C        1.87323623      -0.45929458      -0.43743000
H       -1.20968821      -1.02179197      -1.29902147
H       -0.16241950      -2.20865911      -0.43550244
H       -0.24476117      -0.71440147       1.61532555
H       -1.94080595      -1.02666986       1.24432532
H       -1.31678279       1.56067211       1.25773379
H       -2.05147766       0.91612780      -0.20155137
H       -0.03771783       2.19395904      -0.81997082
H        2.10514009       1.56171692       0.07529559
H        2.82388494      -0.77200371      -0.01322117
H        1.47313748      -1.05633960      -1.24125575
16
Frame=3 idx=004635 GeodesicLength=0.22000135703516213 rxn_smarts="[C:1]1([H:7])([H:8])[C:2]([H:9])([H:10])[C:3]([H:11])([H:12])[C:4]([H:13])=[C:5]([H:14])[C:6]1([H:15])[H:16]>>[C:1]1([H:7])([H:8])[C:2]([H:9])([H:10])[C:3]([H:11])([H:12])[C:4]1([C:5](=[C:6]([H:15])[H:16])[H:14])[H:13]"
C       -0.54556052      -1.18138443      -0.44769627
C       -1.01216763      -0.60001775       0.84631059
C       -1.16060038       0.85002059       0.45240921
C        0.03427106       1.18354989      -0.39375296
C        1.37903751       0.78756852      -0.20880893
C        1.85951749      -0.46840510      -0.42653442
H       -1.19888067      -1.01692073      -1.30107566
H       -0.15313845      -2.19395498      -0.44362762
H       -0.25436034      -0.72129535       1.62340039
H       -1.94402047      -1.03591212       1.22669173
H       -1.28900053       1.56026987       1.27955660
H       -2.06050372       0.93371810      -0.17077990
H       -0.05230922       2.17127974      -0.85440411
H        2.09842694       1.56659111       0.05473279
H        2.79802863      -0.78238660       0.02328198
H        1.50126028      -1.05272078      -1.25970342
16
Frame=4 idx=004635 GeodesicLength=0.2930598986954015 rxn_smarts="[C:1]1([H:7])([H:8])[C:2]([H:9])([H:10])[C:3]([H:11])([H:12])[C:4]([H:13])=[C:5]([H:14])[C:6]1([H:15])[H:16]>>[C:1]1([H:7])([H:8])[C:2]([H:9])([H:10])[C:3]([H:11])([H:12])[C:4]1([C:5](=[C:6]([H:15])[H:16])[H:14])[H:13]"
C       -0.52624398      -1.16240433      -0.45296826
C       -1.01258870      -0.60089086       0.84589371
C       -1.15854205       0.85469686       0.46579765
C        0.02585173       1.17308211      -0.40304581
C        1.37270933       0.78807826      -0.21445390
C        1.84583647      -0.47693718      -0.41665852
H       -1.18790054      -1.01239634      -1.30325912
H       -0.14433587      -2.17951744      -0.45143615
H       -0.26399978      -0.72862445       1.63080324
H       -1.94722355      -1.04436148       1.20894402
H       -1.26104148       1.55932278       1.30053583
H       -2.06853466       0.95146031      -0.14019062
H       -0.06711157       2.14864858      -0.88720565
H        2.09163151       1.57123626       0.03431194
H        2.77180506      -0.79166261       0.05823881
H        1.52968809      -1.04973046      -1.27530716
16
Frame=5 idx=004635 GeodesicLength=0.3660076426635698 rxn_smarts="[C:1]1([H:7])([H:8])[C:2]([H:9])([H:10])[C:3]([H:11])([H:12])[C:4]([H:13])=[C:5]([H:14])[C:6]1([H:15])[H:16]>>[C:1]1([H:7])([H:8])[C:2]([H:9])([H:10])[C:3]([H:11])([H:12])[C:4]1([C:5](=[C:6]([H:15])[H:16])[H:14])[H:13]"
C       -0.50770550      -1.14394090      -0.45801059
C       -1.01309390      -0.60177904       0.84517169
C       -1.15607331       0.85926824       0.47894229
C        0.01742610       1.16281521      -0.41209968
C        1.36636679       0.78875240      -0.22048829
C        1.83223226      -0.48493994      -0.40770441
H       -1.17678920      -1.00819772      -1.30557109
H       -0.13595422      -2.16534826      -0.45895438
H       -0.27368153      -0.73638244       1.63755470
H       -1.95042543      -1.05205232       1.19108182
H       -1.23285969       1.55782314       1.32074111
H       -2.07559458       0.96936196      -0.10970820
H       -0.08213614       2.12609692      -0.91850566
H        2.08474001       1.57569467       0.01397190
H        2.74516474      -0.79986676       0.09189794
H        1.55838360      -1.04730515      -1.28831917
16
Frame=6 idx=004635 GeodesicLength=0.43885911320555226 rxn_smarts="[C:1]1([H:7])([H:8])[C:2]([H:9])([H:10])[C:3]([H:11])([H:12])[C:4]([H:13])=[C:5]([H:14])[C:6]1([H:15])[H:16]>>[C:1]1([H:7])([H:8])[C:2]([H:9])([H:10])[C:3]([H:11])([H:12])[C:4]1([C:5](=[C:6]([H:15])[H:16])[H:14])[H:13]"
C       -0.48989849      -1.12599224      -0.46283078
C       -1.01370831      -0.60267611       0.84416149
C       -1.15320980       0.86373930       0.49186020
C        0.00898642       1.15272985      -0.42092570
C        1.36000256       0.78957028      -0.22688533
C        1.81871674      -0.49246966      -0.39955371
H       -1.16556764      -1.00432555      -1.30800173
H       -0.12794944      -2.15145899      -0.46616004
H       -0.28345398      -0.74454542       1.64369687
H       -1.95368085      -1.05898919       1.17309398
H       -1.20446870       1.55578219       1.34020413
H       -2.08169888       0.98743251      -0.07930725
H       -0.09738225       2.10363772      -0.94837677
H        2.07773020       1.57998742      -0.00627612
H        2.71825367      -0.80702569       0.12423367
H        1.58732875      -1.04539644      -1.29893292
16
Frame=7 idx=004635 GeodesicLength=0.5116288478432992 rxn_smarts="[C:1]1([H:7])([H:8])[C:2]([H:9])([H:10])[C:3]([H:11])([H:12])[C:4]([H:13])=[C:5]([H:14])[C:6]1([H:15])[H:16]>>[C:1]1([H:7])([H:8])[C:2]([H:9])([H:10])[C:3]([H:11])([H:12])[C:4]1([C:5](=[C:6]([H:15])[H:16])[H:14])[H:13]"
C       -0.47278348      -1.10854508      -0.46745104
C       -1.01443969      -0.60358316       0.84287374
C       -1.14995616       0.86810990       0.50457590
C        0.00052409       1.14281059      -0.42953613
C        1.35360968       0.79051907      -0.23364583
C        1.80530529      -0.49956687      -0.39212576
H       -1.15426207      -1.00076404      -1.31054830
H       -0.12028639      -2.13785045      -0.47306469
H       -0.29333820      -0.75310146       1.64924914
H       -1.95701242      -1.06519126       1.15497668
H       -1.17585829       1.55319665       1.35896589
H       -2.08685754       1.00567726      -0.04894500
H       -0.11286204       2.08128216      -0.97689847
H        2.07058844       1.58414447      -0.02647042
H        2.69111215      -0.81317023       0.15533889
H        1.61651663      -1.04396756      -1.30729461
16
Frame=8 idx=004635 GeodesicLength=0.5843365272549544 rxn_smarts="[C:1]1([H:7])([H:8])[C:2]([H:9])([H:10])[C:3]([H:11])([H:12])[C:4]([H:13])=[C:5]([H:14])[C:6]1([H:15])[H:16]>>[C:1]1([H:7])([H:8])[C:2]([H:9])([H:10])[C:3]([H:11])([H:12])[C:4]1([C:5](=[C:6]([H:15])[H:16])[H:14])[H:13]"
C       -0.45631556      -1.09158161      -0.47190719
C       -1.01529081      -0.60450505       0.84131609
C       -1.14631071       0.87237535       0.51711751
C       -0.00796924       1.13304582      -0.43793937
C        1.34717930       0.79158166      -0.24078889
C        1.79200843      -0.50626425      -0.38533983
H       -1.14289648      -0.99748738      -1.31321835
H       -0.11293278      -2.12452197      -0.47970151
H       -0.30334790      -0.76204512       1.65422760
H       -1.96044689      -1.07068746       1.13672731
H       -1.14700615       1.55005588       1.37707056
H       -2.09107094       1.02409991      -0.01856748
H       -0.12859327       2.05905082      -1.00414821
H        2.06330975       1.58819147      -0.04668345
H        2.66374077      -0.81830913       0.18532248
H        1.64594249      -1.04299896      -1.31348727
16
Frame=9 idx=004635 GeodesicLength=0.6569251023885464 rxn_smarts="[C:1]1([H:7])([H:8])[C:2]([H:9])([H:10])[C:3]([H:11])([H:12])[C:4]([H:13])=[C:5]([H:14])[C:6]1([H:15])[H:16]>>[C:1]1([H:7])([H:8])[C:2]([H:9])([H:10])[C:3]([H:11])([H:12])[C:4]1([C:5](=[C:6]([H:15])[H:16])[H:14])[H:13]"
C       -0.44046653      -1.07509923      -0.47624383
C       -1.01625823      -0.60544885       0.83948943
C       -1.14227443       0.87652655       0.52950203
C       -0.01650170       1.12343694      -0.44617373
C        1.34070367       0.79275039      -0.24838590
C        1.77882984      -0.51259836      -0.37907929
H       -1.13148175      -0.99446499      -1.31605212
H       -0.10587356      -2.11147531      -0.48612988
H       -0.31348554      -0.77137397       1.65865845
H       -1.96400037      -1.07548320       1.11833023
H       -1.11788229       1.54633683       1.39458651
H       -2.09434099       1.04268546       0.01188271
H       -0.14459068       2.03695267      -1.03021910
H        2.05587146       1.59215138      -0.06697164
H        2.63625124      -0.82248721       0.21424787
H        1.67549985      -1.04240912      -1.31744173
16
Frame=10 idx=004635 GeodesicLength=0.7294847666943951 rxn_smarts="[C:1]1([H:7])([H:8])[C:2]([H:9])([H:10])[C:3]([H:11])([H:12])[C:4]([H:13])=[C:5]([H:14])[C:6]1([H:15])[H:16]>>[C:1]1([H:7])([H:8])[C:2]([H:9])([H:10])[C:3]([H:11])([H:12])[C:4]1([C:5](=[C:6]([H:15])[H:16])[H:14])[H:13]"
C       -0.42519336      -1.05907582      -0.48045229
C       -1.01735715      -0.60640658       0.83740663
C       -1.13784755       0.88056811       0.54175168
C       -0.02508296       1.11396217      -0.45422008
C        1.33417652       0.79401269      -0.25637602
C        1.76577872      -0.51858994      -0.37333388
H       -1.12003864      -0.99170844      -1.31900655
H       -0.09906860      -2.09870984      -0.49230677
H       -0.32379055      -0.78106750       1.66254717
H       -1.96769647      -1.07959229       1.09978704
H       -1.08849750       1.54204401       1.41150831
H       -2.09666340       1.06144346       0.04241304
H       -0.16086167       2.01499105      -1.05512607
H        2.04827178       1.59603890      -0.08736462
H        2.60858444      -0.82571729       0.24221093
H        1.70528639      -1.04219271      -1.31943852
16
Frame=11 idx=004635 GeodesicLength=0.8020241779626844 rxn_smarts="[C:1]1([H:7])([H:8])[C:2]([H:9])([H:10])[C:3]([H:11])([H:12])[C:4]([H:13])=[C:5]([H:14])[C:6]1([H:15])[H:16]>>[C:1]1([H:7])([H:8])[C:2]([H:9])([H:10])[C:3]([H:11])([H:12])[C:4]1([C:5](=[C:6]([H:15])[H:16])[H:14])[H:13]"
C       -0.41046169      -1.04350007      -0.48455496
C       -1.01858745      -0.60738311       0.83507052
C       -1.13302123       0.88449173       0.55388682
C       -0.03371908       1.10460853      -0.46209400
C        1.32759217       0.79534714      -0.26478887
C        1.75286394      -0.52426293      -0.36805535
H       -1.10857688      -0.98920830      -1.32208518
H       -0.09249074      -2.08622362      -0.49824972
H       -0.33427071      -0.79112661       1.66590383
H       -1.97154776      -1.08302694       1.08108724
H       -1.05881748       1.53715534       1.42787369
H       -2.09802894       1.08036435       0.07306708
H       -0.17741663       1.99319430      -1.07893498
H        2.04050555       1.59985771      -0.10792187
H        2.58069673      -0.82799619       0.26933544
H        1.73528021      -1.04229136      -1.31953969
16
Frame=12 idx=004635 GeodesicLength=0.8745637025624484 rxn_smarts="[C:1]1([H:7])([H:8])[C:2]([H:9])([H:10])[C:3]([H:11])([H:12])[C:4]([H:13])=[C:5]([H:14])[C:6]1([H:15])[H:16]>>[C:1]1([H:7])([H:8])[C:2]([H:9])([H:10])[C:3]([H:11])([H:12])[C:4]1([C:5](=[C:6]([H:15])[H:16])[H:14])[H:13]"
C       -0.39623687      -1.02835972      -0.48856399
C       -1.01995660      -0.60837598       0.83248616
C       -1.12779384       0.88829421       0.56592347
C       -0.04241819       1.09536855      -0.46980072
C        1.32094352       0.79674402      -0.27362761
C        1.74008348      -0.52964138      -0.36319647
H       -1.09710112      -0.98695900      -1.32528565
H       -0.08611785      -2.07401620      -0.50396025
H       -0.34495056      -0.80153949       1.66874372
H       -1.97557135      -1.08578874       1.06221956
H       -1.02883721       1.53166047       1.44370635
H       -2.09842842       1.09943422       0.10386100
H       -0.19426668       1.97156928      -1.10168585
H        2.03256327       1.60361589      -0.12867728
H        2.55261894      -0.82934991       0.29565975
H        1.76546948      -1.04265621      -1.31780218
16
Frame=13 idx=004635 GeodesicLength=0.9471132523069931 rxn_smarts="[C:1]1([H:7])([H:8])[C:2]([H:9])([H:10])[C:3]([H:11])([H:12])[C:4]([H:13])=[C:5]([H:14])[C:6]1([H:15])[H:16]>>[C:1]1([H:7])([H:8])[C:2]([H:9])([H:10])[C:3]([H:11])([H:12])[C:4]1([C:5](=[C:6]([H:15])[H:16])[H:14])[H:13]"
C       -0.38249204      -1.01363976      -0.49250331
C       -1.02146298      -0.60939021       0.82965444
C       -1.12215537       0.89196509       0.57788011
C       -0.05118709       1.08623203      -0.47734919
C        1.31422332       0.79818806      -0.28292242
C        1.72744316      -0.53474006      -0.35872006
H       -1.08561912      -0.98494664      -1.32861554
H       -0.07993130      -2.06208269      -0.50946328
H       -0.35583526      -0.81230791       1.67106842
H       -1.97977313      -1.08788995       1.04317775
H       -0.99852396       1.52553506       1.45903167
H       -2.09784245       1.11863926       0.13483557
H       -0.21142345       1.95013749      -1.12342795
H        2.02443939       1.60731577      -0.14969401
H        2.52430082      -0.82976701       0.32128540
H        1.79583946      -1.04324853      -1.31423760
16
Frame=14 idx=004635 GeodesicLength=1.019685635472419 rxn_smarts="[C:1]1([H:7])([H:8])[C:2]([H:9])([H:10])[C:3]([H:11])([H:12])[C:4]([H:13])=[C:5]([H:14])[C:6]1([H:15])[H:16]>>[C:1]1([H:7])([H:8])[C:2]([H:9])([H:10])[C:3]([H:11])([H:12])[C:4]1([C:5](=[C:6]([H:15])[H:16])[H:14])[H:13]"
C       -0.36920183      -0.99932653      -0.49638730
C       -1.02311324      -0.61042325       0.82657887
C       -1.11610298       0.89549856       0.58976864
C       -0.06003215       1.07719418      -0.48474023
C        1.30742491       0.79967291      -0.29267426
C        1.71494093      -0.53957991      -0.35458463
H       -1.07413658      -0.98316005      -1.33207694
H       -0.07391912      -2.05042059      -0.51476913
H       -0.36694503      -0.82342091       1.67288565
H       -1.98416559      -1.08933043       1.02395665
H       -0.96787835       1.51876500       1.47386186
H       -2.09625470       1.13796290       0.16600600
H       -0.22890061       1.92889849      -1.14419145
H        2.01612576       1.61096333      -0.17100713
H        2.49577979      -0.82926411       0.34622702
H        1.82637878      -1.04402960      -1.30885364
16
Frame=15 idx=004635 GeodesicLength=1.092294709590145 rxn_smarts="[C:1]1([H:7])([H:8])[C:2]([H:9])([H:10])[C:3]([H:11])([H:12])[C:4]([H:13])=[C:5]([H:14])[C:6]1([H:15])[H:16]>>[C:1]1([H:7])([H:8])[C:2]([H:9])([H:10])[C:3]([H:11])([H:12])[C:4]1([C:5](=[C:6]([H:15])[H:16])[H:14])[H:13]"
C       -0.35634348      -0.98540367      -0.50023504
C       -1.02491124      -0.61147602       0.82326065
C       -1.10963020       0.89888569       0.60160315
C       -0.06895984       1.06824976      -0.49197563
C        1.30054027       0.80118942      -0.30289642
C        1.70257594      -0.54417440      -0.35075079
H       -1.06265889      -0.98158399      -1.33567734
H       -0.06806797      -2.03902286      -0.51989805
H       -0.37829452      -0.83487558       1.67419737
H       -1.98875964      -1.09011368       1.00454993
H       -0.93688332       1.51132755       1.48821201
H       -2.09364233       1.15739000       0.19739861
H       -0.24671634       1.90785455      -1.16401030
H        2.00761610       1.61456042      -0.19267027
H        2.46705770      -0.82784182       0.37052071
H        1.85707776      -1.04496536      -1.30162859
16
Frame=16 idx=004635 GeodesicLength=1.1649518354825434 rxn_smarts="[C:1]1([H:7])([H:8])[C:2]([H:9])([H:10])[C:3]([H:11])([H:12])[C:4]([H:13])=[C:5]([H:14])[C:6]1([H:15])[H:16]>>[C:1]1([H:7])([H:8])[C:2]([H:9])([H:10])[C:3]([H:11])([H:12])[C:4]1([C:5](=[C:6]([H:15])[H:16])[H:14])[H:13]"
C       -0.34389674      -0.97185657      -0.50406091
C       -1.02685821      -0.61254722       0.81970306
C       -1.10273125       0.90211716       0.61339244
C       -0.07797421       1.05939358      -0.49905533
C        1.29356256       0.80272806      -0.31359506
C        1.69034859      -0.54853981      -0.34718765
H       -1.05119259      -0.98020603      -1.33942058
H       -0.06236807      -2.02788380      -0.52486606
H       -0.38989445      -0.84666113       1.67500606
H       -1.99356019      -1.09024165       0.98495960
H       -0.90553606       1.50320416       1.50208565
H       -2.08997803       1.17689832       0.22902620
H       -0.26488333       1.88700527      -1.18290819
H        1.99890410       1.61810511      -0.21472287
H        2.43813704      -0.82550913       0.39419219
H        1.88792084      -1.04600632      -1.29254853
