14
Frame=0 idx=001432 GeodesicLength=0.0 rxn_smarts="[C:1]([C@@:2]([O:3][H:11])([C:4](=[O:5])[C:6]([H:12])([H:13])[H:14])[H:10])([H:7])([H:8])[H:9]>>[C:1](=[C:2]([O:3][H:11])[H:10])([H:7])[H:8].[C:4](=[O:5])([C:6]([H:12])([H:13])[H:14])[H:9]"
C        1.23828227      -0.77958163      -0.00858059
C        0.84896935       0.36257906       0.73705597
O        1.41850438       1.56867073       0.51559101
C       -0.30451912       0.17531614      -0.55530368
O       -0.15776361       1.15427144      -1.33989685
C       -1.62798961      -0.24865745       0.06548814
H        1.03173757      -1.77497962       0.36736236
H        1.99866239      -0.67248742      -0.77390156
H        0.08195857      -0.86729494      -1.03679530
H        0.40002879       0.21625451       1.71438882
H        0.94635102       1.88169381      -0.31331720
H       -2.33679858      -0.47277892      -0.73154840
H       -2.01803965       0.58195623       0.65313134
H       -1.51938374      -1.12496199       0.70632591
14
Frame=1 idx=001432 GeodesicLength=0.12392506851687668 rxn_smarts="[C:1]([C@@:2]([O:3][H:11])([C:4](=[O:5])[C:6]([H:12])([H:13])[H:14])[H:10])([H:7])([H:8])[H:9]>>[C:1](=[C:2]([O:3][H:11])[H:10])([H:7])[H:8].[C:4](=[O:5])([C:6]([H:12])([H:13])[H:14])[H:9]"
C        1.24983788      -0.78475910      -0.00668240
C        0.85664928       0.35713688       0.73821807
O        1.41996745       1.56719834       0.51728621
C       -0.32375818       0.18045812      -0.56733259
O       -0.17961408       1.16625729      -1.33813704
C       -1.64163938      -0.24288646       0.06141307
H        1.05189599      -1.77802379       0.37973039
H        2.01679998      -0.67531829      -0.76500322
H        0.08667109      -0.87423762      -1.05134175
H        0.42319118       0.20939559       1.72268987
H        0.95245658       1.88141132      -0.31113792
H       -2.35084726      -0.48034755      -0.73163920
H       -2.02944761       0.59047398       0.64646229
H       -1.53216291      -1.11675870       0.70547424
14
Frame=2 idx=001432 GeodesicLength=0.24782468485127374 rxn_smarts="[C:1]([C@@:2]([O:3][H:11])([C:4](=[O:5])[C:6]([H:12])([H:13])[H:14])[H:10])([H:7])([H:8])[H:9]>>[C:1](=[C:2]([O:3][H:11])[H:10])([H:7])[H:8].[C:4](=[O:5])([C:6]([H:12])([H:13])[H:14])[H:9]"
C        1.26171407      -0.79017002      -0.00461062
C        0.86435781       0.35150536       0.73935705
O        1.42138941       1.56551474       0.51885940
C       -0.34358991       0.18584989      -0.57967058
O       -0.20176437       1.17856620      -1.33622204
C       -1.65564558      -0.23702474       0.05725574
H        1.07249949      -1.78111538       0.39233648
H        2.03542245      -0.67837545      -0.75564243
H        0.09168025      -0.88090272      -1.06627660
H        0.44691448       0.20253120       1.73093488
H        0.95848362       1.88089004      -0.30905617
H       -2.36519278      -0.48787712      -0.73160697
H       -2.04126358       0.59899849       0.63977138
H       -1.54500536      -1.10839049       0.70457047
14
Frame=3 idx=001432 GeodesicLength=0.3717103714077253 rxn_smarts="[C:1]([C@@:2]([O:3][H:11])([C:4](=[O:5])[C:6]([H:12])([H:13])[H:14])[H:10])([H:7])([H:8])[H:9]>>[C:1](=[C:2]([O:3][H:11])[H:10])([H:7])[H:8].[C:4](=[O:5])([C:6]([H:12])([H:13])[H:14])[H:9]"
C        1.27393041      -0.79583038      -0.00235328
C        0.87209102       0.34566639       0.74047263
O        1.42276213       1.56360219       0.52029976
C       -0.36405132       0.19151033      -0.59234017
O       -0.22423949       1.19121873      -1.33414434
C       -1.67002304      -0.23106556       0.05301282
H        1.09357776      -1.78426030       0.40520645
H        2.05455293      -0.68166722      -0.74578597
H        0.09700775      -0.88726050      -1.08161573
H        0.47122768       0.19566659       1.73911769
H        0.96442975       1.88010605      -0.30708837
H       -2.37985463      -0.49536066      -0.73144702
H       -2.05350091       0.60752993       0.63306794
H       -1.55791003      -1.09985557       0.70359760
14
Frame=4 idx=001432 GeodesicLength=0.49559410078593563 rxn_smarts="[C:1]([C@@:2]([O:3][H:11])([C:4](=[O:5])[C:6]([H:12])([H:13])[H:14])[H:10])([H:7])([H:8])[H:9]>>[C:1](=[C:2]([O:3][H:11])[H:10])([H:7])[H:8].[C:4](=[O:5])([C:6]([H:12])([H:13])[H:14])[H:9]"
C        1.28650782      -0.80175754       0.00010416
C        0.87984456       0.33960042       0.74156540
O        1.42407704       1.56144095       0.52159446
C       -0.38518266       0.19746032      -0.60536451
O       -0.24706743       1.20423930      -1.33189179
C       -1.68478758      -0.22500247       0.04867978
H        1.11516036      -1.78746475       0.41836823
H        2.07421482      -0.68520223      -0.73539874
H        0.10267814      -0.89327746      -1.09737535
H        0.49616138       0.18881037       1.74722899
H        0.97029380       1.87903073      -0.30525465
H       -2.39485238      -0.50279058      -0.73115391
H       -2.06617279       0.61606636       0.62636165
H       -1.57087507      -1.09115342       0.70253629
14
Frame=5 idx=001432 GeodesicLength=0.6194830220426973 rxn_smarts="[C:1]([C@@:2]([O:3][H:11])([C:4](=[O:5])[C:6]([H:12])([H:13])[H:14])[H:10])([H:7])([H:8])[H:9]>>[C:1](=[C:2]([O:3][H:11])[H:10])([H:7])[H:8].[C:4](=[O:5])([C:6]([H:12])([H:13])[H:14])[H:9]"
C        1.29946836      -0.80796804       0.00277783
C        0.88761590       0.33328757       0.74263845
O        1.42532444       1.55901193       0.52273171
C       -0.40702408       0.20372178      -0.61876702
O       -0.27027245       1.21764669      -1.32945507
C       -1.69995448      -0.21882887       0.04425253
H        1.13727630      -1.79073439       0.43184662
H        2.09442919      -0.68898631      -0.72444955
H        0.10871638      -0.89892089      -1.11356912
H        0.52174336       0.18197125       1.75526011
H        0.97607456       1.87763447      -0.30357513
H       -2.41020612      -0.51015808      -0.73072200
H       -2.07929328       0.62460619       0.61966348
H       -1.58389810      -1.08228330       0.70136718
14
Frame=6 idx=001432 GeodesicLength=0.7433945774214028 rxn_smarts="[C:1]([C@@:2]([O:3][H:11])([C:4](=[O:5])[C:6]([H:12])([H:13])[H:14])[H:10])([H:7])([H:8])[H:9]>>[C:1](=[C:2]([O:3][H:11])[H:10])([H:7])[H:8].[C:4](=[O:5])([C:6]([H:12])([H:13])[H:14])[H:9]"
C        1.31283719      -0.81448269       0.00568350
C        0.89540136       0.32670409       0.74368965
O        1.42649377       1.55629193       0.52369420
C       -0.42962361       0.21032176      -0.63257286
O       -0.29388700       1.23147164      -1.32681461
C       -1.71554161      -0.21253756       0.03972661
H        1.15996143      -1.79407414       0.44567767
H        2.11522337      -0.69302893      -0.71289595
H        0.11514856      -0.90415140      -1.13021440
H        0.54800398       0.17515817       1.76319815
H        0.98177384       1.87588130      -0.30207848
H       -2.42593776      -0.51745408      -0.73014795
H       -2.09287818       0.63314590       0.61298851
H       -1.59697534      -1.07324600       0.70006595
14
Frame=7 idx=001432 GeodesicLength=0.8673300441652444 rxn_smarts="[C:1]([C@@:2]([O:3][H:11])([C:4](=[O:5])[C:6]([H:12])([H:13])[H:14])[H:10])([H:7])([H:8])[H:9]>>[C:1](=[C:2]([O:3][H:11])[H:10])([H:7])[H:8].[C:4](=[O:5])([C:6]([H:12])([H:13])[H:14])[H:9]"
C        1.32664121      -0.82132115       0.00884172
C        0.90319998       0.31982623       0.74472264
O        1.42757321       1.55325866       0.52446531
C       -0.45302751       0.21728548      -0.64680931
O       -0.31793760       1.24573652      -1.32395383
C       -1.73156535      -0.20612182       0.03509669
H        1.18324625      -1.79748951       0.45989077
H        2.13661830      -0.69733650      -0.70070310
H        0.12200444      -0.90892638      -1.14732324
H        0.57496975       0.16838313       1.77102998
H        0.98738871       1.87373336      -0.30079165
H       -2.44206909      -0.52466704      -0.72942411
H       -2.10693990       0.64168133       0.60635043
H       -1.61010242      -1.06404231       0.69860770
14
Frame=8 idx=001432 GeodesicLength=0.9912956924468506 rxn_smarts="[C:1]([C@@:2]([O:3][H:11])([C:4](=[O:5])[C:6]([H:12])([H:13])[H:14])[H:10])([H:7])([H:8])[H:9]>>[C:1](=[C:2]([O:3][H:11])[H:10])([H:7])[H:8].[C:4](=[O:5])([C:6]([H:12])([H:13])[H:14])[H:9]"
C        1.34090910      -0.82850616       0.01227294
C        0.91101026       0.31262631       0.74574085
O        1.42854947       1.54988559       0.52502611
C       -0.47728799       0.22464134      -0.66150397
O       -0.34245582       1.26046871      -1.32085079
C       -1.74804394      -0.19957334       0.03035727
H        1.20716772      -1.80098575       0.47452130
H        2.15863960      -0.70191568      -0.68783088
H        0.12931416      -0.91319914      -1.16490909
H        0.60267077       0.16165990       1.77873759
H        0.99291677       1.87114741      -0.29974583
H       -2.45862271      -0.53178578      -0.72854707
H       -2.12149318       0.65021017       0.59976501
H       -1.62327420      -1.05467358       0.69696656
14
Frame=9 idx=001432 GeodesicLength=1.1153311939780672 rxn_smarts="[C:1]([C@@:2]([O:3][H:11])([C:4](=[O:5])[C:6]([H:12])([H:13])[H:14])[H:10])([H:7])([H:8])[H:9]>>[C:1](=[C:2]([O:3][H:11])[H:10])([H:7])[H:8].[C:4](=[O:5])([C:6]([H:12])([H:13])[H:14])[H:9]"
C        1.35567641      -0.83605712       0.01600421
C        0.91883195       0.30507521       0.74675566
O        1.42940409       1.54614663       0.52536799
C       -0.50246286       0.23243835      -0.67667864
O       -0.36744932       1.27566809      -1.31750710
C       -1.76499433      -0.19288514       0.02550062
H        1.23177180      -1.80456570       0.48960734
H        2.18130485      -0.70675835      -0.67426587
H        0.13710005      -0.91693923      -1.18297360
H        0.63112851       0.15500291       1.78630802
H        0.99835669       1.86807923      -0.29897058
H       -2.47562937      -0.53877994      -0.72750412
H       -2.13655117       0.65871610       0.59325527
H       -1.63648731      -1.04514104       0.69510081
14
Frame=10 idx=001432 GeodesicLength=1.239405097040408 rxn_smarts="[C:1]([C@@:2]([O:3][H:11])([C:4](=[O:5])[C:6]([H:12])([H:13])[H:14])[H:10])([H:7])([H:8])[H:9]>>[C:1](=[C:2]([O:3][H:11])[H:10])([H:7])[H:8].[C:4](=[O:5])([C:6]([H:12])([H:13])[H:14])[H:9]"
C        1.37097568      -0.84400250       0.02005815
C        0.92666767       0.29714080       0.74776243
O        1.43012837       1.54200902       0.52545308
C       -0.52860652       0.24069780      -0.69236641
O       -0.39297013       1.29138965      -1.31386873
C       -1.78243634      -0.18604758       0.02052323
H        1.25708892      -1.80823472       0.50518893
H        2.20464523      -0.71188273      -0.65994575
H        0.14540440      -0.92008383      -1.20153124
H        0.66036719       0.14843491       1.79370871
H        1.00370202       1.86447488      -0.29850740
H       -2.49310688      -0.54564536      -0.72630133
H       -2.15212956       0.66720256       0.58684200
H       -1.64973007      -1.03545289       0.69298434
14
Frame=11 idx=001432 GeodesicLength=1.363510731169543 rxn_smarts="[C:1]([C@@:2]([O:3][H:11])([C:4](=[O:5])[C:6]([H:12])([H:13])[H:14])[H:10])([H:7])([H:8])[H:9]>>[C:1](=[C:2]([O:3][H:11])[H:10])([H:7])[H:8].[C:4](=[O:5])([C:6]([H:12])([H:13])[H:14])[H:9]"
C        1.38684664      -0.85236594       0.02446105
C        0.93452355       0.28879028       0.74876670
O        1.43070472       1.53744212       0.52525374
C       -0.55577962       0.24945653      -0.70860190
O       -0.41904282       1.30765520      -1.30990663
C       -1.80038745      -0.17905151       0.01541829
H        1.28315675      -1.81199770       0.52130196
H        2.22868537      -0.71729068      -0.64482711
H        0.15425776      -0.92258053      -1.22058325
H        0.69040285       0.14197294       1.80091474
H        1.00894135       1.86028010      -0.29839567
H       -2.51108139      -0.55236040      -0.72493250
H       -2.16823663       0.67566297       0.58055033
H       -1.66299107      -1.02561338       0.69058025
14
Frame=12 idx=001432 GeodesicLength=1.4876369221324508 rxn_smarts="[C:1]([C@@:2]([O:3][H:11])([C:4](=[O:5])[C:6]([H:12])([H:13])[H:14])[H:10])([H:7])([H:8])[H:9]>>[C:1](=[C:2]([O:3][H:11])[H:10])([H:7])[H:8].[C:4](=[O:5])([C:6]([H:12])([H:13])[H:14])[H:9]"
C        1.40333077      -0.86117391       0.02924237
C        0.94240667       0.27998623       0.74977497
O        1.43111688       1.53241024       0.52474063
C       -0.58404580       0.25875495      -0.72541600
O       -0.44569180       1.32448470      -1.30558838
C       -1.81886588      -0.17188559       0.01017976
H        1.31001979      -1.81585542       0.53798902
H        2.25344490      -0.72298251      -0.62887580
H        0.16369350      -0.92437761      -1.24012607
H        0.72124881       0.13564145       1.80789424
H        1.01406087       1.85543583      -0.29867275
H       -2.52957741      -0.55890095      -0.72339870
H       -2.18488224       0.68409244       0.57440989
H       -1.67625906      -1.01562985       0.68784681
14
Frame=13 idx=001432 GeodesicLength=1.61177250573961 rxn_smarts="[C:1]([C@@:2]([O:3][H:11])([C:4](=[O:5])[C:6]([H:12])([H:13])[H:14])[H:10])([H:7])([H:8])[H:9]>>[C:1](=[C:2]([O:3][H:11])[H:10])([H:7])[H:8].[C:4](=[O:5])([C:6]([H:12])([H:13])[H:14])[H:9]"
C        1.42047561      -0.87045130       0.03443445
C        0.95032796       0.27069020       0.75079539
O        1.43134613       1.52687729       0.52388522
C       -0.61347212       0.26863907      -0.74284093
O       -0.47293629       1.34189401      -1.30088329
C       -1.83788901      -0.16453814       0.00480147
H        1.33772369      -1.81980953       0.55529031
H        2.27894587      -0.72895309      -0.61206122
H        0.17374043      -0.92542780      -1.26014885
H        0.75290756       0.12946260       1.81461444
H        1.01904624       1.84987992      -0.29938008
H       -2.54862164      -0.56523858      -0.72169759
H       -2.20207454       0.69248448       0.56845208
H       -1.68951989      -1.00550914       0.68473859
14
Frame=14 idx=001432 GeodesicLength=1.735914993594999 rxn_smarts="[C:1]([C@@:2]([O:3][H:11])([C:4](=[O:5])[C:6]([H:12])([H:13])[H:14])[H:10])([H:7])([H:8])[H:9]>>[C:1](=[C:2]([O:3][H:11])[H:10])([H:7])[H:8].[C:4](=[O:5])([C:6]([H:12])([H:13])[H:14])[H:9]"
C        1.43833577      -0.88022753       0.04007091
C        0.95830203       0.26085679       0.75183704
O        1.43136859       1.52080089       0.52265405
C       -0.64413714       0.27916162      -0.76091318
O       -0.50079571       1.35989895      -1.29575584
C       -1.85747520      -0.15699374      -0.00072528
H        1.36632617      -1.82386062       0.57325589
H        2.30521460      -0.73519628      -0.59435242
H        0.18442669      -0.92567749      -1.28063571
H        0.78537750       0.12345856       1.82103782
H        1.02387319       1.84354082      -0.30056069
H       -2.56824348      -0.57134119      -0.71982810
H       -2.21981670       0.70083546       0.56271074
H       -1.70275631      -0.99525624       0.68120477
14
Frame=15 idx=001432 GeodesicLength=1.8600507370535295 rxn_smarts="[C:1]([C@@:2]([O:3][H:11])([C:4](=[O:5])[C:6]([H:12])([H:13])[H:14])[H:10])([H:7])([H:8])[H:9]>>[C:1](=[C:2]([O:3][H:11])[H:10])([H:7])[H:8].[C:4](=[O:5])([C:6]([H:12])([H:13])[H:14])[H:9]"
C        1.45696940      -0.89052847       0.04618640
C        0.96634781       0.25044024       0.75291002
O        1.43115969       1.51413843       0.52101531
C       -0.67611914       0.29038158      -0.77966652
O       -0.52928084       1.37850862      -1.29017625
C       -1.87764203      -0.14923562      -0.00640722
H        1.39588426      -1.82800703       0.59192916
H        2.33227584      -0.74169920      -0.57572308
H        0.19577518      -0.92508602      -1.30156231
H        0.81864511       0.11764981       1.82712662
H        1.02851526       1.83634616      -0.30225830
H       -2.58847055      -0.57717290      -0.71779056
H       -2.23811206       0.70914158       0.55722492
H       -1.71594791      -0.98487719       0.67719180
14
Frame=16 idx=001432 GeodesicLength=1.9841670334205412 rxn_smarts="[C:1]([C@@:2]([O:3][H:11])([C:4](=[O:5])[C:6]([H:12])([H:13])[H:14])[H:10])([H:7])([H:8])[H:9]>>[C:1](=[C:2]([O:3][H:11])[H:10])([H:7])[H:8].[C:4](=[O:5])([C:6]([H:12])([H:13])[H:14])[H:9]"
C        1.47644166      -0.90138063       0.05281766
C        0.97448856       0.23939059       0.75402639
O        1.43069145       1.50684330       0.51893757
C       -0.70950523       0.30236542      -0.79913467
O       -0.55839997       1.39772672      -1.28411435
C       -1.89840669      -0.14124446      -0.01225155
H        1.42646245      -1.83224513       0.61135598
H        2.36015634      -0.74844448      -0.55615265
H        0.20780399      -0.92361440      -1.32289698
H        0.85268661       0.11205639       1.83283953
H        1.03294278       1.82821697      -0.30451682
H       -2.60933019      -0.58269639      -0.71558602
H       -2.25696027       0.71740058       0.55203417
H       -1.72907149      -0.97437448       0.67264172
