12
Frame=0 idx=007977 GeodesicLength=0.0 rxn_smarts="[N:1]([c:2]1[n:3][c:4]([H:10])[c:5]([H:11])[c:6]([H:12])[n:7]1)([H:8])[H:9]>>[N:1]([C:2]1=[N:3][C:4]([H:10])=[C+:5][C:6]([H:11])([H:12])[N-:7]1)([H:8])[H:9]"
N        2.17974090      -0.19437277       0.01524326
C        0.82540308      -0.06054253      -0.03419722
N        0.16101162      -1.26828978       0.22497426
C       -1.12918675      -1.26201254       0.15321151
C       -1.92886301      -0.05844642       0.21890620
C       -1.12581519       1.12011010      -0.08008925
N        0.27420010       1.05342764      -0.35187367
H        2.72293492       0.56423250      -0.35560788
H        2.54955736      -1.12426113      -0.06025465
H       -1.62171909      -2.23255250       0.13484905
H       -1.25959914       1.65205724       0.88840962
H       -1.64766480       1.81065014      -0.75357119
12
Frame=1 idx=007977 GeodesicLength=0.08303505190138262 rxn_smarts="[N:1]([c:2]1[n:3][c:4]([H:10])[c:5]([H:11])[c:6]([H:12])[n:7]1)([H:8])[H:9]>>[N:1]([C:2]1=[N:3][C:4]([H:10])=[C+:5][C:6]([H:11])([H:12])[N-:7]1)([H:8])[H:9]"
N        2.18342756      -0.19800308       0.01098130
C        0.82937389      -0.06217739      -0.03614917
N        0.16252582      -1.26963468       0.20611387
C       -1.12938077      -1.25529269       0.15428341
C       -1.92032507      -0.04889876       0.21895472
C       -1.11865008       1.12305650      -0.09255304
N        0.28246191       1.06059013      -0.33598863
H        2.72803253       0.56350899      -0.35159498
H        2.55290318      -1.12743750      -0.07092881
H       -1.62759727      -2.22308092       0.16260029
H       -1.30488751       1.62433537       0.90241607
H       -1.63788418       1.81303401      -0.76813503
12
Frame=2 idx=007977 GeodesicLength=0.1660522677256921 rxn_smarts="[N:1]([c:2]1[n:3][c:4]([H:10])[c:5]([H:11])[c:6]([H:12])[n:7]1)([H:8])[H:9]>>[N:1]([C:2]1=[N:3][C:4]([H:10])=[C+:5][C:6]([H:11])([H:12])[N-:7]1)([H:8])[H:9]"
N        2.18702780      -0.20171705       0.00620090
C        0.83324962      -0.06363808      -0.03695603
N        0.16383842      -1.27054393       0.18836433
C       -1.12941549      -1.24868854       0.15540042
C       -1.91236383      -0.03987374       0.21581397
C       -1.11128170       1.12635994      -0.10309759
N        0.29044922       1.06754228      -0.31872771
H        2.73276475       0.56240910      -0.34893411
H        2.55586006      -1.13075250      -0.08224708
H       -1.63226034      -2.21347188       0.19110926
H       -1.35118946       1.59652395       0.91481679
H       -1.62667904       1.81585044      -0.78174316
12
Frame=3 idx=007977 GeodesicLength=0.24908463619776328 rxn_smarts="[N:1]([c:2]1[n:3][c:4]([H:10])[c:5]([H:11])[c:6]([H:12])[n:7]1)([H:8])[H:9]>>[N:1]([C:2]1=[N:3][C:4]([H:10])=[C+:5][C:6]([H:11])([H:12])[N-:7]1)([H:8])[H:9]"
N        2.19054656      -0.20547558       0.00098525
C        0.83704116      -0.06503578      -0.03682130
N        0.16499765      -1.27113092       0.17159488
C       -1.12930843      -1.24219809       0.15671166
C       -1.90489850      -0.03130135       0.21016170
C       -1.10371830       1.12999622      -0.11187430
N        0.29814395       1.07415966      -0.30040634
H        2.73713746       0.56102306      -0.34749074
H        2.55852799      -1.13414944      -0.09400369
H       -1.63585759      -2.20363763       0.21999081
H       -1.39835941       1.56867975       0.92554621
H       -1.61425253       1.81907010      -0.79439413
12
Frame=4 idx=007977 GeodesicLength=0.3320625224129786 rxn_smarts="[N:1]([c:2]1[n:3][c:4]([H:10])[c:5]([H:11])[c:6]([H:12])[n:7]1)([H:8])[H:9]>>[N:1]([C:2]1=[N:3][C:4]([H:10])=[C+:5][C:6]([H:11])([H:12])[N-:7]1)([H:8])[H:9]"
N        2.19401128      -0.20931709      -0.00477153
C        0.84078405      -0.06633005      -0.03515334
N        0.16607755      -1.27137179       0.15661821
C       -1.12900551      -1.23571083       0.15940194
C       -1.89777936      -0.02310104       0.20298952
C       -1.09592322       1.13384841      -0.11902833
N        0.30558542       1.08033743      -0.28102173
H        2.74111301       0.55946481      -0.34719455
H        2.56082137      -1.13763802      -0.10694574
H       -1.63859009      -2.19359672       0.24741324
H       -1.44648603       1.54124936       0.93420167
H       -1.60060847       1.82216554      -0.80650936
12
Frame=5 idx=007977 GeodesicLength=0.41506045500372213 rxn_smarts="[N:1]([c:2]1[n:3][c:4]([H:10])[c:5]([H:11])[c:6]([H:12])[n:7]1)([H:8])[H:9]>>[N:1]([C:2]1=[N:3][C:4]([H:10])=[C+:5][C:6]([H:11])([H:12])[N-:7]1)([H:8])[H:9]"
N        2.19737224      -0.21316511      -0.01083403
C        0.84445746      -0.06771650      -0.03295977
N        0.16700845      -1.27143839       0.14218430
C       -1.12861442      -1.22932553       0.16205524
C       -1.89097082      -0.01527683       0.19397263
C       -1.08791366       1.13797270      -0.12469197
N        0.31277875       1.08605901      -0.26103420
H        2.74479461       0.55787691      -0.34744167
H        2.56291764      -1.14109078      -0.12038674
H       -1.64059283      -2.18323073       0.27560897
H       -1.49531748       1.51360731       0.94109305
H       -1.58591994       1.82572793      -0.81756581
12
Frame=6 idx=007977 GeodesicLength=0.4980115741200241 rxn_smarts="[N:1]([c:2]1[n:3][c:4]([H:10])[c:5]([H:11])[c:6]([H:12])[n:7]1)([H:8])[H:9]>>[N:1]([C:2]1=[N:3][C:4]([H:10])=[C+:5][C:6]([H:11])([H:12])[N-:7]1)([H:8])[H:9]"
N        2.20064916      -0.21699568      -0.01727787
C        0.84808495      -0.06917827      -0.02999985
N        0.16788341      -1.27128776       0.12932441
C       -1.12806466      -1.22286722       0.16620653
C       -1.88428076      -0.00769546       0.18443418
C       -1.07969264       1.14223454      -0.12895045
N        0.31971213       1.09119515      -0.24078305
H        2.74815317       0.55630165      -0.34835437
H        2.56478176      -1.14447260      -0.13457428
H       -1.64215600      -2.17270042       0.30197205
H       -1.54465468       1.48637941       0.94592549
H       -1.57041585       1.82908665      -0.82792278
12
Frame=7 idx=007977 GeodesicLength=0.5809584613804799 rxn_smarts="[N:1]([c:2]1[n:3][c:4]([H:10])[c:5]([H:11])[c:6]([H:12])[n:7]1)([H:8])[H:9]>>[N:1]([C:2]1=[N:3][C:4]([H:10])=[C+:5][C:6]([H:11])([H:12])[N-:7]1)([H:8])[H:9]"
N        2.20384437      -0.22087676      -0.02411975
C        0.85170228      -0.07074357      -0.02627447
N        0.16868562      -1.27098182       0.11768907
C       -1.12738654      -1.21641626       0.17073863
C       -1.87769028      -0.00040548       0.17375784
C       -1.07124937       1.14668286      -0.13190265
N        0.32648119       1.09586113      -0.21992780
H        2.75124082       0.55481766      -0.34952490
H        2.56638165      -1.14780399      -0.14996544
H       -1.64324541      -2.16187241       0.32830740
H       -1.59484820       1.45909054       0.94866796
H       -1.55391613       1.83264809      -0.83744589
12
Frame=8 idx=007977 GeodesicLength=0.6638906769585927 rxn_smarts="[N:1]([c:2]1[n:3][c:4]([H:10])[c:5]([H:11])[c:6]([H:12])[n:7]1)([H:8])[H:9]>>[N:1]([C:2]1=[N:3][C:4]([H:10])=[C+:5][C:6]([H:11])([H:12])[N-:7]1)([H:8])[H:9]"
N        2.20697545      -0.22479901      -0.03144627
C        0.85534669      -0.07241092      -0.02165875
N        0.16948381      -1.27048348       0.10801501
C       -1.12659224      -1.20995374       0.17578461
C       -1.87110450       0.00662426       0.16226200
C       -1.06257142       1.15127268      -0.13360929
N        0.33312600       1.10004742      -0.19847848
H        2.75407263       0.55346669      -0.35097339
H        2.56766896      -1.15104626      -0.16688151
H       -1.64404315      -2.15080103       0.35404131
H       -1.64593677       1.43178898       0.94914142
H       -1.53642546       1.83629439      -0.84619667
12
Frame=9 idx=007977 GeodesicLength=0.7468154884521181 rxn_smarts="[N:1]([c:2]1[n:3][c:4]([H:10])[c:5]([H:11])[c:6]([H:12])[n:7]1)([H:8])[H:9]>>[N:1]([C:2]1=[N:3][C:4]([H:10])=[C+:5][C:6]([H:11])([H:12])[N-:7]1)([H:8])[H:9]"
N        2.21001618      -0.22868910      -0.03918010
C        0.85900718      -0.07424115      -0.01666022
N        0.17030602      -1.26981294       0.10042083
C       -1.12572531      -1.20348131       0.18104951
C       -1.86442016       0.01344913       0.15028839
C       -1.05368311       1.15597561      -0.13410462
N        0.33963372       1.10369190      -0.17691701
H        2.75668181       0.55223642      -0.35269183
H        2.56870197      -1.15411540      -0.18479924
H       -1.64469742      -2.13944972       0.37909852
H       -1.69762144       1.40435607       0.94741925
H       -1.51819943       1.84008049      -0.85392347
12
Frame=10 idx=007977 GeodesicLength=0.8297095317277164 rxn_smarts="[N:1]([c:2]1[n:3][c:4]([H:10])[c:5]([H:11])[c:6]([H:12])[n:7]1)([H:8])[H:9]>>[N:1]([C:2]1=[N:3][C:4]([H:10])=[C+:5][C:6]([H:11])([H:12])[N-:7]1)([H:8])[H:9]"
N        2.21297997      -0.23234895      -0.04723404
C        0.86268464      -0.07618312      -0.01175275
N        0.17125028      -1.26900048       0.09533200
C       -1.12475848      -1.19694315       0.18681449
C       -1.85750443       0.02015639       0.13872511
C       -1.04464304       1.16079732      -0.13333555
N        0.34596958       1.10684102      -0.15592771
H        2.75899733       0.55089706      -0.35585426
H        2.56966785      -1.15701536      -0.20200350
H       -1.64549324      -2.12809608       0.40183766
H       -1.74944646       1.37698841       0.94379135
H       -1.49970398       1.84390695      -0.86039281
12
Frame=11 idx=007977 GeodesicLength=0.9125738445785269 rxn_smarts="[N:1]([c:2]1[n:3][c:4]([H:10])[c:5]([H:11])[c:6]([H:12])[n:7]1)([H:8])[H:9]>>[N:1]([C:2]1=[N:3][C:4]([H:10])=[C+:5][C:6]([H:11])([H:12])[N-:7]1)([H:8])[H:9]"
N        2.21583812      -0.23568705      -0.05529051
C        0.86629403      -0.07828479      -0.00797787
N        0.17228445      -1.26809291       0.09187543
C       -1.12371594      -1.19032869       0.19279093
C       -1.85029797       0.02686993       0.12811142
C       -1.03556751       1.16576901      -0.13135725
N        0.35206883       1.10946022      -0.13662533
H        2.76108110       0.54932706      -0.36055371
H        2.57083002      -1.15979208      -0.21685662
H       -1.64646712      -2.11678806       0.42227117
H       -1.80073738       1.34958251       0.93877999
H       -1.48161062       1.84796484      -0.86516765
12
Frame=12 idx=007977 GeodesicLength=0.9954281049488826 rxn_smarts="[N:1]([c:2]1[n:3][c:4]([H:10])[c:5]([H:11])[c:6]([H:12])[n:7]1)([H:8])[H:9]>>[N:1]([C:2]1=[N:3][C:4]([H:10])=[C+:5][C:6]([H:11])([H:12])[N-:7]1)([H:8])[H:9]"
N        2.21864695      -0.23881957      -0.06352591
C        0.86993141      -0.08045334      -0.00454664
N        0.17343126      -1.26710580       0.09003554
C       -1.12261388      -1.18366977       0.19879777
C       -1.84284820       0.03353819       0.11787868
C       -1.02639530       1.17089480      -0.12820564
N        0.35811246       1.11171629      -0.11810103
H        2.76293724       0.54760157      -0.36665626
H        2.57204958      -1.16251684      -0.23051079
H       -1.64757918      -2.10544008       0.44132819
H       -1.85218967       1.32190747       0.93196601
H       -1.46348267       1.85234707      -0.86845992
12
Frame=13 idx=007977 GeodesicLength=1.0782380553511066 rxn_smarts="[N:1]([c:2]1[n:3][c:4]([H:10])[c:5]([H:11])[c:6]([H:12])[n:7]1)([H:8])[H:9]>>[N:1]([C:2]1=[N:3][C:4]([H:10])=[C+:5][C:6]([H:11])([H:12])[N-:7]1)([H:8])[H:9]"
N        2.22138741      -0.24174536      -0.07156056
C        0.87348640      -0.08271138      -0.00261346
N        0.17461860      -1.26607198       0.08910359
C       -1.12143016      -1.17684974       0.20539977
C       -1.83510086       0.04032772       0.10924975
C       -1.01726535       1.17615515      -0.12408305
N        0.36402153       1.11356996      -0.10204220
H        2.76481042       0.54572174      -0.37332033
H        2.57353319      -1.16523736      -0.24201237
H       -1.64896008      -2.09430261       0.45808635
H       -1.90282970       1.29432778       0.92398451
H       -1.44627141       1.85681609      -0.87019200
12
Frame=14 idx=007977 GeodesicLength=1.1610246400148543 rxn_smarts="[N:1]([c:2]1[n:3][c:4]([H:10])[c:5]([H:11])[c:6]([H:12])[n:7]1)([H:8])[H:9]>>[N:1]([C:2]1=[N:3][C:4]([H:10])=[C+:5][C:6]([H:11])([H:12])[N-:7]1)([H:8])[H:9]"
N        2.22410231      -0.24456176      -0.07957772
C        0.87702789      -0.08501094      -0.00156541
N        0.17587716      -1.26498397       0.08907526
C       -1.12015298      -1.16989238       0.21242292
C       -1.82710199       0.04720590       0.10164796
C       -1.00812233       1.18157463      -0.11898626
N        0.36992632       1.11516424      -0.08753424
H        2.76667703       0.54368191      -0.38063115
H        2.57517753      -1.16801584      -0.25217131
H       -1.65050204      -2.08327697       0.47337468
H       -1.95333742       1.26657593       0.91443520
H       -1.42957149       1.86153925      -0.87048993
12
Frame=15 idx=007977 GeodesicLength=1.2438139687367922 rxn_smarts="[N:1]([c:2]1[n:3][c:4]([H:10])[c:5]([H:11])[c:6]([H:12])[n:7]1)([H:8])[H:9]>>[N:1]([C:2]1=[N:3][C:4]([H:10])=[C+:5][C:6]([H:11])([H:12])[N-:7]1)([H:8])[H:9]"
N        2.22682732      -0.24728422      -0.08796359
C        0.88067993      -0.08726228      -0.00024297
N        0.17732890      -1.26376863       0.09074298
C       -1.11876435      -1.16281653       0.21972899
C       -1.81882962       0.05410646       0.09434565
C       -0.99883222       1.18715248      -0.11276528
N        0.37597103       1.11663131      -0.07310240
H        2.76829507       0.54143656      -0.38955513
H        2.57681089      -1.17086677      -0.26180116
H       -1.65222620      -2.07227841       0.48751831
H       -2.00460787       1.23829619       0.90250933
H       -1.41265287       1.86665385      -0.86941473
12
Frame=16 idx=007977 GeodesicLength=1.3265853686103994 rxn_smarts="[N:1]([c:2]1[n:3][c:4]([H:10])[c:5]([H:11])[c:6]([H:12])[n:7]1)([H:8])[H:9]>>[N:1]([C:2]1=[N:3][C:4]([H:10])=[C+:5][C:6]([H:11])([H:12])[N-:7]1)([H:8])[H:9]"
N        2.22953707      -0.24998131      -0.09624239
C        0.88428763      -0.08954766      -0.00019002
N        0.17881118      -1.26248523       0.09288245
C       -1.11726484      -1.15551748       0.22773052
C       -1.81030305       0.06119664       0.08850316
C       -0.98954701       1.19288594      -0.10567977
N        0.38206843       1.11791123      -0.06060831
H        2.77007418       0.53902323      -0.39854590
H        2.57863737      -1.17382754      -0.27016919
H       -1.65411131      -2.06143945       0.50026206
H       -2.05563757       1.20978897       0.88895526
H       -1.39655207       1.87199266      -0.86689789
