15
Frame=0 idx=011879 GeodesicLength=0.0 rxn_smarts="[C:1]([C:2]([n:3]1[c:4]([H:13])[c:5]([H:14])[n:6][c:7]1[H:15])([H:11])[H:12])([H:8])([H:9])[H:10]>>[C:1]([N+:3]1([C-:2]([H:11])[H:12])[C:4]([H:13])=[C:5]([H:14])[N:6]=[C:7]1[H:15])([H:8])([H:9])[H:10]"
C       -1.37147647       0.31452795       0.75331691
C       -1.12269359      -0.51103108      -1.22180979
N        0.03078657      -0.11151877      -0.34725853
C        1.03202297      -0.89811992       0.23654001
C        2.03399840      -0.05756871       0.56992126
N        1.76480749       1.23214442       0.12629854
C        0.60084842       1.16137096      -0.42405895
H       -1.92788297       1.16879324       0.39907836
H       -1.98974662      -0.55608428       0.91387783
H       -0.71685783       0.53052438       1.60185285
H       -0.80517289      -0.48661193      -2.26464586
H       -1.41587592      -1.51554407      -0.92907904
H        0.88404597      -1.95481260       0.38213895
H        2.94858657      -0.28295774       1.09622448
H        0.05460994       1.96688815      -0.89239706
15
Frame=1 idx=011879 GeodesicLength=0.06772279649157611 rxn_smarts="[C:1]([C:2]([n:3]1[c:4]([H:13])[c:5]([H:14])[n:6][c:7]1[H:15])([H:11])[H:12])([H:8])([H:9])[H:10]>>[C:1]([N+:3]1([C-:2]([H:11])[H:12])[C:4]([H:13])=[C:5]([H:14])[N:6]=[C:7]1[H:15])([H:8])([H:9])[H:10]"
C       -1.38543945       0.30668755       0.74615050
C       -1.11970955      -0.51109710      -1.20783498
N        0.03351679      -0.10855939      -0.33707202
C        1.03002688      -0.89832718       0.24995329
C        2.04366964      -0.06410749       0.56280754
N        1.78440663       1.22245256       0.10464314
C        0.61358008       1.15808538      -0.43193183
H       -1.96331318       1.14701622       0.39114355
H       -1.98106376      -0.57617388       0.92744276
H       -0.74676842       0.55414949       1.59825916
H       -0.83202193      -0.41891656      -2.25514523
H       -1.37721560      -1.53568882      -0.95437633
H        0.86546012      -1.94741973       0.42902528
H        2.96409051      -0.29442057       1.07664028
H        0.07078123       1.96631951      -0.89970510
15
Frame=2 idx=011879 GeodesicLength=0.13531150845908846 rxn_smarts="[C:1]([C:2]([n:3]1[c:4]([H:13])[c:5]([H:14])[n:6][c:7]1[H:15])([H:11])[H:12])([H:8])([H:9])[H:10]>>[C:1]([N+:3]1([C-:2]([H:11])[H:12])[C:4]([H:13])=[C:5]([H:14])[N:6]=[C:7]1[H:15])([H:8])([H:9])[H:10]"
C       -1.39962822       0.29876355       0.73891313
C       -1.11606314      -0.51129803      -1.19408869
N        0.03622768      -0.10515923      -0.32639713
C        1.02788960      -0.89818112       0.26397336
C        2.05358737      -0.07114229       0.55526761
N        1.80435903       1.21197777       0.08240744
C        0.62664876       1.15465907      -0.43987533
H       -1.99974241       1.12370780       0.38288172
H       -1.97188462      -0.59557015       0.94106296
H       -0.77790017       0.57823562       1.59366629
H       -0.86078444      -0.35277074      -2.24151509
H       -1.33693142      -1.55343464      -0.98146609
H        0.84774313      -1.93883573       0.47465012
H        2.97909498      -0.30670101       1.05742374
H        0.08738387       1.96574912      -0.90690402
15
Frame=3 idx=011879 GeodesicLength=0.20280585048992394 rxn_smarts="[C:1]([C:2]([n:3]1[c:4]([H:13])[c:5]([H:14])[n:6][c:7]1[H:15])([H:11])[H:12])([H:8])([H:9])[H:10]>>[C:1]([N+:3]1([C-:2]([H:11])[H:12])[C:4]([H:13])=[C:5]([H:14])[N:6]=[C:7]1[H:15])([H:8])([H:9])[H:10]"
C       -1.41424931       0.29082503       0.73155271
C       -1.11166594      -0.51157702      -1.18055169
N        0.03886438      -0.10121480      -0.31501966
C        1.02549300      -0.89753668       0.27896893
C        2.06359907      -0.07860317       0.54767564
N        1.82455274       1.20076480       0.05989294
C        0.64001857       1.15114991      -0.44770689
H       -2.03734025       1.09876211       0.37411091
H       -1.96240044      -0.61417974       0.95469999
H       -0.81063605       0.60289042       1.58802487
H       -0.89088360      -0.28854224      -2.22376531
H       -1.29488106      -1.56857891      -1.01028999
H        0.83076183      -1.92915272       0.51919846
H        2.99431781      -0.32021839       1.03713852
H        0.10444926       1.96521139      -0.91392942
15
Frame=4 idx=011879 GeodesicLength=0.27018801313658897 rxn_smarts="[C:1]([C:2]([n:3]1[c:4]([H:13])[c:5]([H:14])[n:6][c:7]1[H:15])([H:11])[H:12])([H:8])([H:9])[H:10]>>[C:1]([N+:3]1([C-:2]([H:11])[H:12])[C:4]([H:13])=[C:5]([H:14])[N:6]=[C:7]1[H:15])([H:8])([H:9])[H:10]"
C       -1.42921187       0.28289985       0.72416705
C       -1.10663469      -0.51182474      -1.16715838
N        0.04139169      -0.09665922      -0.30295051
C        1.02286150      -0.89634621       0.29479080
C        2.07374019      -0.08655824       0.53976332
N        1.84499866       1.18874212       0.03687043
C        0.65368258       1.14755068      -0.45555485
H       -2.07598590       1.07209794       0.36501126
H       -1.95253989      -0.63190126       0.96852599
H       -0.84485028       0.62807738       1.58129723
H       -0.92217707      -0.22653961      -2.20198740
H       -1.25109473      -1.58084244      -1.04072209
H        0.81461871      -1.91861826       0.56220949
H        3.00924221      -0.33478332       1.01661643
H        0.12195888       1.96470533      -0.92087877
15
Frame=5 idx=011879 GeodesicLength=0.3374624005502499 rxn_smarts="[C:1]([C:2]([n:3]1[c:4]([H:13])[c:5]([H:14])[n:6][c:7]1[H:15])([H:11])[H:12])([H:8])([H:9])[H:10]>>[C:1]([N+:3]1([C-:2]([H:11])[H:12])[C:4]([H:13])=[C:5]([H:14])[N:6]=[C:7]1[H:15])([H:8])([H:9])[H:10]"
C       -1.44447525       0.27500672       0.71684071
C       -1.10105648      -0.51192169      -1.15385469
N        0.04377044      -0.09141338      -0.29016773
C        1.02000058      -0.89455399       0.31134672
C        2.08399673      -0.09506507       0.53136717
N        1.86567029       1.17584935       0.01320191
C        0.66761917       1.14386506      -0.46349285
H       -2.11561192       1.04359642       0.35573599
H       -1.94225193      -0.64865560       0.98269416
H       -0.88050432       0.65377393       1.57345209
H       -0.95435156      -0.16707863      -2.17633895
H       -1.20563526      -1.58990285      -1.07265268
H        0.79932029      -1.90744454       0.60343520
H        3.02361095      -0.35028422       0.99626999
H        0.13989828       1.96422849      -0.92783705
15
Frame=6 idx=011879 GeodesicLength=0.4046368990378569 rxn_smarts="[C:1]([C:2]([n:3]1[c:4]([H:13])[c:5]([H:14])[n:6][c:7]1[H:15])([H:11])[H:12])([H:8])([H:9])[H:10]>>[C:1]([N+:3]1([C-:2]([H:11])[H:12])[C:4]([H:13])=[C:5]([H:14])[N:6]=[C:7]1[H:15])([H:8])([H:9])[H:10]"
C       -1.46010256       0.26718605       0.70961805
C       -1.09495348      -0.51177744      -1.14057080
N        0.04594760      -0.08537513      -0.27655291
C        1.01686502      -0.89205000       0.32874495
C        2.09426199      -0.10410607       0.52258562
N        1.88646442       1.16208506      -0.01102924
C        0.68177898       1.14012019      -0.47147592
H       -2.15620785       1.01313633       0.34631682
H       -1.93160175      -0.66433224       0.99729966
H       -0.91774548       0.67999514       1.56445792
H       -0.98685340      -0.11051437      -2.14704586
H       -1.15852211      -1.59544721      -1.10588360
H        0.78485206      -1.89582476       0.64273537
H        3.03755515      -0.36686059       0.97567761
H        0.15826140       1.96376503      -0.93487767
15
Frame=7 idx=011879 GeodesicLength=0.4717267799197636 rxn_smarts="[C:1]([C:2]([n:3]1[c:4]([H:13])[c:5]([H:14])[n:6][c:7]1[H:15])([H:11])[H:12])([H:8])([H:9])[H:10]>>[C:1]([N+:3]1([C-:2]([H:11])[H:12])[C:4]([H:13])=[C:5]([H:14])[N:6]=[C:7]1[H:15])([H:8])([H:9])[H:10]"
C       -1.47614053       0.25945507       0.70254466
C       -1.08833978      -0.51130314      -1.12723105
N        0.04787883      -0.07843357      -0.26199782
C        1.01342346      -0.88872042       0.34706553
C        2.10442919      -0.11365874       0.51350968
N        1.90726656       1.14746123      -0.03572176
C        0.69610566       1.13635380      -0.47944454
H       -2.19774351       0.98055180       0.33679837
H       -1.92062259      -0.67883863       1.01245150
H       -0.95671670       0.70673834       1.55427083
H       -1.01908129      -0.05715491      -2.11443744
H       -1.10980659      -1.59715101      -1.14016797
H        0.77115680      -1.88390502       0.68007527
H        3.05115595      -0.38468974       0.95436582
H        0.17703453       1.96329492      -0.94208107
15
Frame=8 idx=011879 GeodesicLength=0.5387389670038134 rxn_smarts="[C:1]([C:2]([n:3]1[c:4]([H:13])[c:5]([H:14])[n:6][c:7]1[H:15])([H:11])[H:12])([H:8])([H:9])[H:10]>>[C:1]([N+:3]1([C-:2]([H:11])[H:12])[C:4]([H:13])=[C:5]([H:14])[N:6]=[C:7]1[H:15])([H:8])([H:9])[H:10]"
C       -1.49251891       0.25179455       0.69572536
C       -1.08131672      -0.51039618      -1.11376237
N        0.04953804      -0.07050347      -0.24651155
C        1.00971028      -0.88452722       0.36615015
C        2.11446431      -0.12378612       0.50395603
N        1.92801648       1.13192524      -0.06099703
C        0.71055657       1.13257216      -0.48746275
H       -2.24005674       0.94567887       0.32738415
H       -1.90924255      -0.69210005       1.02832954
H       -0.99735512       0.73390275       1.54287131
H       -1.05063005      -0.00717253      -2.07893224
H       -1.05969615      -1.59467877      -1.17523832
H        0.75822410      -1.87186598       0.71525653
H        3.06411574      -0.40362345       0.93283644
H        0.19619071       1.96278019      -0.94960525
15
Frame=9 idx=011879 GeodesicLength=0.6056866346714339 rxn_smarts="[C:1]([C:2]([n:3]1[c:4]([H:13])[c:5]([H:14])[n:6][c:7]1[H:15])([H:11])[H:12])([H:8])([H:9])[H:10]>>[C:1]([N+:3]1([C-:2]([H:11])[H:12])[C:4]([H:13])=[C:5]([H:14])[N:6]=[C:7]1[H:15])([H:8])([H:9])[H:10]"
C       -1.50920409       0.24417540       0.68923102
C       -1.07392930      -0.50897739      -1.10010047
N        0.05091444      -0.06149543      -0.23007812
C        1.00575283      -0.87942488       0.38591458
C        2.12429162      -0.13452194       0.49388981
N        1.94861867       1.11545795      -0.08684365
C        0.72508323       1.12879829      -0.49552357
H       -2.28300515       0.90831688       0.31821438
H       -1.89741034      -0.70404668       1.04507887
H       -1.03969663       0.76140271       1.53022187
H       -1.08101328       0.03932544      -2.04101903
H       -1.00842623      -1.58773141      -1.21077401
H        0.74599597      -1.85981890       0.74824937
H        3.07631643      -0.42364010       0.91112694
H        0.21571183       1.96218005      -0.95758797
15
Frame=10 idx=011879 GeodesicLength=0.6725832520993386 rxn_smarts="[C:1]([C:2]([n:3]1[c:4]([H:13])[c:5]([H:14])[n:6][c:7]1[H:15])([H:11])[H:12])([H:8])([H:9])[H:10]>>[C:1]([N+:3]1([C-:2]([H:11])[H:12])[C:4]([H:13])=[C:5]([H:14])[N:6]=[C:7]1[H:15])([H:8])([H:9])[H:10]"
C       -1.52614288       0.23654834       0.68310372
C       -1.06620127      -0.50700138      -1.08618832
N        0.05201059      -0.05132400      -0.21270333
C        1.00158034      -0.87337142       0.40626158
C        2.13382608      -0.14589339       0.48326474
N        1.96896414       1.09806035      -0.11320655
C        0.73963780       1.12505996      -0.50359447
H       -2.32637151       0.86824991       0.30938286
H       -1.88507564      -0.71460651       1.06281052
H       -1.08377344       0.78910547       1.51626118
H       -1.10984327       0.08236766      -2.00118444
H       -0.95625056      -1.57609488      -1.24639198
H        0.73438057      -1.84779808       0.77908662
H        3.08767530      -0.44474713       0.88925910
H        0.23558375       1.96144512      -0.96616123
15
Frame=11 idx=011879 GeodesicLength=0.7394438687968348 rxn_smarts="[C:1]([C:2]([n:3]1[c:4]([H:13])[c:5]([H:14])[n:6][c:7]1[H:15])([H:11])[H:12])([H:8])([H:9])[H:10]>>[C:1]([N+:3]1([C-:2]([H:11])[H:12])[C:4]([H:13])=[C:5]([H:14])[N:6]=[C:7]1[H:15])([H:8])([H:9])[H:10]"
C       -1.54326952       0.22883961       0.67736314
C       -1.05813054      -0.50443186      -1.07199646
N        0.05285544      -0.03991524      -0.19442295
C        0.99724676      -0.86634826       0.42706741
C        2.14297632      -0.15790651       0.47211007
N        1.98894851       1.07975438      -0.13998637
C        0.75418327       1.12139341      -0.51162998
H       -2.36988509       0.82526678       0.30097089
H       -1.87219931      -0.72371904       1.08159153
H       -1.12962399       0.81682595       1.50091628
H       -1.13681390       0.12207619      -1.95992292
H       -0.90348183      -1.55962416      -1.28168634
H        0.72326487      -1.83576189       0.80792168
H        3.09813097      -0.46697677       0.86715691
H        0.25579804       1.96052742      -0.97545290
15
Frame=12 idx=011879 GeodesicLength=0.8062858128708255 rxn_smarts="[C:1]([C:2]([n:3]1[c:4]([H:13])[c:5]([H:14])[n:6][c:7]1[H:15])([H:11])[H:12])([H:8])([H:9])[H:10]>>[C:1]([N+:3]1([C-:2]([H:11])[H:12])[C:4]([H:13])=[C:5]([H:14])[N:6]=[C:7]1[H:15])([H:8])([H:9])[H:10]"
C       -1.56044746       0.22095381       0.67203534
C       -1.04974202      -0.50122367      -1.05753277
N        0.05349972      -0.02722878      -0.17535709
C        0.99283317      -0.85841170       0.44806602
C        2.15167475      -0.17062044       0.46033792
N        2.00849912       1.06052242      -0.16718663
C        0.76869983       1.11781941      -0.51963333
H       -2.41317565       0.77917760       0.29311587
H       -1.85868004      -0.73133932       1.10148158
H       -1.17718258       0.84431390       1.48411989
H       -1.16180540       0.15871415      -1.91767706
H       -0.85055416      -1.53825459      -1.31628065
H        0.71252797      -1.82365057       0.83487741
H        3.10750086      -0.49014922       0.84523335
H        0.27635189       1.95937699      -0.98559985
15
Frame=13 idx=011879 GeodesicLength=0.8731074519388653 rxn_smarts="[C:1]([C:2]([n:3]1[c:4]([H:13])[c:5]([H:14])[n:6][c:7]1[H:15])([H:11])[H:12])([H:8])([H:9])[H:10]>>[C:1]([N+:3]1([C-:2]([H:11])[H:12])[C:4]([H:13])=[C:5]([H:14])[N:6]=[C:7]1[H:15])([H:8])([H:9])[H:10]"
C       -1.57749226       0.21278742       0.66714361
C       -1.04107168      -0.49731359      -1.04284988
N        0.05401743      -0.01326153      -0.15568738
C        0.98843742      -0.84969463       0.46889143
C        2.15984087      -0.18408520       0.44790259
N        2.02755198       1.04033893      -0.19482967
C        0.78318417       1.11434923      -0.52763775
H       -2.45579391       0.72984524       0.28599810
H       -1.84438689      -0.73743595       1.12250185
H       -1.22632362       0.87127510       1.46581964
H       -1.18479024       0.19262248      -1.87485311
H       -0.79805424      -1.51203131      -1.34982448
H        0.70204493      -1.81140288       0.86006524
H        3.11558185      -0.51394012       0.82409719
H        0.29725419       1.95794682      -0.99673739
15
Frame=14 idx=011879 GeodesicLength=0.9399344381954228 rxn_smarts="[C:1]([C:2]([n:3]1[c:4]([H:13])[c:5]([H:14])[n:6][c:7]1[H:15])([H:11])[H:12])([H:8])([H:9])[H:10]>>[C:1]([N+:3]1([C-:2]([H:11])[H:12])[C:4]([H:13])=[C:5]([H:14])[N:6]=[C:7]1[H:15])([H:8])([H:9])[H:10]"
C       -1.59428480       0.20425181       0.66264054
C       -1.03209016      -0.49267133      -1.02800466
N        0.05447935       0.00200061      -0.13553722
C        0.98411505      -0.84026153       0.48934688
C        2.16737735      -0.19825363       0.43493628
N        2.04600475       1.01929313      -0.22269268
C        0.79762454       1.11102951      -0.53556131
H       -2.49728778       0.67716937       0.27961589
H       -1.82930306      -0.74193937       1.14459328
H       -1.27704105       0.89741384       1.44591440
H       -1.20575977       0.22415107      -1.83175765
H       -0.74642753      -1.48115156      -1.38194473
H        0.69167067      -1.79885656       0.88377684
H        3.12241564      -0.53836037       0.80361460
H        0.31850679       1.95618503      -1.00894045
15
Frame=15 idx=011879 GeodesicLength=1.0067862202126605 rxn_smarts="[C:1]([C:2]([n:3]1[c:4]([H:13])[c:5]([H:14])[n:6][c:7]1[H:15])([H:11])[H:12])([H:8])([H:9])[H:10]>>[C:1]([N+:3]1([C-:2]([H:11])[H:12])[C:4]([H:13])=[C:5]([H:14])[N:6]=[C:7]1[H:15])([H:8])([H:9])[H:10]"
C       -1.61068143       0.19526626       0.65847890
C       -1.02278218      -0.48724834      -1.01307389
N        0.05496416       0.01853995      -0.11505754
C        0.97991814      -0.83021506       0.50920296
C        2.17418692      -0.21302805       0.42164015
N        2.06377583       0.99748030      -0.25058418
C        0.81201648       1.10790732      -0.54333300
H       -2.53715767       0.62113231       0.27399014
H       -1.81341706      -0.74478178       1.16766227
H       -1.32928693       0.92240778       1.42431389
H       -1.22475997       0.25366207      -1.78864405
H       -0.69617600      -1.44591983      -1.41231817
H        0.68128122      -1.78587207       0.90626457
H        3.12801039      -0.56337134       0.78372090
H        0.34010809       1.95404046      -1.02226295
15
Frame=16 idx=011879 GeodesicLength=1.0736823167428051 rxn_smarts="[C:1]([C:2]([n:3]1[c:4]([H:13])[c:5]([H:14])[n:6][c:7]1[H:15])([H:11])[H:12])([H:8])([H:9])[H:10]>>[C:1]([N+:3]1([C-:2]([H:11])[H:12])[C:4]([H:13])=[C:5]([H:14])[N:6]=[C:7]1[H:15])([H:8])([H:9])[H:10]"
C       -1.62652295       0.18577618       0.65462960
C       -1.01316659      -0.48098545      -0.99815137
N        0.05554759       0.03630319      -0.09442306
C        0.97588422      -0.81970154       0.52821422
C        2.18020401      -0.22833101       0.40815718
N        2.08080393       0.97498516      -0.27836864
C        0.82635957       1.10502399      -0.55090775
H       -2.57488628       0.56180914       0.26916791
H       -1.79671895      -0.74588527       1.19162360
H       -1.38296118       0.94593646       1.40095783
H       -1.24191707       0.28154136      -1.74569925
H       -0.64780130      -1.40673836      -1.44072824
H        0.67078755      -1.77239025       0.92769048
H        3.13234146      -0.58881261       0.76458523
H        0.36204601       1.95146902      -1.03674774
