12
Frame=0 idx=003898 GeodesicLength=0.0 rxn_smarts="[C:1]([C:2]([N:3]([C:4](=[O:5])[H:12])[H:11])([H:9])[H:10])([H:6])([H:7])[H:8]>>[C:1]1([H:6])([H:7])[C:2]([H:9])([H:10])[N:3]([H:11])[C@@:4]1([O:5][H:8])[H:12]"
C       -1.08199688       0.64136349       0.16596103
C       -0.67817781      -0.82473182      -0.00077624
N        0.65129808      -0.68842865      -0.58610935
C        1.28537129       0.40592469      -0.16874152
O        1.52758017       0.76664319       1.08278396
H       -1.86667176       0.80969986       0.91204434
H       -1.42438317       1.05151516      -0.78849867
H        0.64359173       0.80203431       1.48912354
H       -1.27470160      -1.46924101      -0.66456219
H       -0.61688020      -1.34426949       0.96009675
H        0.78831776      -0.93604164      -1.55217907
H        2.04665238       0.78553193      -0.84914262
12
Frame=1 idx=003898 GeodesicLength=0.10186648466563646 rxn_smarts="[C:1]([C:2]([N:3]([C:4](=[O:5])[H:12])[H:11])([H:9])[H:10])([H:6])([H:7])[H:8]>>[C:1]1([H:6])([H:7])[C:2]([H:9])([H:10])[N:3]([H:11])[C@@:4]1([O:5][H:8])[H:12]"
C       -1.06465288       0.64054383       0.17292273
C       -0.67729189      -0.82876906      -0.00479789
N        0.65710658      -0.70168368      -0.58037748
C        1.28302435       0.40402954      -0.16931819
O        1.52343036       0.76987048       1.07985624
H       -1.84485013       0.80526852       0.92409241
H       -1.41621077       1.06114595      -0.77354042
H        0.61348286       0.82415431       1.48057410
H       -1.28093142      -1.45462293      -0.67885171
H       -0.62438734      -1.35731438       0.95143955
H        0.80090860      -0.95840921      -1.54314174
H        2.03037170       0.79578664      -0.85885760
12
Frame=2 idx=003898 GeodesicLength=0.20344240834128968 rxn_smarts="[C:1]([C:2]([N:3]([C:4](=[O:5])[H:12])[H:11])([H:9])[H:10])([H:6])([H:7])[H:8]>>[C:1]1([H:6])([H:7])[C:2]([H:9])([H:10])[N:3]([H:11])[C@@:4]1([O:5][H:8])[H:12]"
C       -1.04775120       0.63970405       0.17957416
C       -0.67642762      -0.83249513      -0.00877316
N        0.66289453      -0.71461485      -0.57424563
C        1.28049197       0.40257432      -0.16999587
O        1.52016029       0.77313300       1.07673682
H       -1.82364183       0.80068537       0.93560908
H       -1.40820534       1.07066901      -0.75877102
H        0.58412965       0.84475373       1.47249906
H       -1.28645616      -1.43973769      -0.69298580
H       -0.63224992      -1.36980709       0.94279866
H        0.81362872      -0.98070817      -1.53346518
H        2.01342690       0.80584346      -0.86898111
12
Frame=3 idx=003898 GeodesicLength=0.30488155443430864 rxn_smarts="[C:1]([C:2]([N:3]([C:4](=[O:5])[H:12])[H:11])([H:9])[H:10])([H:6])([H:7])[H:8]>>[C:1]1([H:6])([H:7])[C:2]([H:9])([H:10])[N:3]([H:11])[C@@:4]1([O:5][H:8])[H:12]"
C       -1.03127875       0.63884810       0.18594345
C       -0.67557580      -0.83592497      -0.01271232
N        0.66865885      -0.72721867      -0.56773737
C        1.27776529       0.40155423      -0.17080510
O        1.51781953       0.77639463       1.07337601
H       -1.80304135       0.79593787       0.94662286
H       -1.40037713       1.08009488      -0.74415275
H        0.55539256       0.86399350       1.46495258
H       -1.29128345      -1.42460538      -0.70698641
H       -0.64043280      -1.38177858       0.93415154
H        0.82646016      -1.00290976      -1.52317049
H        1.99589289       0.81561417      -0.87948201
12
Frame=4 idx=003898 GeodesicLength=0.40622885447865575 rxn_smarts="[C:1]([C:2]([N:3]([C:4](=[O:5])[H:12])[H:11])([H:9])[H:10])([H:6])([H:7])[H:8]>>[C:1]1([H:6])([H:7])[C:2]([H:9])([H:10])[N:3]([H:11])[C@@:4]1([O:5][H:8])[H:12]"
C       -1.01522389       0.63797936       0.19205821
C       -0.67472866      -0.83907013      -0.01662629
N        0.67439482      -0.73949325      -0.56086909
C        1.27483722       0.40095948      -0.17176785
O        1.51644579       0.77962785       1.06973295
H       -1.78305280       0.79101034       0.95715400
H       -1.39273392       1.08943405      -0.72965233
H        0.52716097       0.88201045       1.45797852
H       -1.29541210      -1.40924031      -0.72086948
H       -0.64890620      -1.39325485       0.92547277
H        0.83937848      -1.02498754      -1.51226990
H        1.97784029       0.82502455      -0.89034151
12
Frame=5 idx=003898 GeodesicLength=0.5077207916182515 rxn_smarts="[C:1]([C:2]([N:3]([C:4](=[O:5])[H:12])[H:11])([H:9])[H:10])([H:6])([H:7])[H:8]>>[C:1]1([H:6])([H:7])[C:2]([H:9])([H:10])[N:3]([H:11])[C@@:4]1([O:5][H:8])[H:12]"
C       -0.99956818       0.63710296       0.19794401
C       -0.67387678      -0.84194581      -0.02051839
N        0.68010096      -0.75143837      -0.55366363
C        1.27170422       0.40077374      -0.17290403
O        1.51610369       0.78280767       1.06575327
H       -1.76368157       0.78589823       0.96721376
H       -1.38526825       1.09870183      -0.71523952
H        0.49929588       0.89892522       1.45162486
H       -1.29885735      -1.39366793      -0.73464649
H       -0.65763684      -1.40426224       0.91675130
H        0.85236437      -1.04691409      -1.50078716
H        1.95931985       0.83401878      -0.90152797
12
Frame=6 idx=003898 GeodesicLength=0.6093438306044447 rxn_smarts="[C:1]([C:2]([N:3]([C:4](=[O:5])[H:12])[H:11])([H:9])[H:10])([H:6])([H:7])[H:8]>>[C:1]1([H:6])([H:7])[C:2]([H:9])([H:10])[N:3]([H:11])[C@@:4]1([O:5][H:8])[H:12]"
C       -0.98429624       0.63622081       0.20362561
C       -0.67301290      -0.84456046      -0.02439541
N        0.68577234      -0.76305581      -0.54612939
C        1.26836469       0.40097924      -0.17422309
O        1.51682788       0.78589622       1.06141527
H       -1.74493882       0.78058752       0.97680493
H       -1.37797394       1.10790237      -0.70088678
H        0.47170308       0.91485121       1.44592395
H       -1.30161783      -1.37789498      -0.74832137
H       -0.66660107      -1.41482043       0.90796469
H        0.86539275      -1.06866417      -1.48872950
H        1.94038006       0.84255846      -0.91304890
12
Frame=7 idx=003898 GeodesicLength=0.7111578594987631 rxn_smarts="[C:1]([C:2]([N:3]([C:4](=[O:5])[H:12])[H:11])([H:9])[H:10])([H:6])([H:7])[H:8]>>[C:1]1([H:6])([H:7])[C:2]([H:9])([H:10])[N:3]([H:11])[C@@:4]1([O:5][H:8])[H:12]"
C       -0.96938638       0.63533785       0.20912756
C       -0.67212933      -0.84692663      -0.02825720
N        0.69140722      -0.77434878      -0.53828273
C        1.26482229       0.40155230      -0.17573059
O        1.51866220       0.78887462       1.05667666
H       -1.72683828       0.77507427       0.98592616
H       -1.37083302       1.11704502      -0.68657071
H        0.44427697       0.92988139       1.44090862
H       -1.30370768      -1.36194081      -0.76189707
H       -0.67577171      -1.42495076       0.89910584
H        0.87844045      -1.09021048      -1.47612197
H        1.92105728       0.85061203      -0.92488458
12
Frame=8 idx=003898 GeodesicLength=0.8131216977647788 rxn_smarts="[C:1]([C:2]([N:3]([C:4](=[O:5])[H:12])[H:11])([H:9])[H:10])([H:6])([H:7])[H:8]>>[C:1]1([H:6])([H:7])[C:2]([H:9])([H:10])[N:3]([H:11])[C@@:4]1([O:5][H:8])[H:12]"
C       -0.95481810       0.63445887       0.21447527
C       -0.67121819      -0.84905395      -0.03210612
N        0.69699985      -0.78532043      -0.53013600
C        1.26108019       0.40246960      -0.17743828
O        1.52163071       0.79171328       1.05151496
H       -1.70939576       0.76934679       0.99457199
H       -1.36382615       1.12613112      -0.67226485
H        0.41692541       0.94411278       1.43660715
H       -1.30513321      -1.34581231      -0.77536993
H       -0.68511952      -1.43467106       0.89015928
H        0.89148063      -1.11152497      -1.46297763
H        1.90139413       0.85815027      -0.93703584
12
Frame=9 idx=003898 GeodesicLength=0.9153257343347644 rxn_smarts="[C:1]([C:2]([N:3]([C:4](=[O:5])[H:12])[H:11])([H:9])[H:10])([H:6])([H:7])[H:8]>>[C:1]1([H:6])([H:7])[C:2]([H:9])([H:10])[N:3]([H:11])[C@@:4]1([O:5][H:8])[H:12]"
C       -0.94056644       0.63358840       0.21969602
C       -0.67026715      -0.85094719      -0.03594457
N        0.70254412      -0.79597089      -0.52169250
C        1.25714784       0.40369624      -0.17935127
O        1.52578885       0.79440903       1.04585789
H       -1.69263553       0.76338659       1.00272882
H       -1.35692627       1.13517954      -0.65794535
H        0.38953845       0.95760631       1.43305412
H       -1.30586620      -1.32952106      -0.78873409
H       -0.69462595      -1.44399233       0.88110264
H        0.90446136      -1.13256771      -1.44929065
H        1.88140694       0.86513307      -0.94948104
12
Frame=10 idx=003898 GeodesicLength=1.0177278823778193 rxn_smarts="[C:1]([C:2]([N:3]([C:4](=[O:5])[H:12])[H:11])([H:9])[H:10])([H:6])([H:7])[H:8]>>[C:1]1([H:6])([H:7])[C:2]([H:9])([H:10])[N:3]([H:11])[C@@:4]1([O:5][H:8])[H:12]"
C       -0.92660721       0.63273250       0.22480727
C       -0.66927095      -0.85262579      -0.03975390
N        0.70804125      -0.80630325      -0.51299325
C        1.25303443       0.40521347      -0.18145277
O        1.53117598       0.79690807       1.03971295
H       -1.67659013       0.75721856       1.01036547
H       -1.35009086       1.14417967      -0.64361408
H        0.36201808       0.97044523       1.43027302
H       -1.30598077      -1.31310281      -0.80195467
H       -0.70423754      -1.45293288       0.87196801
H        0.91737958      -1.15330706      -1.43515430
H        1.86112813       0.87157430      -0.96220374
12
Frame=11 idx=003898 GeodesicLength=1.1202593917552404 rxn_smarts="[C:1]([C:2]([N:3]([C:4](=[O:5])[H:12])[H:11])([H:9])[H:10])([H:6])([H:7])[H:8]>>[C:1]1([H:6])([H:7])[C:2]([H:9])([H:10])[N:3]([H:11])[C@@:4]1([O:5][H:8])[H:12]"
C       -0.91291585       0.63189491       0.22983169
C       -0.66821967      -0.85409691      -0.04352506
N        0.71348668      -0.81631791      -0.50405317
C        1.24875108       0.40699370      -0.18374173
O        1.53783234       0.79918863       1.03305211
H       -1.66129141       0.75083937       1.01745296
H       -1.34328267       1.15313426      -0.62926033
H        0.33427549       0.98268174       1.42828782
H       -1.30548832      -1.29657436      -0.81501594
H       -0.71392224      -1.46150101       0.86275984
H        0.93019954      -1.17370452      -1.42059483
H        1.84057503       0.87746211      -0.97519335
12
Frame=12 idx=003898 GeodesicLength=1.2228948923440521 rxn_smarts="[C:1]([C:2]([N:3]([C:4](=[O:5])[H:12])[H:11])([H:9])[H:10])([H:6])([H:7])[H:8]>>[C:1]1([H:6])([H:7])[C:2]([H:9])([H:10])[N:3]([H:11])[C@@:4]1([O:5][H:8])[H:12]"
C       -0.89946409       0.63108161       0.23479417
C       -0.66710456      -0.85537122      -0.04724509
N        0.71887769      -0.82601641      -0.49489795
C        1.24431356       0.40900777      -0.18620501
O        1.54580434       0.80122760       1.02583000
H       -1.64678253       0.74425860       1.02395493
H       -1.33645249       1.16204717      -0.61488358
H        0.30620787       0.99435771       1.42712864
H       -1.30441066      -1.27995524      -0.82788739
H       -0.72363659      -1.46970729       0.85349377
H        0.94288884      -1.19372399      -1.40566045
H        1.81975861       0.88279369      -0.98842204
12
Frame=13 idx=003898 GeodesicLength=1.3255240062480111 rxn_smarts="[C:1]([C:2]([N:3]([C:4](=[O:5])[H:12])[H:11])([H:9])[H:10])([H:6])([H:7])[H:8]>>[C:1]1([H:6])([H:7])[C:2]([H:9])([H:10])[N:3]([H:11])[C@@:4]1([O:5][H:8])[H:12]"
C       -0.88622544       0.63029589       0.23971868
C       -0.66591454      -0.85645564      -0.05090212
N        0.72420991      -0.83539793      -0.48555115
C        1.23973913       0.41122888      -0.18882868
O        1.55512410       0.80299077       1.01801748
H       -1.63310336       0.73748000       1.02983275
H       -1.32955005       1.17091722      -0.60048345
H        0.27772485       1.00551839       1.42681902
H       -1.30276352      -1.26326161      -0.84053416
H       -0.73333977      -1.47755667       0.84417917
H        0.95541223      -1.21332551      -1.39039028
H        1.79868646       0.88756621      -1.00187726
12
Frame=14 idx=003898 GeodesicLength=1.4280770668894163 rxn_smarts="[C:1]([C:2]([N:3]([C:4](=[O:5])[H:12])[H:11])([H:9])[H:10])([H:6])([H:7])[H:8]>>[C:1]1([H:6])([H:7])[C:2]([H:9])([H:10])[N:3]([H:11])[C@@:4]1([O:5][H:8])[H:12]"
C       -0.87316806       0.62954409       0.24463214
C       -0.66464014      -0.85736056      -0.05447721
N        0.72948330      -0.84446479      -0.47603981
C        1.23504505       0.41363423      -0.19160516
O        1.56583709       0.80444521       1.00958425
H       -1.62030631       0.73051847       1.03503671
H       -1.32251237       1.17974419      -0.58606309
H        0.24872057       1.01619867       1.42738468
H       -1.30057588      -1.24651262      -0.85291639
H       -0.74298520      -1.48506143       0.83484203
H        0.96773634      -1.23247548      -1.37484374
H        1.77736562       0.89179002      -1.01553442
12
Frame=15 idx=003898 GeodesicLength=1.5304728721377159 rxn_smarts="[C:1]([C:2]([N:3]([C:4](=[O:5])[H:12])[H:11])([H:9])[H:10])([H:6])([H:7])[H:8]>>[C:1]1([H:6])([H:7])[C:2]([H:9])([H:10])[N:3]([H:11])[C@@:4]1([O:5][H:8])[H:12]"
C       -0.86025865       0.62883112       0.24956683
C       -0.66326803      -0.85809230      -0.05794984
N        0.73469644      -0.85321731      -0.46639055
C        1.23025229       0.41620060      -0.19452118
O        1.57798686       0.80555458       1.00049299
H       -1.60844479       0.72338544       1.03951737
H       -1.31527469       1.18852660      -0.57163185
H        0.21908505       1.02643016       1.42884932
H       -1.29787454      -1.22972296      -0.86499080
H       -0.75252542      -1.49223094       0.82550235
H        0.97982633      -1.25113848      -1.35907320
H        1.75579915       0.89547350      -1.02937145
12
Frame=16 idx=003898 GeodesicLength=1.632606237476043 rxn_smarts="[C:1]([C:2]([N:3]([C:4](=[O:5])[H:12])[H:11])([H:9])[H:10])([H:6])([H:7])[H:8]>>[C:1]1([H:6])([H:7])[C:2]([H:9])([H:10])[N:3]([H:11])[C@@:4]1([O:5][H:8])[H:12]"
C       -0.84746310       0.62816166       0.25455706
C       -0.66178662      -0.85865784      -0.06129850
N        0.73985062      -0.86165685      -0.45663204
C        1.22538278       0.41890758      -0.19756314
O        1.59161706       0.80628306       0.99070541
H       -1.59757774       0.71609734       1.04321774
H       -1.30776405       1.19726355      -0.55719967
H        0.18870901       1.03623706       1.43123586
H       -1.29468844      -1.21290718      -0.87670836
H       -0.76191423      -1.49907531       0.81618608
H        0.99165175      -1.26928464      -1.34313885
H        1.73398297       0.89863158      -1.04336158
