13
Frame=0 idx=005900 GeodesicLength=0.0 rxn_smarts="[C:1]([C:2]([C@@:3]1([H:11])[C:4]([H:12])([H:13])[O:5]1)([H:9])[H:10])([H:6])([H:7])[H:8]>>[C:1]([C:2]([C@@:3]([C:4][H:12])([O:5][H:13])[H:11])([H:9])[H:10])([H:6])([H:7])[H:8]"
C       -1.59796733       0.62163433       0.12068530
C       -0.63403307      -0.55838069       0.15695704
C        0.69032642      -0.18765014      -0.45053910
C        1.72376749       0.50517695       0.34388717
O        1.76085952      -1.13366189      -0.25353316
H       -2.55594543       0.35814813       0.56969090
H       -1.19028643       1.47124243       0.67218144
H       -1.79105280       0.94679613      -0.90452876
H       -1.05261648      -1.41380928      -0.38141727
H       -0.45936657      -0.87205706       1.18925241
H        0.64515103       0.04455353      -1.51432303
H        2.43340762       1.02533650      -0.30739368
H        2.02775602      -0.80732893       0.75908079
13
Frame=1 idx=005900 GeodesicLength=0.04527876564440285 rxn_smarts="[C:1]([C:2]([C@@:3]1([H:11])[C:4]([H:12])([H:13])[O:5]1)([H:9])[H:10])([H:6])([H:7])[H:8]>>[C:1]([C:2]([C@@:3]([C:4][H:12])([O:5][H:13])[H:11])([H:9])[H:10])([H:6])([H:7])[H:8]"
C       -1.59845599       0.62111296       0.12137575
C       -0.63298294      -0.55772479       0.15558695
C        0.68946137      -0.18561352      -0.45508238
C        1.72701217       0.50022181       0.33871839
O        1.76290877      -1.12763871      -0.25506204
H       -2.55537836       0.35619603       0.57181387
H       -1.19091991       1.47094327       0.67264805
H       -1.79358201       0.94653794      -0.90334943
H       -1.05184885      -1.41362719      -0.38185627
H       -0.45647811      -0.87139033       1.18763689
H        0.64203299       0.04689562      -1.51872756
H        2.43767511       1.02324489      -0.30877249
H        2.02055576      -0.80915799       0.77507029
13
Frame=2 idx=005900 GeodesicLength=0.0905566319464263 rxn_smarts="[C:1]([C:2]([C@@:3]1([H:11])[C:4]([H:12])([H:13])[O:5]1)([H:9])[H:10])([H:6])([H:7])[H:8]>>[C:1]([C:2]([C@@:3]([C:4][H:12])([O:5][H:13])[H:11])([H:9])[H:10])([H:6])([H:7])[H:8]"
C       -1.59892139       0.62059635       0.12206198
C       -0.63193715      -0.55708171       0.15421683
C        0.68860918      -0.18362203      -0.45959302
C        1.73021544       0.49520967       0.33360745
O        1.76486278      -1.12177656      -0.25657395
H       -2.55479181       0.35426808       0.57392347
H       -1.19151514       1.47063899       0.67311391
H       -1.79606608       0.94628920      -0.90217242
H       -1.05110437      -1.41343892      -0.38230904
H       -0.45362452      -0.87075133       1.18601862
H        0.63894021       0.04921417      -1.52309049
H        2.44185717       1.02115209      -0.31006383
H        2.01347570      -0.81069798       0.79086048
13
Frame=3 idx=005900 GeodesicLength=0.13583196273055545 rxn_smarts="[C:1]([C:2]([C@@:3]1([H:11])[C:4]([H:12])([H:13])[O:5]1)([H:9])[H:10])([H:6])([H:7])[H:8]>>[C:1]([C:2]([C@@:3]([C:4][H:12])([O:5][H:13])[H:11])([H:9])[H:10])([H:6])([H:7])[H:8]"
C       -1.59936379       0.62008258       0.12274442
C       -0.63089578      -0.55645191       0.15284761
C        0.68776817      -0.18167314      -0.46407339
C        1.73338052       0.49014204       0.32854845
O        1.76672232      -1.11607265      -0.25808636
H       -2.55418936       0.35236046       0.57601302
H       -1.19207441       1.47032600       0.67358522
H       -1.79850250       0.94605082      -0.90099739
H       -1.05038431      -1.41324686      -0.38277267
H       -0.45080247      -0.87013856       1.18439907
H        0.63586693       0.05151867      -1.52741303
H        2.44596515       1.01905015      -0.31127384
H        2.00650954      -0.81194760       0.80647888
13
Frame=4 idx=005900 GeodesicLength=0.18110845088214056 rxn_smarts="[C:1]([C:2]([C@@:3]1([H:11])[C:4]([H:12])([H:13])[O:5]1)([H:9])[H:10])([H:6])([H:7])[H:8]>>[C:1]([C:2]([C@@:3]([C:4][H:12])([O:5][H:13])[H:11])([H:9])[H:10])([H:6])([H:7])[H:8]"
C       -1.59978455       0.61957055       0.12342673
C       -0.62985717      -0.55583462       0.15147418
C        0.68693924      -0.17976403      -0.46852921
C        1.73650901       0.48502295       0.32352975
O        1.76849180      -1.11052284      -0.25960586
H       -2.55356997       0.35046591       0.57808791
H       -1.19259987       1.47000137       0.67406615
H       -1.80089807       0.94582580      -0.89981760
H       -1.04968563      -1.41304760      -0.38325466
H       -0.44800752      -0.86955450       1.18277104
H        0.63281076       0.05381278      -1.53169991
H        2.45001446       1.01692155      -0.31241166
H        1.99963752      -0.81289732       0.82196315
13
Frame=5 idx=005900 GeodesicLength=0.22638478455296712 rxn_smarts="[C:1]([C:2]([C@@:3]1([H:11])[C:4]([H:12])([H:13])[O:5]1)([H:9])[H:10])([H:6])([H:7])[H:8]>>[C:1]([C:2]([C@@:3]([C:4][H:12])([O:5][H:13])[H:11])([H:9])[H:10])([H:6])([H:7])[H:8]"
C       -1.60018376       0.61905939       0.12410918
C       -0.62882043      -0.55523106       0.15009615
C        0.68612170      -0.17789338      -0.47296381
C        1.73960153       0.47985297       0.31854847
O        1.77017377      -1.10512637      -0.26114822
H       -2.55293430       0.34858499       0.58014872
H       -1.19309363       1.46966464       0.67456076
H       -1.80325171       0.94561421      -0.89863414
H       -1.04900784      -1.41284448      -0.38375468
H       -0.44523771      -0.86900050       1.18113534
H        0.62976870       0.05610282      -1.53595457
H        2.45401078       1.01476203      -0.31348084
H        1.99285290      -0.81354526       0.83733765
13
Frame=6 idx=005900 GeodesicLength=0.27166217890533684 rxn_smarts="[C:1]([C:2]([C@@:3]1([H:11])[C:4]([H:12])([H:13])[O:5]1)([H:9])[H:10])([H:6])([H:7])[H:8]>>[C:1]([C:2]([C@@:3]([C:4][H:12])([O:5][H:13])[H:11])([H:9])[H:10])([H:6])([H:7])[H:8]"
C       -1.60056172       0.61854756       0.12479390
C       -0.62778459      -0.55464159       0.14870922
C        0.68531567      -0.17605900      -0.47738140
C        1.74265906       0.47463352       0.31359679
O        1.77177137      -1.09987984      -0.26272031
H       -2.55227908       0.34671492       0.58220364
H       -1.19355224       1.46931303       0.67506790
H       -1.80557061       0.94541440      -0.89744259
H       -1.04834967      -1.41263503      -0.38427934
H       -0.44249020      -0.86848139       1.17948506
H        0.62673804       0.05839526      -1.54017912
H        2.45796574       1.01255853      -0.31448661
H        1.98613823      -0.81388038       0.85263287
13
Frame=7 idx=005900 GeodesicLength=0.3169462580684714 rxn_smarts="[C:1]([C:2]([C@@:3]1([H:11])[C:4]([H:12])([H:13])[O:5]1)([H:9])[H:10])([H:6])([H:7])[H:8]>>[C:1]([C:2]([C@@:3]([C:4][H:12])([O:5][H:13])[H:11])([H:9])[H:10])([H:6])([H:7])[H:8]"
C       -1.60091613       0.61803411       0.12548500
C       -0.62674950      -0.55406825       0.14730771
C        0.68452128      -0.17425931      -0.48178683
C        1.74568317       0.46936843       0.30866753
O        1.77328654      -1.09478068      -0.26432568
H       -2.55159904       0.34485282       0.58426261
H       -1.19396894       1.46894679       0.67558889
H       -1.80786201       0.94522411      -0.89623790
H       -1.04771243      -1.41241786      -0.38484144
H       -0.43976333      -0.86800575       1.17781278
H        0.62371635       0.06069217      -1.54437861
H        2.46189104       1.01030307      -0.31543698
H        1.97947298      -0.81388966       0.86788290
13
Frame=8 idx=005900 GeodesicLength=0.3622482416591465 rxn_smarts="[C:1]([C:2]([C@@:3]1([H:11])[C:4]([H:12])([H:13])[O:5]1)([H:9])[H:10])([H:6])([H:7])[H:8]>>[C:1]([C:2]([C@@:3]([C:4][H:12])([O:5][H:13])[H:11])([H:9])[H:10])([H:6])([H:7])[H:8]"
C       -1.60124686       0.61751785       0.12618571
C       -0.62571415      -0.55351235       0.14588646
C        0.68373958      -0.17249352      -0.48618514
C        1.74867665       0.46405763       0.30375235
O        1.77472391      -1.08982678      -0.26597060
H       -2.55089226       0.34299637       0.58633249
H       -1.19434073       1.46856147       0.67612839
H       -1.81012912       0.94504707      -0.89501452
H       -1.04709596      -1.41219115      -0.38544883
H       -0.43705460      -0.86758056       1.17611132
H        0.62070291       0.06299347      -1.54855790
H        2.46579439       1.00798426      -0.31633832
H        1.97283624      -0.81355376       0.88311859
13
Frame=9 idx=005900 GeodesicLength=0.4075620068701396 rxn_smarts="[C:1]([C:2]([C@@:3]1([H:11])[C:4]([H:12])([H:13])[O:5]1)([H:9])[H:10])([H:6])([H:7])[H:8]>>[C:1]([C:2]([C@@:3]([C:4][H:12])([O:5][H:13])[H:11])([H:9])[H:10])([H:6])([H:7])[H:8]"
C       -1.60155222       0.61699750       0.12689970
C       -0.62467911      -0.55297648       0.14443870
C        0.68297046      -0.17076217      -0.49058164
C        1.75163830       0.45870653       0.29884259
O        1.77608392      -1.08501727      -0.26765154
H       -2.55015568       0.34114232       0.58841840
H       -1.19466536       1.46815050       0.67669875
H       -1.81237141       0.94489133      -0.89376546
H       -1.04650147      -1.41195395      -0.38611445
H       -0.43436495      -0.86721465       1.17437237
H        0.61769771       0.06529466      -1.55272341
H        2.46968748       1.00559165      -0.31720349
H        1.96621234      -0.81284998       0.89836946
13
Frame=10 idx=005900 GeodesicLength=0.4528441383545547 rxn_smarts="[C:1]([C:2]([C@@:3]1([H:11])[C:4]([H:12])([H:13])[O:5]1)([H:9])[H:10])([H:6])([H:7])[H:8]>>[C:1]([C:2]([C@@:3]([C:4][H:12])([O:5][H:13])[H:11])([H:9])[H:10])([H:6])([H:7])[H:8]"
C       -1.60183688       0.61646969       0.12762913
C       -0.62364653      -0.55246225       0.14296267
C        0.68221692      -0.16905884      -0.49498539
C        1.75458443       0.45332175       0.29393500
O        1.77736654      -1.08035517      -0.26936634
H       -2.54939595       0.33927668       0.59052773
H       -1.19494162       1.46771343       0.67730882
H       -1.81459570       0.94475900      -0.89249457
H       -1.04593816      -1.41171294      -0.38684081
H       -0.43169420      -0.86691163       1.17260267
H        0.61470135       0.06760739      -1.55689166
H        2.47360656       1.00311860      -0.31803895
H        1.95957323      -0.81176573       0.91365170
13
Frame=11 idx=005900 GeodesicLength=0.4981827525999714 rxn_smarts="[C:1]([C:2]([C@@:3]1([H:11])[C:4]([H:12])([H:13])[O:5]1)([H:9])[H:10])([H:6])([H:7])[H:8]>>[C:1]([C:2]([C@@:3]([C:4][H:12])([O:5][H:13])[H:11])([H:9])[H:10])([H:6])([H:7])[H:8]"
C       -1.60209073       0.61593921       0.12837716
C       -0.62260373      -0.55196169       0.14144899
C        0.68147482      -0.16739217      -0.49938562
C        1.75747355       0.44789512       0.28901450
O        1.77857185      -1.07582802      -0.27113548
H       -2.54859096       0.33741009       0.59264787
H       -1.19518035       1.46723723       0.67795753
H       -1.81678832       0.94465691      -0.89117407
H       -1.04537583      -1.41144242      -0.38763686
H       -0.42903254      -0.86666588       1.17076422
H        0.61170950       0.06990889      -1.56102873
H        2.47749369       1.00053115      -0.31885111
H        1.95293907      -0.81028841       0.92900159
13
Frame=12 idx=005900 GeodesicLength=0.5434770125762929 rxn_smarts="[C:1]([C:2]([C@@:3]1([H:11])[C:4]([H:12])([H:13])[O:5]1)([H:9])[H:10])([H:6])([H:7])[H:8]>>[C:1]([C:2]([C@@:3]([C:4][H:12])([O:5][H:13])[H:11])([H:9])[H:10])([H:6])([H:7])[H:8]"
C       -1.60231990       0.61539896       0.12914330
C       -0.62156156      -0.55148646       0.13990165
C        0.68074696      -0.16575446      -0.50379900
C        1.76034868       0.44242724       0.28408911
O        1.77970464      -1.07144724      -0.27295302
H       -2.54775245       0.33553153       0.59480395
H       -1.19536206       1.46673282       0.67864311
H       -1.81896823       0.94457335      -0.88982633
H       -1.04484266      -1.41116897      -0.38850175
H       -0.42638643      -0.86649369       1.16888610
H        0.60872225       0.07223751      -1.56516845
H        2.48141605       0.99784749      -0.31963579
H        1.94625470      -0.80839807       0.94441712
13
Frame=13 idx=005900 GeodesicLength=0.5887964871810102 rxn_smarts="[C:1]([C:2]([C@@:3]1([H:11])[C:4]([H:12])([H:13])[O:5]1)([H:9])[H:10])([H:6])([H:7])[H:8]>>[C:1]([C:2]([C@@:3]([C:4][H:12])([O:5][H:13])[H:11])([H:9])[H:10])([H:6])([H:7])[H:8]"
C       -1.60252195       0.61485019       0.12992893
C       -0.62051863      -0.55103622       0.13831856
C        0.68003105      -0.16415173      -0.50822278
C        1.76319959       0.43690664       0.27915415
O        1.78076689      -1.06721331      -0.27484161
H       -2.54687999       0.33364527       0.59698496
H       -1.19549007       1.46619202       0.67937235
H       -1.82112547       0.94451681      -0.88844277
H       -1.04433454      -1.41088554      -0.38943874
H       -0.42375562      -0.86639652       1.16695801
H        0.60573614       0.07458921      -1.56930124
H        2.48535324       0.99505518      -0.32039745
H        1.93953936      -0.80607201       0.95992762
13
Frame=14 idx=005900 GeodesicLength=0.6341304026490651 rxn_smarts="[C:1]([C:2]([C@@:3]1([H:11])[C:4]([H:12])([H:13])[O:5]1)([H:9])[H:10])([H:6])([H:7])[H:8]>>[C:1]([C:2]([C@@:3]([C:4][H:12])([O:5][H:13])[H:11])([H:9])[H:10])([H:6])([H:7])[H:8]"
C       -1.60269459       0.61429218       0.13073494
C       -0.61947422      -0.55061280       0.13670004
C        0.67932634      -0.16258530      -0.51265780
C        1.76602707       0.43132748       0.27420804
O        1.78175993      -1.06312793      -0.27681260
H       -2.54597293       0.33175093       0.59918723
H       -1.19556262       1.46561249       0.68014856
H       -1.82325471       0.94448988      -0.88702148
H       -1.04385148      -1.41059345      -0.39044736
H       -0.42113852      -0.86637716       1.16497924
H        0.60274887       0.07696773      -1.57342579
H        2.48930235       0.99215219      -0.32113662
H        1.93278450      -0.80329625       0.97554362
13
Frame=15 idx=005900 GeodesicLength=0.6794713268160785 rxn_smarts="[C:1]([C:2]([C@@:3]1([H:11])[C:4]([H:12])([H:13])[O:5]1)([H:9])[H:10])([H:6])([H:7])[H:8]>>[C:1]([C:2]([C@@:3]([C:4][H:12])([O:5][H:13])[H:11])([H:9])[H:10])([H:6])([H:7])[H:8]"
C       -1.60283595       0.61372420       0.13156248
C       -0.61842833      -0.55021838       0.13504596
C        0.67863222      -0.16105704      -0.51710503
C        1.76883247       0.42568361       0.26924925
O        1.78268567      -1.05919307      -0.27887639
H       -2.54503162       0.32984836       0.60140753
H       -1.19557742       1.46499108       0.68097614
H       -1.82535104       0.94449606      -0.88556047
H       -1.04339493      -1.41029354      -0.39152867
H       -0.41853442      -0.86643971       1.16294879
H        0.59975863       0.07937599      -1.57754163
H        2.49326142       0.98913636      -0.32185472
H        1.92598330      -0.80005392       0.99127676
13
Frame=16 idx=005900 GeodesicLength=0.7248153721108234 rxn_smarts="[C:1]([C:2]([C@@:3]1([H:11])[C:4]([H:12])([H:13])[O:5]1)([H:9])[H:10])([H:6])([H:7])[H:8]>>[C:1]([C:2]([C@@:3]([C:4][H:12])([O:5][H:13])[H:11])([H:9])[H:10])([H:6])([H:7])[H:8]"
C       -1.60294413       0.61314547       0.13241281
C       -0.61738103      -0.54985532       0.13335610
C        0.67794801      -0.15956889      -0.52156553
C        1.77161736       0.41996808       0.26427629
O        1.78354583      -1.05541113      -0.28104411
H       -2.54405647       0.32793732       0.60364267
H       -1.19553203       1.46432451       0.68185980
H       -1.82740942       0.94453904      -0.88405765
H       -1.04296653      -1.40998671      -0.39268393
H       -0.41594266      -0.86658861       1.16086558
H        0.59676365       0.08181707      -1.58164835
H        2.49722862       0.98600511      -0.32255274
H        1.91912880      -0.79632595       1.00713907
