16
Frame=0 idx=009267 GeodesicLength=0.0 rxn_smarts="[C:1]([C@@:2]12[C@@:3]3([H:11])[C:4]([H:12])([H:13])[N:5]1[C:6]([H:14])([H:15])[C@@:7]23[H:16])([H:8])([H:9])[H:10]>>[C:1]([C@@:2]12[C@@:3]3([H:11])[N+:5]1([C-:4]([H:12])[H:13])[C:6]([H:14])([H:15])[C@@:7]23[H:16])([H:8])([H:9])[H:10]"
C        2.12410770       0.05229559      -0.03110138
C        0.68186977      -0.13720965       0.23359595
C       -0.34708984       0.38133635       1.01335155
C       -1.10269045       1.59694909      -0.47330929
N       -0.46335282       0.23205178      -0.66654065
C       -1.12226706      -1.10398008      -0.52117952
C       -0.31886675      -1.15380136       0.75014625
H        2.30331035       1.09284245      -0.30419645
H        2.46315043      -0.59482781      -0.84069590
H        2.70291868      -0.17588867       0.86463504
H       -0.55168547       0.99206071       1.87541632
H       -2.14945644       1.44251375      -0.20841759
H       -1.03839030       2.14850033      -1.41376325
H       -0.83214132      -1.79353711      -1.31704844
H       -2.20651457      -1.03657921      -0.43355016
H       -0.14290192      -1.94272622       1.47265757
16
Frame=1 idx=009267 GeodesicLength=0.036793646088062626 rxn_smarts="[C:1]([C@@:2]12[C@@:3]3([H:11])[C:4]([H:12])([H:13])[N:5]1[C:6]([H:14])([H:15])[C@@:7]23[H:16])([H:8])([H:9])[H:10]>>[C:1]([C@@:2]12[C@@:3]3([H:11])[N+:5]1([C-:4]([H:12])[H:13])[C:6]([H:14])([H:15])[C@@:7]23[H:16])([H:8])([H:9])[H:10]"
C        2.11961397       0.05679502      -0.03506111
C        0.67805814      -0.13728712       0.22937332
C       -0.35264530       0.38091888       1.01296901
C       -1.09924547       1.58884670      -0.46721788
N       -0.46811651       0.22786520      -0.67192887
C       -1.12557743      -1.10791030      -0.51955850
C       -0.32017693      -1.15232142       0.75121636
H        2.29423345       1.09667880      -0.31404018
H        2.46227017      -0.59345173      -0.84067035
H        2.69861429      -0.16417132       0.86238377
H       -0.54604113       0.98401617       1.88313625
H       -2.15279312       1.44439765      -0.22447348
H       -1.00308538       2.15614351      -1.39525142
H       -0.83280365      -1.79875284      -1.31318862
H       -2.21023897      -1.04319541      -0.43337838
H       -0.14206614      -1.93857178       1.47569007
16
Frame=2 idx=009267 GeodesicLength=0.07363944685234503 rxn_smarts="[C:1]([C@@:2]12[C@@:3]3([H:11])[C:4]([H:12])([H:13])[N:5]1[C:6]([H:14])([H:15])[C@@:7]23[H:16])([H:8])([H:9])[H:10]>>[C:1]([C@@:2]12[C@@:3]3([H:11])[N+:5]1([C-:4]([H:12])[H:13])[C:6]([H:14])([H:15])[C@@:7]23[H:16])([H:8])([H:9])[H:10]"
C        2.11511244       0.06128094      -0.03899526
C        0.67424976      -0.13734733       0.22516960
C       -0.35819597       0.38055699       1.01260891
C       -1.09593897       1.58068482      -0.46140133
N       -0.47284365       0.22373364      -0.67732200
C       -1.12885376      -1.11176150      -0.51797121
C       -0.32151307      -1.15077525       0.75226344
H        2.28520546       1.10045310      -0.32379507
H        2.46138547      -0.59201904      -0.84062362
H        2.69425093      -0.15251480       0.86011888
H       -0.54023647       0.97604437       1.89062634
H       -2.15572324       1.44659489      -0.24080087
H       -0.96827056       2.16306771      -1.37594649
H       -0.83341947      -1.80388550      -1.30934255
H       -2.21392277      -1.04974903      -0.43326026
H       -0.14128613      -1.93436400       1.47867147
16
Frame=3 idx=009267 GeodesicLength=0.1105148108563632 rxn_smarts="[C:1]([C@@:2]12[C@@:3]3([H:11])[C:4]([H:12])([H:13])[N:5]1[C:6]([H:14])([H:15])[C@@:7]23[H:16])([H:8])([H:9])[H:10]>>[C:1]([C@@:2]12[C@@:3]3([H:11])[N+:5]1([C-:4]([H:12])[H:13])[C:6]([H:14])([H:15])[C@@:7]23[H:16])([H:8])([H:9])[H:10]"
C        2.11062193       0.06574205      -0.04289303
C        0.67045603      -0.13738629       0.22098417
C       -0.36372982       0.38026471       1.01226999
C       -1.09276315       1.57248058      -0.45585665
N       -0.47751966       0.21966779      -0.68272219
C       -1.13209178      -1.11552319      -0.51642033
C       -0.32287534      -1.14915349       0.75328824
H        2.27626866       1.10417366      -0.33338278
H        2.46050313      -0.59050452      -0.84058472
H        2.68984394      -0.14099991       0.85783907
H       -0.53427380       0.96816459       1.89788239
H       -2.15823005       1.44910260      -0.25735091
H       -0.93408861       2.16922077      -1.35594287
H       -0.83398846      -1.80892778      -1.30551377
H       -2.21756319      -1.05622402      -0.43319858
H       -0.14056981      -1.93009756       1.48160197
16
Frame=4 idx=009267 GeodesicLength=0.14744070444836252 rxn_smarts="[C:1]([C@@:2]12[C@@:3]3([H:11])[C:4]([H:12])([H:13])[N:5]1[C:6]([H:14])([H:15])[C@@:7]23[H:16])([H:8])([H:9])[H:10]>>[C:1]([C@@:2]12[C@@:3]3([H:11])[N+:5]1([C-:4]([H:12])[H:13])[C:6]([H:14])([H:15])[C@@:7]23[H:16])([H:8])([H:9])[H:10]"
C        2.10613765       0.07018410      -0.04675962
C        0.66667565      -0.13741287       0.21682076
C       -0.36924985       0.38003008       1.01195771
C       -1.08970358       1.56424041      -0.45056399
N       -0.48214546       0.21566374      -0.68812461
C       -1.13529545      -1.11919711      -0.51490574
C       -0.32426482      -1.14746700       0.75428883
H        2.26739963       1.10783462      -0.34286903
H        2.45963099      -0.58893919      -0.84052447
H        2.68539181      -0.12955913       0.85555335
H       -0.52815773       0.96035694       1.90491699
H       -2.16030319       1.45192212      -0.27412859
H       -0.90051856       2.17462970      -1.33524492
H       -0.83451605      -1.81388108      -1.30170311
H       -2.22116363      -1.06262082      -0.43319234
H       -0.13991741      -1.92578451       1.48447879
16
Frame=5 idx=009267 GeodesicLength=0.18443794180559264 rxn_smarts="[C:1]([C@@:2]12[C@@:3]3([H:11])[C:4]([H:12])([H:13])[N:5]1[C:6]([H:14])([H:15])[C@@:7]23[H:16])([H:8])([H:9])[H:10]>>[C:1]([C@@:2]12[C@@:3]3([H:11])[N+:5]1([C-:4]([H:12])[H:13])[C:6]([H:14])([H:15])[C@@:7]23[H:16])([H:8])([H:9])[H:10]"
C        2.10165715       0.07461206      -0.05059874
C        0.66290917      -0.13743410       0.21268260
C       -0.37475457       0.37984218       1.01167846
C       -1.08674372       1.55597491      -0.44550197
N       -0.48672075       0.21172168      -0.69352408
C       -1.13846955      -1.12278229      -0.51342892
C       -0.32568232      -1.14572538       0.75526197
H        2.25857873       1.11142767      -0.35231787
H        2.45877824      -0.58735420      -0.84041080
H        2.68089244      -0.11812203       0.85327290
H       -0.52189630       0.95259696       1.91174161
H       -2.16192494       1.45506337      -0.29113092
H       -0.86755616       2.17929100      -1.31386172
H       -0.83501040      -1.81874148      -1.29791513
H       -2.22472804      -1.06893364      -0.43324404
H       -0.13932899      -1.92143669       1.48729664
16
Frame=6 idx=009267 GeodesicLength=0.2215225214045518 rxn_smarts="[C:1]([C@@:2]12[C@@:3]3([H:11])[C:4]([H:12])([H:13])[N:5]1[C:6]([H:14])([H:15])[C@@:7]23[H:16])([H:8])([H:9])[H:10]>>[C:1]([C@@:2]12[C@@:3]3([H:11])[N+:5]1([C-:4]([H:12])[H:13])[C:6]([H:14])([H:15])[C@@:7]23[H:16])([H:8])([H:9])[H:10]"
C        2.09718003       0.07902676      -0.05441319
C        0.65915776      -0.13745654       0.20857145
C       -0.38024383       0.37969253       1.01143607
C       -1.08387062       1.54769151      -0.44065245
N       -0.49124367       0.20784105      -0.69891880
C       -1.14161733      -1.12627721      -0.51199261
C       -0.32712860      -1.14393630       0.75620445
H        2.24979137       1.11493647      -0.36179961
H        2.45795900      -0.58579393      -0.84020195
H        2.67634354      -0.10661625       0.85101088
H       -0.51549517       0.94486586       1.91836772
H       -2.16307729       1.45853041      -0.30836143
H       -0.83521840       2.18322864      -1.29178844
H       -0.83547735      -1.82351029      -1.29415127
H       -2.22825977      -1.07515678      -0.43335845
H       -0.13879966      -1.91706594       1.49004762
16
Frame=7 idx=009267 GeodesicLength=0.25870290453033085 rxn_smarts="[C:1]([C@@:2]12[C@@:3]3([H:11])[C:4]([H:12])([H:13])[N:5]1[C:6]([H:14])([H:15])[C@@:7]23[H:16])([H:8])([H:9])[H:10]>>[C:1]([C@@:2]12[C@@:3]3([H:11])[N+:5]1([C-:4]([H:12])[H:13])[C:6]([H:14])([H:15])[C@@:7]23[H:16])([H:8])([H:9])[H:10]"
C        2.09271120       0.08342515      -0.05820579
C        0.65542524      -0.13748887       0.20448695
C       -0.38571541       0.37957369       1.01123213
C       -1.08106175       1.53940104      -0.43600220
N       -0.49570830       0.20402386      -0.70430937
C       -1.14474230      -1.12967893      -0.51060145
C       -0.32860469      -1.14210988       0.75711052
H        2.24102465       1.11833272      -0.37141166
H        2.45720279      -0.58432596      -0.83983592
H        2.67173841      -0.09494477       0.84879151
H       -0.50895822       0.93713388       1.92480634
H       -2.16372704       1.46232308      -0.32583083
H       -0.80356595       2.18648821      -1.26900157
H       -0.83592381      -1.82818543      -1.29041783
H       -2.23176362      -1.08128152      -0.43353642
H       -0.13833121      -1.91268625       1.49272560
16
Frame=8 idx=009267 GeodesicLength=0.2960302697825323 rxn_smarts="[C:1]([C@@:2]12[C@@:3]3([H:11])[C:4]([H:12])([H:13])[N:5]1[C:6]([H:14])([H:15])[C@@:7]23[H:16])([H:8])([H:9])[H:10]>>[C:1]([C@@:2]12[C@@:3]3([H:11])[N+:5]1([C-:4]([H:12])[H:13])[C:6]([H:14])([H:15])[C@@:7]23[H:16])([H:8])([H:9])[H:10]"
C        2.08822182       0.08784261      -0.06198509
C        0.65169540      -0.13753446       0.20043538
C       -0.39117855       0.37944686       1.01110148
C       -1.07834141       1.53110300      -0.43146775
N       -0.50015054       0.20027637      -0.70966185
C       -1.14786272      -1.13299125      -0.50924634
C       -0.33010707      -1.14027267       0.75797697
H        2.23222799       1.12164432      -0.38118358
H        2.45648202      -0.58290364      -0.83931680
H        2.66706334      -0.08303361       0.84659344
H       -0.50230367       0.92936981       1.93110879
H       -2.16395397       1.46644217      -0.34346633
H       -0.77226461       2.18902546      -1.24571412
H       -0.83637591      -1.83274750      -1.28672926
H       -2.23525248      -1.08733079      -0.43374957
H       -0.13789964      -1.90833668       1.49530462
16
Frame=9 idx=009267 GeodesicLength=0.33346291272308254 rxn_smarts="[C:1]([C@@:2]12[C@@:3]3([H:11])[C:4]([H:12])([H:13])[N:5]1[C:6]([H:14])([H:15])[C@@:7]23[H:16])([H:8])([H:9])[H:10]>>[C:1]([C@@:2]12[C@@:3]3([H:11])[N+:5]1([C-:4]([H:12])[H:13])[C:6]([H:14])([H:15])[C@@:7]23[H:16])([H:8])([H:9])[H:10]"
C        2.08375367       0.09222907      -0.06572924
C        0.64800111      -0.13759782       0.19641758
C       -0.39660076       0.37935671       1.01100179
C       -1.07564395       1.52280454      -0.42712971
N       -0.50450758       0.19659107      -0.71501193
C       -1.15095363      -1.13619444      -0.50794084
C       -0.33163439      -1.13838698       0.75880398
H        2.22347327       1.12482149      -0.39105761
H        2.45583390      -0.58157190      -0.83863246
H        2.66233827      -0.07098390       0.84444287
H       -0.49550127       0.92159756       1.93720677
H       -2.16357184       1.47090517      -0.36133885
H       -0.74192151       2.19083708      -1.22174075
H       -0.83681127      -1.83719707      -1.28307292
H       -2.23870346      -1.09325035      -0.43403494
H       -0.13755055      -1.90396022       1.49781625
16
Frame=10 idx=009267 GeodesicLength=0.37102409369688505 rxn_smarts="[C:1]([C@@:2]12[C@@:3]3([H:11])[C:4]([H:12])([H:13])[N:5]1[C:6]([H:14])([H:15])[C@@:7]23[H:16])([H:8])([H:9])[H:10]>>[C:1]([C@@:2]12[C@@:3]3([H:11])[N+:5]1([C-:4]([H:12])[H:13])[C:6]([H:14])([H:15])[C@@:7]23[H:16])([H:8])([H:9])[H:10]"
C        2.07929781       0.09660682      -0.06945460
C        0.64433411      -0.13768294       0.19243873
C       -0.40199751       0.37928332       1.01096063
C       -1.07298164       1.51452466      -0.42294000
N       -0.50879801       0.19297574      -0.72034388
C       -1.15402583      -1.13930037      -0.50668180
C       -0.33319247      -1.13648096       0.75959703
H        2.21473470       1.12788101      -0.40109308
H        2.45525916      -0.58032926      -0.83777781
H        2.65755870      -0.05871963       0.84232700
H       -0.48858377       0.91380466       1.94313641
H       -2.16264228       1.47572167      -0.37940161
H       -0.71232193       2.19192033      -1.19718209
H       -0.83723512      -1.84154148      -1.27946165
H       -2.24213001      -1.09906166      -0.43437899
H       -0.13727590      -1.89960190       1.50025572
16
Frame=11 idx=009267 GeodesicLength=0.40873028443978404 rxn_smarts="[C:1]([C@@:2]12[C@@:3]3([H:11])[C:4]([H:12])([H:13])[N:5]1[C:6]([H:14])([H:15])[C@@:7]23[H:16])([H:8])([H:9])[H:10]>>[C:1]([C@@:2]12[C@@:3]3([H:11])[N+:5]1([C-:4]([H:12])[H:13])[C:6]([H:14])([H:15])[C@@:7]23[H:16])([H:8])([H:9])[H:10]"
C        2.07481595       0.10100974      -0.07316679
C        0.64066813      -0.13778731       0.18850382
C       -0.40738753       0.37918645       1.01101147
C       -1.07039702       1.50625642      -0.41881610
N       -0.51307227       0.18944456      -0.72561675
C       -1.15709514      -1.14230838      -0.50545921
C       -0.33477709      -1.13457534       0.76034916
H        2.20594492       1.13084004      -0.41130879
H        2.45472902      -0.57913087      -0.83674199
H        2.65269975      -0.04617067       0.84022272
H       -0.48156000       0.90593375       1.94896659
H       -2.16126866       1.48081602      -0.39750626
H       -0.68304769       2.19232346      -1.17236864
H       -0.83766342      -1.84575294      -1.27590168
H       -2.24554492      -1.10479538      -0.43475974
H       -0.13704405      -1.89528954       1.50259219
16
Frame=12 idx=009267 GeodesicLength=0.446557776620398 rxn_smarts="[C:1]([C@@:2]12[C@@:3]3([H:11])[C:4]([H:12])([H:13])[N:5]1[C:6]([H:14])([H:15])[C@@:7]23[H:16])([H:8])([H:9])[H:10]>>[C:1]([C@@:2]12[C@@:3]3([H:11])[N+:5]1([C-:4]([H:12])[H:13])[C:6]([H:14])([H:15])[C@@:7]23[H:16])([H:8])([H:9])[H:10]"
C        2.07035151       0.10539883      -0.07685107
C        0.63703766      -0.13792030       0.18461116
C       -0.41273665       0.37910321       1.01112246
C       -1.06782971       1.49800694      -0.41481707
N       -0.51727170       0.18598392      -0.73086579
C       -1.16014657      -1.14521131      -0.50428087
C       -0.33638746      -1.13264917       0.76106707
H        2.19717522       1.13366800      -0.42167514
H        2.45428048      -0.57801624      -0.83552413
H        2.64778459      -0.03341238       0.83815371
H       -0.47442053       0.89802116       1.95463191
H       -2.15929273       1.48625690      -0.41576702
H       -0.65463439       2.19202163      -1.14707791
H       -0.83809031      -1.84985147      -1.27238310
H       -2.24893449      -1.11040442      -0.43519952
H       -0.13688493      -1.89099529       1.50485530
16
Frame=13 idx=009267 GeodesicLength=0.4844881078000727 rxn_smarts="[C:1]([C@@:2]12[C@@:3]3([H:11])[C:4]([H:12])([H:13])[N:5]1[C:6]([H:14])([H:15])[C@@:7]23[H:16])([H:8])([H:9])[H:10]>>[C:1]([C@@:2]12[C@@:3]3([H:11])[N+:5]1([C-:4]([H:12])[H:13])[C:6]([H:14])([H:15])[C@@:7]23[H:16])([H:8])([H:9])[H:10]"
C        2.06591030       0.10977371      -0.08049381
C        0.63344605      -0.13807898       0.18076654
C       -0.41804219       0.37902977       1.01130436
C       -1.06527256       1.48978892      -0.41092878
N       -0.52139410       0.18260393      -0.73608127
C       -1.16317673      -1.14800338      -0.50314759
C       -0.33802132      -1.13070377       0.76175176
H        2.18844014       1.13637717      -0.43211491
H        2.45390743      -0.57694126      -0.83414621
H        2.64282254      -0.02051152       0.83611299
H       -0.46716883       0.89007530       1.96014692
H       -2.15670340       1.49206847      -0.43408020
H       -0.62714748       2.19095574      -1.12150898
H       -0.83851085      -1.85382221      -1.26891514
H       -2.25229517      -1.11588348      -0.43570227
H       -0.13679386      -1.88672842       1.50703661
16
Frame=14 idx=009267 GeodesicLength=0.5225055872032596 rxn_smarts="[C:1]([C@@:2]12[C@@:3]3([H:11])[C:4]([H:12])([H:13])[N:5]1[C:6]([H:14])([H:15])[C@@:7]23[H:16])([H:8])([H:9])[H:10]>>[C:1]([C@@:2]12[C@@:3]3([H:11])[N+:5]1([C-:4]([H:12])[H:13])[C:6]([H:14])([H:15])[C@@:7]23[H:16])([H:8])([H:9])[H:10]"
C        2.06149567       0.11412885      -0.08408919
C        0.62989551      -0.13825720       0.17697206
C       -0.42329989       0.37897413       1.01155801
C       -1.06273392       1.48160303      -0.40713932
N       -0.52543925       0.17930899      -0.74125803
C       -1.16617981      -1.15068111      -0.50205483
C       -0.33967479      -1.12873149       0.76240788
H        2.17975685       1.13897848      -0.44256448
H        2.45359794      -0.57587572      -0.83264092
H        2.63781952      -0.00754106       0.83409151
H       -0.45981897       0.88210193       1.96550884
H       -2.15350947       1.49821945      -0.45238796
H       -0.60060615       2.18914343      -1.09578514
H       -0.83891656      -1.85765790      -1.26549406
H       -2.25562089      -1.12123111      -0.43626337
H       -0.13676577      -1.88248270       1.50913902
16
Frame=15 idx=009267 GeodesicLength=0.5605881909097438 rxn_smarts="[C:1]([C@@:2]12[C@@:3]3([H:11])[C:4]([H:12])([H:13])[N:5]1[C:6]([H:14])([H:15])[C@@:7]23[H:16])([H:8])([H:9])[H:10]>>[C:1]([C@@:2]12[C@@:3]3([H:11])[N+:5]1([C-:4]([H:12])[H:13])[C:6]([H:14])([H:15])[C@@:7]23[H:16])([H:8])([H:9])[H:10]"
C        2.05711248       0.11846075      -0.08762931
C        0.62638877      -0.13845130       0.17323052
C       -0.42850630       0.37893939       1.01188720
C       -1.06021386       1.47345355      -0.40343875
N       -0.52940566       0.17610281      -0.74639144
C       -1.16915173      -1.15324360      -0.50100041
C       -0.34134521      -1.12672977       0.76303933
H        2.17113998       1.14148360      -0.45296433
H        2.45334453      -0.57479116      -0.83103418
H        2.63278346       0.00543660       0.83208482
H       -0.45238209       0.87410831       1.97072101
H       -2.14971101       1.50470044      -0.47062116
H       -0.57504700       2.18659005      -1.07004375
H       -0.83930150      -1.86135345      -1.26212139
H       -2.25890761      -1.12644748      -0.43688175
H       -0.13679724      -1.87825876       1.51116359
16
Frame=16 idx=009267 GeodesicLength=0.5987136906325289 rxn_smarts="[C:1]([C@@:2]12[C@@:3]3([H:11])[C:4]([H:12])([H:13])[N:5]1[C:6]([H:14])([H:15])[C@@:7]23[H:16])([H:8])([H:9])[H:10]>>[C:1]([C@@:2]12[C@@:3]3([H:11])[N+:5]1([C-:4]([H:12])[H:13])[C:6]([H:14])([H:15])[C@@:7]23[H:16])([H:8])([H:9])[H:10]"
C        2.05276627       0.12276639      -0.09110691
C        0.62292875      -0.13865775       0.16954375
C       -0.43365707       0.37892867       1.01229410
C       -1.05771253       1.46534353      -0.39981906
N       -0.53329294       0.17298818      -0.75147889
C       -1.17209009      -1.15569094      -0.49998298
C       -0.34303010      -1.12469637       0.76364992
H        2.16260346       1.14390373      -0.46326570
H        2.45314159      -0.57366607      -0.82934666
H        2.62772345       0.01836875       0.83009240
H       -0.44486991       0.86609984       1.97578576
H       -2.14531187       1.51149671      -0.48871273
H       -0.55049788       2.18331156      -1.04440958
H       -0.83966250      -1.86490501      -1.25879904
H       -2.26215345      -1.13153402      -0.43755733
H       -0.13688519      -1.87405719       1.51311294
