16
Frame=0 idx=008933 GeodesicLength=0.0 rxn_smarts="[C:1]([C@@:2]1([H:11])[C:3]([H:12])([H:13])[N:4]([C:5]([H:14])([H:15])[H:16])[C:6]1=[O:7])([H:8])([H:9])[H:10]>>[C-:6]#[O+:7].[C:1]([C:2](/[C:3](=[N:4]/[C:5]([H:14])([H:15])[H:16])[H:13])([H:11])[H:12])([H:8])([H:9])[H:10]"
C        2.46898607      -0.43199301      -0.29377158
C        1.19148727       0.32881067      -0.30685271
C       -0.10158493      -0.27605661      -0.44694398
N       -1.12065024       0.47105966       0.00791177
C       -2.44480984      -0.09829040       0.05795838
C       -0.33165522       1.04921467       1.55901753
O       -1.03846249       1.51071595       2.34702798
H        2.30132670      -1.50260529      -0.41440890
H        2.94255017      -0.28092741       0.67945281
H        3.17249536      -0.08610457      -1.05272598
H        1.21269300       1.40389635      -0.43022447
H        0.31528348      -0.00662291      -1.54904299
H       -0.13378850      -1.37238243      -0.41392690
H       -2.95780874       0.31458488       0.93046397
H       -3.03390677       0.17014301      -0.82419673
H       -2.44215534      -1.19344256       0.15026178
16
Frame=1 idx=008933 GeodesicLength=0.059753556959556184 rxn_smarts="[C:1]([C@@:2]1([H:11])[C:3]([H:12])([H:13])[N:4]([C:5]([H:14])([H:15])[H:16])[C:6]1=[O:7])([H:8])([H:9])[H:10]>>[C-:6]#[O+:7].[C:1]([C:2](/[C:3](=[N:4]/[C:5]([H:14])([H:15])[H:16])[H:13])([H:11])[H:12])([H:8])([H:9])[H:10]"
C        2.46063040      -0.42739821      -0.27717091
C        1.18224757       0.33411590      -0.31754181
C       -0.10860271      -0.28236823      -0.46902256
N       -1.12165486       0.45982863       0.00765476
C       -2.44874976      -0.10174384       0.06262903
C       -0.30951035       1.05084453       1.54709131
O       -1.00157859       1.50038155       2.35535119
H        2.29830633      -1.50030719      -0.38492481
H        2.92413898      -0.26323692       0.69862119
H        3.17180682      -0.09252532      -1.03393855
H        1.20989205       1.40803805      -0.45099853
H        0.32799287       0.00568093      -1.57157802
H       -0.13818448      -1.37873005      -0.44106885
H       -2.95264701       0.30681410       0.94229166
H       -3.04218919       0.17807125      -0.81293944
H       -2.45189808      -1.19746519       0.14554434
16
Frame=2 idx=008933 GeodesicLength=0.11972865231722647 rxn_smarts="[C:1]([C@@:2]1([H:11])[C:3]([H:12])([H:13])[N:4]([C:5]([H:14])([H:15])[H:16])[C:6]1=[O:7])([H:8])([H:9])[H:10]>>[C-:6]#[O+:7].[C:1]([C:2](/[C:3](=[N:4]/[C:5]([H:14])([H:15])[H:16])[H:13])([H:11])[H:12])([H:8])([H:9])[H:10]"
C        2.45181631      -0.42272090      -0.26071830
C        1.17307434       0.33945319      -0.32820307
C       -0.11553552      -0.28845135      -0.49088672
N       -1.12243373       0.44831459       0.00765542
C       -2.45246895      -0.10535575       0.06717919
C       -0.28770266       1.05303338       1.53487873
O       -0.96439041       1.48978362       2.36341559
H        2.29430896      -1.49771624      -0.35502123
H        2.90572486      -0.24530535       0.71711486
H        3.17047495      -0.09928150      -1.01540994
H        1.20746732       1.41212584      -0.47133761
H        0.34096471       0.01781417      -1.59366724
H       -0.14238194      -1.38483470      -0.46757259
H       -2.94729830       0.29831011       0.95406837
H       -3.04997286       0.18640457      -0.80158395
H       -2.46164707      -1.20157369       0.14008850
16
Frame=3 idx=008933 GeodesicLength=0.1799236537460665 rxn_smarts="[C:1]([C@@:2]1([H:11])[C:3]([H:12])([H:13])[N:4]([C:5]([H:14])([H:15])[H:16])[C:6]1=[O:7])([H:8])([H:9])[H:10]>>[C-:6]#[O+:7].[C:1]([C:2](/[C:3](=[N:4]/[C:5]([H:14])([H:15])[H:16])[H:13])([H:11])[H:12])([H:8])([H:9])[H:10]"
C        2.44256209      -0.41797647      -0.24443036
C        1.16396967       0.34481320      -0.33878202
C       -0.12238426      -0.29431860      -0.51251423
N       -1.12299068       0.43648679       0.00793111
C       -2.45597735      -0.10915035       0.07163005
C       -0.26628377       1.05580372       1.52239875
O       -0.92689832       1.47908723       2.37114164
H        2.28935469      -1.49482174      -0.32490405
H        2.88730136      -0.22729624       0.73496772
H        3.16854419      -0.10628460      -0.99707714
H        1.20541945       1.41615598      -0.49119199
H        0.35421466       0.02983304      -1.61529075
H       -0.14638486      -1.39071591      -0.49352261
H       -2.94179591       0.28911237       0.96576574
H       -3.05723975       0.19503896      -0.79013183
H       -2.47141123      -1.20576737       0.13400998
16
Frame=4 idx=008933 GeodesicLength=0.24032983488658718 rxn_smarts="[C:1]([C@@:2]1([H:11])[C:3]([H:12])([H:13])[N:4]([C:5]([H:14])([H:15])[H:16])[C:6]1=[O:7])([H:8])([H:9])[H:10]>>[C-:6]#[O+:7].[C:1]([C:2](/[C:3](=[N:4]/[C:5]([H:14])([H:15])[H:16])[H:13])([H:11])[H:12])([H:8])([H:9])[H:10]"
C        2.43288245      -0.41315162      -0.22830467
C        1.15493001       0.35020455      -0.34928301
C       -0.12915318      -0.29998461      -0.53387060
N       -1.12332652       0.42435109       0.00846588
C       -2.45928581      -0.11309697       0.07597913
C       -0.24528514       1.05934288       1.50956585
O       -0.88906206       1.46797964       2.37865414
H        2.28346708      -1.49160060      -0.29462492
H        2.86886817      -0.20922409       0.75220911
H        3.16604289      -0.11350522      -0.97890700
H        1.20374060       1.42012552      -0.51066915
H        0.36774167       0.04168869      -1.63644697
H       -0.15019697      -1.39638959      -0.51888789
H       -2.93618560       0.27934796       0.97731194
H       -3.06396532       0.20390242      -0.77862712
H       -2.48121227      -1.20999005       0.12743526
16
Frame=5 idx=008933 GeodesicLength=0.30102031449483513 rxn_smarts="[C:1]([C@@:2]1([H:11])[C:3]([H:12])([H:13])[N:4]([C:5]([H:14])([H:15])[H:16])[C:6]1=[O:7])([H:8])([H:9])[H:10]>>[C-:6]#[O+:7].[C:1]([C:2](/[C:3](=[N:4]/[C:5]([H:14])([H:15])[H:16])[H:13])([H:11])[H:12])([H:8])([H:9])[H:10]"
C        2.42276273      -0.40824959      -0.21226689
C        1.14594149       0.35563099      -0.35972860
C       -0.13585436      -0.30545337      -0.55502266
N       -1.12343836       0.41183165       0.00928618
C       -2.46239903      -0.11725336       0.08025759
C       -0.22471008       1.06355895       1.49639786
O       -0.85074941       1.45677933       2.38578691
H        2.27659317      -1.48805178      -0.26393264
H        2.85044913      -0.19095165       0.76887725
H        3.16295052      -0.12108789      -0.96087352
H        1.20241269       1.42403999      -0.52978119
H        0.38155987       0.05345922      -1.65718790
H       -0.15382680      -1.40186378      -0.54392015
H       -2.93035427       0.26867549       0.98891482
H       -3.07023124       0.21322934      -0.76685078
H       -2.49110604      -1.21429356       0.12004372
16
Frame=6 idx=008933 GeodesicLength=0.3620848717246924 rxn_smarts="[C:1]([C@@:2]1([H:11])[C:3]([H:12])([H:13])[N:4]([C:5]([H:14])([H:15])[H:16])[C:6]1=[O:7])([H:8])([H:9])[H:10]>>[C-:6]#[O+:7].[C:1]([C:2](/[C:3](=[N:4]/[C:5]([H:14])([H:15])[H:16])[H:13])([H:11])[H:12])([H:8])([H:9])[H:10]"
C        2.41217721      -0.40322011      -0.19621554
C        1.13699016       0.36112651      -0.37023631
C       -0.14250194      -0.31073169      -0.57601721
N       -1.12331972       0.39892244       0.01035020
C       -2.46532381      -0.12159116       0.08446297
C       -0.20455392       1.06870012       1.48271312
O       -0.81175356       1.44494794       2.39273868
H        2.26864914      -1.48411909      -0.23236216
H        2.83206154      -0.17212683       0.78499428
H        3.15923893      -0.12926258      -0.94296779
H        1.20142327       1.42791120      -0.54880269
H        0.39567522       0.06504479      -1.67760828
H       -0.15727975      -1.40714903      -0.56867652
H       -2.92421799       0.25692279       1.00068657
H       -3.07608864       0.22325291      -0.75465163
H       -2.50117614      -1.21862820       0.11159231
16
Frame=7 idx=008933 GeodesicLength=0.42361126684240724 rxn_smarts="[C:1]([C@@:2]1([H:11])[C:3]([H:12])([H:13])[N:4]([C:5]([H:14])([H:15])[H:16])[C:6]1=[O:7])([H:8])([H:9])[H:10]>>[C-:6]#[O+:7].[C:1]([C:2](/[C:3](=[N:4]/[C:5]([H:14])([H:15])[H:16])[H:13])([H:11])[H:12])([H:8])([H:9])[H:10]"
C        2.40107665      -0.39786379      -0.17997534
C        1.12803076       0.36675918      -0.38107870
C       -0.14912483      -0.31588263      -0.59681967
N       -1.12297604       0.38572831       0.01147964
C       -2.46808854      -0.12590037       0.08850338
C       -0.18484679       1.07562635       1.46793291
O       -0.77148600       1.43027034       2.40028336
H        2.25954538      -1.47957163      -0.19907114
H        2.81370093      -0.15196987       0.80056490
H        3.15484570      -0.13831898      -0.92515481
H        1.20069988       1.43171138      -0.56850357
H        0.41005632       0.07592408      -1.69785414
H       -0.16054966      -1.41230082      -0.59275602
H       -2.91771781       0.24420007       1.01257800
H       -3.08157510       0.23431973      -0.74199870
H       -2.51159085      -1.22273134       0.10186989
16
Frame=8 idx=008933 GeodesicLength=0.48554200091592936 rxn_smarts="[C:1]([C@@:2]1([H:11])[C:3]([H:12])([H:13])[N:4]([C:5]([H:14])([H:15])[H:16])[C:6]1=[O:7])([H:8])([H:9])[H:10]>>[C-:6]#[O+:7].[C:1]([C:2](/[C:3](=[N:4]/[C:5]([H:14])([H:15])[H:16])[H:13])([H:11])[H:12])([H:8])([H:9])[H:10]"
C        2.38949199      -0.39247553      -0.16374955
C        1.11910268       0.37240428      -0.39177250
C       -0.15569917      -0.32084520      -0.61750202
N       -1.12239159       0.37195392       0.01298042
C       -2.47064971      -0.13059073       0.09257032
C       -0.16572597       1.08298088       1.45294475
O       -0.73046511       1.41660733       2.40677090
H        2.24931309      -1.47463781      -0.16548049
H        2.79529141      -0.13183490       0.81567645
H        3.14987032      -0.14775061      -0.90724816
H        1.20033451       1.43544729      -0.58760376
H        0.42480356       0.08697957      -1.71770622
H       -0.16364459      -1.41726371      -0.61703301
H       -2.91083120       0.22999911       1.02477687
H       -3.08662359       0.24599650      -0.72865186
H       -2.52217662      -1.22697039       0.09102785
16
Frame=9 idx=008933 GeodesicLength=0.5480007473402264 rxn_smarts="[C:1]([C@@:2]1([H:11])[C:3]([H:12])([H:13])[N:4]([C:5]([H:14])([H:15])[H:16])[C:6]1=[O:7])([H:8])([H:9])[H:10]>>[C-:6]#[O+:7].[C:1]([C:2](/[C:3](=[N:4]/[C:5]([H:14])([H:15])[H:16])[H:13])([H:11])[H:12])([H:8])([H:9])[H:10]"
C        2.37737951      -0.38689822      -0.14737724
C        1.11017327       0.37812387      -0.40255463
C       -0.16224969      -0.32566587      -0.63806228
N       -1.12156706       0.35766381       0.01471505
C       -2.47303093      -0.13551508       0.09660728
C       -0.14722597       1.09147612       1.43727160
O       -0.68820996       1.40225831       2.41278302
H        2.23785911      -1.46913780      -0.13086072
H        2.77681990      -0.11107128       0.83035296
H        3.14426781      -0.15782611      -0.88919699
H        1.20028215       1.43911045      -0.60674304
H        0.43990577       0.09779947      -1.73730165
H       -0.16655511      -1.42208481      -0.64124344
H       -2.90347585       0.21427042       1.03730409
H       -3.09127781       0.25863116      -0.71447711
H       -2.53309515      -1.23113443       0.07878308
16
Frame=10 idx=008933 GeodesicLength=0.6110966162622593 rxn_smarts="[C:1]([C@@:2]1([H:11])[C:3]([H:12])([H:13])[N:4]([C:5]([H:14])([H:15])[H:16])[C:6]1=[O:7])([H:8])([H:9])[H:10]>>[C-:6]#[O+:7].[C:1]([C:2](/[C:3](=[N:4]/[C:5]([H:14])([H:15])[H:16])[H:13])([H:11])[H:12])([H:8])([H:9])[H:10]"
C        2.36467074      -0.38113734      -0.13075543
C        1.10123419       0.38392078      -0.41345675
C       -0.16878744      -0.33031774      -0.65859853
N       -1.12047873       0.34275957       0.01670133
C       -2.47520311      -0.14076867       0.10067078
C       -0.12939198       1.10104865       1.42087407
O       -0.64454506       1.38764900       2.41797665
H        2.22499564      -1.46300331      -0.09491712
H        2.75825224      -0.08956270       0.84462429
H        3.13798556      -0.16875099      -0.87088354
H        1.20056482       1.44269153      -0.62591336
H        0.45541451       0.10846980      -1.75669296
H       -0.16927905      -1.42672391      -0.66567435
H       -2.89543398       0.19641364       1.05041067
H       -3.09558578       0.27252577      -0.69903664
H       -2.54441256      -1.23521409       0.06467089
16
Frame=11 idx=008933 GeodesicLength=0.675067545615503 rxn_smarts="[C:1]([C@@:2]1([H:11])[C:3]([H:12])([H:13])[N:4]([C:5]([H:14])([H:15])[H:16])[C:6]1=[O:7])([H:8])([H:9])[H:10]>>[C-:6]#[O+:7].[C:1]([C:2](/[C:3](=[N:4]/[C:5]([H:14])([H:15])[H:16])[H:13])([H:11])[H:12])([H:8])([H:9])[H:10]"
C        2.35126012      -0.37498185      -0.11367757
C        1.09223227       0.38986627      -0.42472185
C       -0.17535111      -0.33484166      -0.67914927
N       -1.11914590       0.32733591       0.01873729
C       -2.47719076      -0.14620696       0.10469654
C       -0.11238242       1.11236978       1.40326236
O       -0.59858921       1.37085020       2.42278618
H        2.21051237      -1.45592767      -0.05685793
H        2.73949770      -0.06661237       0.85852147
H        3.13093239      -0.18077724      -0.85214250
H        1.20112654       1.44618877      -0.64570414
H        0.47136346       0.11857166      -1.77605612
H       -0.17181426      -1.43122874      -0.69008020
H       -2.88660538       0.17643260       1.06403683
H       -3.09957052       0.28790687      -0.68218701
H       -2.55627529      -1.23894557       0.04853591
16
Frame=12 idx=008933 GeodesicLength=0.7397800877186592 rxn_smarts="[C:1]([C@@:2]1([H:11])[C:3]([H:12])([H:13])[N:4]([C:5]([H:14])([H:15])[H:16])[C:6]1=[O:7])([H:8])([H:9])[H:10]>>[C-:6]#[O+:7].[C:1]([C:2](/[C:3](=[N:4]/[C:5]([H:14])([H:15])[H:16])[H:13])([H:11])[H:12])([H:8])([H:9])[H:10]"
C        2.33720156      -0.36881403      -0.09640492
C        1.08324187       0.39583811      -0.43589489
C       -0.18190093      -0.33912426      -0.69979185
N       -1.11747530       0.31106346       0.02117860
C       -2.47888609      -0.15222967       0.10889207
C       -0.09614883       1.12403143       1.38535520
O       -0.55151491       1.35600828       2.42573837
H        2.19443307      -1.44826908      -0.01806602
H        2.72059051      -0.04358811       0.87206755
H        3.12316413      -0.19358070      -0.83295600
H        1.20210774       1.44962303      -0.66488607
H        0.48783365       0.12900339      -1.79513419
H       -0.17414848      -1.43547058      -0.71530203
H       -2.87693086       0.15369964       1.07831898
H       -3.10306036       0.30439880      -0.66355072
H       -2.56850676      -1.24258971       0.03043593
16
Frame=13 idx=008933 GeodesicLength=0.8051805381263198 rxn_smarts="[C:1]([C@@:2]1([H:11])[C:3]([H:12])([H:13])[N:4]([C:5]([H:14])([H:15])[H:16])[C:6]1=[O:7])([H:8])([H:9])[H:10]>>[C-:6]#[O+:7].[C:1]([C:2](/[C:3](=[N:4]/[C:5]([H:14])([H:15])[H:16])[H:13])([H:11])[H:12])([H:8])([H:9])[H:10]"
C        2.32252810      -0.36266051      -0.07903830
C        1.07426991       0.40182898      -0.44691102
C       -0.18843365      -0.34316689      -0.72046525
N       -1.11542974       0.29391765       0.02404646
C       -2.48026920      -0.15880712       0.11325808
C       -0.08073268       1.13592544       1.36723851
O       -0.50357172       1.34320255       2.42683953
H        2.17682047      -1.44004396       0.02106976
H        2.70154840      -0.02073447       0.88524103
H        3.11468479      -0.20700410      -0.81335425
H        1.20350967       1.45299694      -0.68335072
H        0.50483693       0.13978060      -1.81384566
H       -0.17626520      -1.43943862      -0.74123737
H       -2.86654157       0.12852936       1.09296787
H       -3.10587910       0.32167456      -0.64323895
H       -2.58107542      -1.24600041       0.01078028
16
Frame=14 idx=008933 GeodesicLength=0.8711797004069963 rxn_smarts="[C:1]([C@@:2]1([H:11])[C:3]([H:12])([H:13])[N:4]([C:5]([H:14])([H:15])[H:16])[C:6]1=[O:7])([H:8])([H:9])[H:10]>>[C-:6]#[O+:7].[C:1]([C:2](/[C:3](=[N:4]/[C:5]([H:14])([H:15])[H:16])[H:13])([H:11])[H:12])([H:8])([H:9])[H:10]"
C        2.30729553      -0.35659712      -0.06170269
C        1.06533543       0.40781670      -0.45767919
C       -0.19493981      -0.34697037      -0.74110911
N       -1.11295808       0.27583221       0.02740462
C       -2.48130933      -0.16594615       0.11782148
C       -0.06614042       1.14787640       1.34905188
O       -0.45522062       1.33295689       2.42600930
H        2.15778297      -1.43135346       0.06004496
H        2.68238621       0.00158603       0.89804970
H        3.10552974      -0.22086056      -0.79338841
H        1.20535365       1.45630775      -0.70092655
H        0.52238026       0.15097904      -1.83209214
H       -0.17814676      -1.44312049      -0.76785282
H       -2.85553774       0.10108193       1.10779039
H       -3.10786043       0.33948602      -0.62128020
H       -2.59395060      -1.24907481      -0.01014122
16
Frame=15 idx=008933 GeodesicLength=0.9376902897898556 rxn_smarts="[C:1]([C@@:2]1([H:11])[C:3]([H:12])([H:13])[N:4]([C:5]([H:14])([H:15])[H:16])[C:6]1=[O:7])([H:8])([H:9])[H:10]>>[C-:6]#[O+:7].[C:1]([C:2](/[C:3](=[N:4]/[C:5]([H:14])([H:15])[H:16])[H:13])([H:11])[H:12])([H:8])([H:9])[H:10]"
C        2.29156863      -0.35064895      -0.04450624
C        1.05644147       0.41378473      -0.46815407
C       -0.20141690      -0.35056744      -0.76163748
N       -1.11001756       0.25676382       0.03128405
C       -2.48199169      -0.17359259       0.12257862
C       -0.05237974       1.15978541       1.33086939
O       -0.40680265       1.32534739       2.42331573
H        2.13747618      -1.42226582       0.09848094
H        2.66312313       0.02316996       0.91049567
H        3.09573358      -0.23495807      -0.77313495
H        1.20761571       1.45954550      -0.71755697
H        0.54044639       0.16256503      -1.84979246
H       -0.17977507      -1.44653511      -0.79499704
H       -2.84405548       0.07164919       1.12255531
H       -3.10883984       0.35762441      -0.59778524
H       -2.60712616      -1.25166746      -0.03201526
16
Frame=16 idx=008933 GeodesicLength=1.0046191808163931 rxn_smarts="[C:1]([C@@:2]1([H:11])[C:3]([H:12])([H:13])[N:4]([C:5]([H:14])([H:15])[H:16])[C:6]1=[O:7])([H:8])([H:9])[H:10]>>[C-:6]#[O+:7].[C:1]([C:2](/[C:3](=[N:4]/[C:5]([H:14])([H:15])[H:16])[H:13])([H:11])[H:12])([H:8])([H:9])[H:10]"
C        2.27543002      -0.34482630      -0.02755516
C        1.04758485       0.41970669      -0.47830111
C       -0.20786295      -0.35402251      -0.78194834
N       -1.10656599       0.23665158       0.03572070
C       -2.48231093      -0.18167362       0.12751624
C       -0.03944473       1.17152671       1.31277123
O       -0.35866512       1.32043002       2.41884454
H        2.11610764      -1.41285492       0.13603916
H        2.64379073       0.04387232       0.92257931
H        3.08534539      -0.24908850      -0.75269668
H        1.21024214       1.46269109      -0.73320976
H        0.55900079       0.17446688      -1.86686877
H       -0.18112923      -1.44973386      -0.82248554
H       -2.83223482       0.04049842       1.13706332
H       -3.10865660       0.37597586      -0.57285613
H       -2.62063120      -1.25361984      -0.05461301
