12
Frame=0 idx=005672 GeodesicLength=0.0 rxn_smarts="[N:1]([c:2]1[c:3]([H:9])[n:4]([H:10])[c:5]([H:11])[c:6]1[H:12])([H:7])[H:8]>>[N:1]([C:2]1=[C:6]=[C:5]([H:11])[N:4]([H:10])[C:3]1([H:9])[H:12])([H:7])[H:8]"
N       -2.05216005       0.03324022      -0.11823112
C       -0.66672340      -0.17001544      -0.06732549
C        0.29060206       0.91648709      -0.19170187
N        1.47732267       0.39031117       0.13126184
C        1.31218749      -0.97633058       0.39623681
C        0.01540698      -1.39847233       0.30822559
H       -2.37585203       0.73631907       0.52731074
H       -2.51809346      -0.84590138       0.05542764
H        0.14105493       1.95329370      -0.45509867
H        2.35467386       0.85877968      -0.02322434
H        2.20533581      -1.53698874       0.63991147
H       -0.18375488       0.03927757      -1.20279256
12
Frame=1 idx=005672 GeodesicLength=0.10067937152136994 rxn_smarts="[N:1]([c:2]1[c:3]([H:9])[n:4]([H:10])[c:5]([H:11])[c:6]1[H:12])([H:7])[H:8]>>[N:1]([C:2]1=[C:6]=[C:5]([H:11])[N:4]([H:10])[C:3]1([H:9])[H:12])([H:7])[H:8]"
N       -2.05303029       0.03220859      -0.10567097
C       -0.66937795      -0.16576443      -0.05215607
C        0.28994784       0.91264607      -0.20827676
N        1.47668177       0.39437820       0.14371019
C        1.31255367      -0.96997035       0.40830484
C        0.02129211      -1.39960941       0.27312588
H       -2.37976327       0.75572408       0.51471380
H       -2.52281065      -0.84302694       0.07507897
H        0.13415243       1.95389493      -0.44899679
H        2.35471869       0.86397331      -0.00152620
H        2.20822681      -1.53848774       0.62301577
H       -0.17259116       0.00403368      -1.22132265
12
Frame=2 idx=005672 GeodesicLength=0.20105683737518795 rxn_smarts="[N:1]([c:2]1[c:3]([H:9])[n:4]([H:10])[c:5]([H:11])[c:6]1[H:12])([H:7])[H:8]>>[N:1]([C:2]1=[C:6]=[C:5]([H:11])[N:4]([H:10])[C:3]1([H:9])[H:12])([H:7])[H:8]"
N       -2.05354712       0.03103709      -0.09313102
C       -0.67157733      -0.16166549      -0.03736922
C        0.28934277       0.90856740      -0.22455628
N        1.47595506       0.39799791       0.15498803
C        1.31290731      -0.96456416       0.41746736
C        0.02692530      -1.39878757       0.24104204
H       -2.38360919       0.77461894       0.50062463
H       -2.52705725      -0.84033666       0.09441652
H        0.12712686       1.95442624      -0.43966560
H        2.35454213       0.86867307       0.01849513
H        2.21038582      -1.53918199       0.60779300
H       -0.16139436      -0.03078477      -1.24010457
12
Frame=3 idx=005672 GeodesicLength=0.3013427435241295 rxn_smarts="[N:1]([c:2]1[c:3]([H:9])[n:4]([H:10])[c:5]([H:11])[c:6]1[H:12])([H:7])[H:8]>>[N:1]([C:2]1=[C:6]=[C:5]([H:11])[N:4]([H:10])[C:3]1([H:9])[H:12])([H:7])[H:8]"
N       -2.05376475       0.02982621      -0.08052803
C       -0.67340906      -0.15759047      -0.02254761
C        0.28868102       0.90437297      -0.24033146
N        1.47516010       0.40128772       0.16525566
C        1.31336544      -0.95990736       0.42409873
C        0.03218498      -1.39636400       0.21172082
H       -2.38755649       0.79299212       0.48506455
H       -2.53097266      -0.83776119       0.11326841
H        0.12007634       1.95469219      -0.42774777
H        2.35416475       0.87301063       0.03697515
H        2.21210525      -1.53934916       0.59380229
H       -0.15003492      -0.06520967      -1.25903073
12
Frame=4 idx=005672 GeodesicLength=0.401669620497636 rxn_smarts="[N:1]([c:2]1[c:3]([H:9])[n:4]([H:10])[c:5]([H:11])[c:6]1[H:12])([H:7])[H:8]>>[N:1]([C:2]1=[C:6]=[C:5]([H:11])[N:4]([H:10])[C:3]1([H:9])[H:12])([H:7])[H:8]"
N       -2.05371604       0.02868883      -0.06776974
C       -0.67494056      -0.15343267      -0.00729130
C        0.28787851       0.90014760      -0.25540040
N        1.47430887       0.40434098       0.17470733
C        1.31394684      -0.95579167       0.42876623
C        0.03699361      -1.39259470       0.18496320
H       -2.39175395       0.81075354       0.46809358
H       -2.53465603      -0.83522422       0.13141590
H        0.11310713       1.95453555      -0.41396355
H        2.35357930       0.87707912       0.05407836
H        2.21361476      -1.53923486       0.58038420
H       -0.13836244      -0.09926748      -1.27798380
12
Frame=5 idx=005672 GeodesicLength=0.5022253355717297 rxn_smarts="[N:1]([c:2]1[c:3]([H:9])[n:4]([H:10])[c:5]([H:11])[c:6]1[H:12])([H:7])[H:8]>>[N:1]([C:2]1=[C:6]=[C:5]([H:11])[N:4]([H:10])[C:3]1([H:9])[H:12])([H:7])[H:8]"
N       -2.05344175       0.02762732      -0.05476553
C       -0.67622549      -0.14909042       0.00878939
C        0.28683637       0.89600047      -0.26949077
N        1.47341879       0.40724042       0.18354805
C        1.31467029      -0.95206305       0.43195022
C        0.04132479      -1.38765377       0.16045420
H       -2.39628122       0.82792796       0.44967382
H       -2.53820721      -0.83279178       0.14876315
H        0.10632337       1.95379935      -0.39893064
H        2.35286043       0.88090511       0.06987404
H        2.21491444      -1.53895043       0.56698121
H       -0.12619281      -0.13295117      -1.29684713
12
Frame=6 idx=005672 GeodesicLength=0.6029055423620826 rxn_smarts="[N:1]([c:2]1[c:3]([H:9])[n:4]([H:10])[c:5]([H:11])[c:6]1[H:12])([H:7])[H:8]>>[N:1]([C:2]1=[C:6]=[C:5]([H:11])[N:4]([H:10])[C:3]1([H:9])[H:12])([H:7])[H:8]"
N       -2.05295243       0.02677162      -0.04136519
C       -0.67729940      -0.14453344       0.02593561
C        0.28548991       0.89196001      -0.28244522
N        1.47251027       0.41000857       0.19189102
C        1.31550728      -0.94862518       0.43397976
C        0.04513256      -1.38168991       0.13795059
H       -2.40117332       0.84432314       0.43002113
H       -2.54168474      -0.83037459       0.16507355
H        0.09979740       1.95243707      -0.38327463
H        2.35199602       0.88452866       0.08448737
H        2.21610330      -1.53858662       0.55333132
H       -0.11342685      -0.16621932      -1.31558532
12
Frame=7 idx=005672 GeodesicLength=0.7037535607415597 rxn_smarts="[N:1]([c:2]1[c:3]([H:9])[n:4]([H:10])[c:5]([H:11])[c:6]1[H:12])([H:7])[H:8]>>[N:1]([C:2]1=[C:6]=[C:5]([H:11])[N:4]([H:10])[C:3]1([H:9])[H:12])([H:7])[H:8]"
N       -2.05226288       0.02614268      -0.02742988
C       -0.67818959      -0.13971886       0.04441391
C        0.28376818       0.88805866      -0.29413694
N        1.47159768       0.41267029       0.19984413
C        1.31643333      -0.94541655       0.43508838
C        0.04840536      -1.37478778       0.11714386
H       -2.40641013       0.85990243       0.40919150
H       -2.54513499      -0.82801068       0.18025898
H        0.09355251       1.95046533      -0.36740775
H        2.35102910       0.88794758       0.09796494
H        2.21713648      -1.53819088       0.53926644
H       -0.09992506      -0.19906221      -1.33419756
12
Frame=8 idx=005672 GeodesicLength=0.8047588497152793 rxn_smarts="[N:1]([c:2]1[c:3]([H:9])[n:4]([H:10])[c:5]([H:11])[c:6]1[H:12])([H:7])[H:8]>>[N:1]([C:2]1=[C:6]=[C:5]([H:11])[N:4]([H:10])[C:3]1([H:9])[H:12])([H:7])[H:8]"
N       -2.05135320       0.02584053      -0.01277046
C       -0.67890614      -0.13463787       0.06443713
C        0.28161436       0.88429052      -0.30450339
N        1.47069533       0.41522976       0.20745904
C        1.31739478      -0.94238708       0.43545066
C        0.05110776      -1.36699115       0.09781731
H       -2.41196553       0.87450693       0.38735266
H       -2.54858100      -0.82565359       0.19411162
H        0.08758555       1.94793065      -0.35167416
H        2.34996819       0.89116724       0.11033080
H        2.21798864      -1.53779803       0.52472922
H       -0.08554874      -0.23149792      -1.35274044
12
Frame=9 idx=005672 GeodesicLength=0.9054759105311891 rxn_smarts="[N:1]([c:2]1[c:3]([H:9])[n:4]([H:10])[c:5]([H:11])[c:6]1[H:12])([H:7])[H:8]>>[N:1]([C:2]1=[C:6]=[C:5]([H:11])[N:4]([H:10])[C:3]1([H:9])[H:12])([H:7])[H:8]"
N       -2.05027245       0.02589753       0.00284611
C       -0.67945308      -0.12929155       0.08599446
C        0.27904348       0.88062498      -0.31362441
N        1.46971596       0.41771052       0.21488546
C        1.31824007      -0.93951542       0.43518429
C        0.05330799      -1.35837603       0.07947625
H       -2.41772574       0.88805953       0.36471668
H       -2.55190081      -0.82321305       0.20663462
H        0.08185759       1.94495608      -0.33646629
H        2.34875098       0.89418869       0.12175447
H        2.21869874      -1.53749086       0.50984050
H       -0.07026273      -0.26355043      -1.37124214
12
Frame=10 idx=005672 GeodesicLength=1.0064391791532032 rxn_smarts="[N:1]([c:2]1[c:3]([H:9])[n:4]([H:10])[c:5]([H:11])[c:6]1[H:12])([H:7])[H:8]>>[N:1]([C:2]1=[C:6]=[C:5]([H:11])[N:4]([H:10])[C:3]1([H:9])[H:12])([H:7])[H:8]"
N       -2.04896269       0.02633451       0.01947379
C       -0.67984416      -0.12365645       0.10931652
C        0.27587935       0.87706380      -0.32153952
N        1.46873418       0.42012640       0.22196807
C        1.31898372      -0.93671698       0.43447752
C        0.05485325      -1.34884444       0.06216926
H       -2.42348577       0.90061304       0.34165330
H       -2.55529413      -0.82092519       0.21737058
H        0.07629111       1.94164178      -0.32155366
H        2.34753199       0.89695657       0.13187200
H        2.21898889      -1.53716425       0.49472066
H       -0.05367573      -0.29542880      -1.38992850
12
Frame=11 idx=005672 GeodesicLength=1.107542456426052 rxn_smarts="[N:1]([c:2]1[c:3]([H:9])[n:4]([H:10])[c:5]([H:11])[c:6]1[H:12])([H:7])[H:8]>>[N:1]([C:2]1=[C:6]=[C:5]([H:11])[N:4]([H:10])[C:3]1([H:9])[H:12])([H:7])[H:8]"
N       -2.04743376       0.02721053       0.03728470
C       -0.68007409      -0.11774942       0.13439729
C        0.27205343       0.87355955      -0.32835145
N        1.46770888       0.42249093       0.22868541
C        1.31954390      -0.93396498       0.43340656
C        0.05568231      -1.33837465       0.04572085
H       -2.42909083       0.91211271       0.31848255
H       -2.55872886      -0.81873459       0.22615976
H        0.07081570       1.93807511      -0.30703224
H        2.34623970       0.89949384       0.14070928
H        2.21880357      -1.53684183       0.47949163
H       -0.03551994      -0.32727720      -1.40895435
12
Frame=12 idx=005672 GeodesicLength=1.208704931413901 rxn_smarts="[N:1]([c:2]1[c:3]([H:9])[n:4]([H:10])[c:5]([H:11])[c:6]1[H:12])([H:7])[H:8]>>[N:1]([C:2]1=[C:6]=[C:5]([H:11])[N:4]([H:10])[C:3]1([H:9])[H:12])([H:7])[H:8]"
N       -2.04572572       0.02856814       0.05648997
C       -0.68012962      -0.11156574       0.16119780
C        0.26749310       0.87010239      -0.33415281
N        1.46659774       0.42482909       0.23500993
C        1.31980889      -0.93121589       0.43206090
C        0.05575587      -1.32691661       0.02992148
H       -2.43435929       0.92252247       0.29555478
H       -2.56216496      -0.81665859       0.23278841
H        0.06535205       1.93432085      -0.29292877
H        2.34487463       0.90178945       0.14817254
H        2.21798045      -1.53651620       0.46434235
H       -0.01548315      -0.35925934      -1.42845658
12
Frame=13 idx=005672 GeodesicLength=1.3098347567019646 rxn_smarts="[N:1]([c:2]1[c:3]([H:9])[n:4]([H:10])[c:5]([H:11])[c:6]1[H:12])([H:7])[H:8]>>[N:1]([C:2]1=[C:6]=[C:5]([H:11])[N:4]([H:10])[C:3]1([H:9])[H:12])([H:7])[H:8]"
N       -2.04390292       0.03044199       0.07778161
C       -0.67998290      -0.10512404       0.18983081
C        0.26208315       0.86663791      -0.33901467
N        1.46534553       0.42716320       0.24087847
C        1.31970946      -0.92843901       0.43050824
C        0.05500863      -1.31443218       0.01472163
H       -2.43912992       0.93180961       0.27291074
H       -2.56542113      -0.81450531       0.23661708
H        0.05976157       1.93041964      -0.27924553
H        2.34336252       0.90386642       0.15415689
H        2.21651190      -1.53623165       0.44927811
H        0.00665411      -0.39160657      -1.44842337
12
Frame=14 idx=005672 GeodesicLength=1.4108610558711492 rxn_smarts="[N:1]([c:2]1[c:3]([H:9])[n:4]([H:10])[c:5]([H:11])[c:6]1[H:12])([H:7])[H:8]>>[N:1]([C:2]1=[C:6]=[C:5]([H:11])[N:4]([H:10])[C:3]1([H:9])[H:12])([H:7])[H:8]"
N       -2.04195855       0.03288925       0.10138153
C       -0.67960937      -0.09844487       0.22007767
C        0.25576776       0.86318881      -0.34305282
N        1.46389715       0.42950936       0.24625951
C        1.31911165      -0.92561001       0.42878064
C        0.05339360      -1.30084995      -0.00018998
H       -2.44331103       0.93989603       0.25071723
H       -2.56849897      -0.81225453       0.23779195
H        0.05398188       1.92646480      -0.26592330
H        2.34167554       0.90572361       0.15867339
H        2.21423590      -1.53600406       0.43447617
H        0.03131445      -0.42450844      -1.46899199
12
Frame=15 idx=005672 GeodesicLength=1.51166766782728 rxn_smarts="[N:1]([c:2]1[c:3]([H:9])[n:4]([H:10])[c:5]([H:11])[c:6]1[H:12])([H:7])[H:8]>>[N:1]([C:2]1=[C:6]=[C:5]([H:11])[N:4]([H:10])[C:3]1([H:9])[H:12])([H:7])[H:8]"
N       -2.03993849       0.03592391       0.12767589
C       -0.67899132      -0.09158156       0.25176781
C        0.24847131       0.85975769      -0.34638844
N        1.46218354       0.43188713       0.25109987
C        1.31790892      -0.92270591       0.42690486
C        0.05086323      -1.28612121      -0.01501568
H       -2.44681842       0.94669669       0.22921824
H       -2.57127531      -0.80967460       0.23608773
H        0.04790616       1.92250215      -0.25293914
H        2.33975696       0.90737859       0.16169714
H        2.21106867      -1.53585092       0.42005528
H        0.05886475      -0.45821195      -1.49016357
12
Frame=16 idx=005672 GeodesicLength=1.6121816417628438 rxn_smarts="[N:1]([c:2]1[c:3]([H:9])[n:4]([H:10])[c:5]([H:11])[c:6]1[H:12])([H:7])[H:8]>>[N:1]([C:2]1=[C:6]=[C:5]([H:11])[N:4]([H:10])[C:3]1([H:9])[H:12])([H:7])[H:8]"
N       -2.03788969       0.03953618       0.15707065
C       -0.67811872      -0.08457560       0.28469911
C        0.24012555       0.85639899      -0.34908590
N        1.46014949       0.43430281       0.25534528
C        1.31598780      -0.91972094       0.42485383
C        0.04737247      -1.27017625      -0.03002548
H       -2.44959747       0.95204688       0.20816805
H       -2.57360412      -0.80652638       0.23166782
H        0.04145422       1.91862134      -0.24009087
H        2.33756982       0.90882307       0.16322272
H        2.20690960      -1.53581849       0.40605838
H        0.08964105      -0.49291161      -1.51188358
