12
Frame=0 idx=003722 GeodesicLength=0.0 rxn_smarts="[C:1]([C:2]#[C:3][C:4](=[O:5])[C:6]([H:10])([H:11])[H:12])([H:7])([H:8])[H:9]>>[C:1](=[C:2]([C+:3]=[C:4]([O-:5])[C:6]([H:10])([H:11])[H:12])[H:8])([H:7])[H:9]"
C       -2.52678583       0.43761778      -0.45162509
C       -1.37210326      -0.19572426      -0.06047035
C       -0.28484528      -0.49461020       0.54778888
C        1.07430795      -0.77500761       0.19706299
O        1.40753929      -1.83023726      -0.30764506
C        2.07281499       0.29608676       0.57202908
H       -2.65590749       1.50874924      -0.33122483
H       -1.41560794      -0.46767717      -1.19545854
H       -3.28878361      -0.10960107      -0.99086877
H        1.61046936       1.28025841       0.65962949
H        2.51401485       0.03658872       1.53632593
H        2.86488694       0.31355670      -0.17554373
12
Frame=1 idx=003722 GeodesicLength=0.055790036221142134 rxn_smarts="[C:1]([C:2]#[C:3][C:4](=[O:5])[C:6]([H:10])([H:11])[H:12])([H:7])([H:8])[H:9]>>[C:1](=[C:2]([C+:3]=[C:4]([O-:5])[C:6]([H:10])([H:11])[H:12])[H:8])([H:7])[H:9]"
C       -2.51273615       0.43814191      -0.45903741
C       -1.37853831      -0.23169128      -0.06601611
C       -0.28637366      -0.50918758       0.54464302
C        1.07701659      -0.77978156       0.20074423
O        1.41716981      -1.83992294      -0.28858176
C        2.06677065       0.30129143       0.56764596
H       -2.62905140       1.50337569      -0.28638004
H       -1.42226672      -0.45173053      -1.22585863
H       -3.29605887      -0.08662102      -0.99016121
H        1.59988213       1.28534483       0.62881527
H        2.49513066       0.06365036       1.54331213
H        2.86905526       0.30713068      -0.16912544
12
Frame=2 idx=003722 GeodesicLength=0.11140091512347519 rxn_smarts="[C:1]([C:2]#[C:3][C:4](=[O:5])[C:6]([H:10])([H:11])[H:12])([H:7])([H:8])[H:9]>>[C:1](=[C:2]([C+:3]=[C:4]([O-:5])[C:6]([H:10])([H:11])[H:12])[H:8])([H:7])[H:9]"
C       -2.50001171       0.43817265      -0.46583993
C       -1.38289465      -0.26302281      -0.07545172
C       -0.28780343      -0.52094598       0.53979471
C        1.07972035      -0.78398257       0.20445067
O        1.42577389      -1.84967475      -0.26815977
C        2.06197285       0.30559609       0.56369869
H       -2.60754525       1.49460245      -0.24194686
H       -1.42890830      -0.43187908      -1.25764424
H       -3.30350013      -0.06695255      -0.98602250
H        1.59226227       1.28966191       0.59737284
H        2.47573649       0.08986368       1.55069871
H        2.87519763       0.29856094      -0.16095060
12
Frame=3 idx=003722 GeodesicLength=0.16691567675519753 rxn_smarts="[C:1]([C:2]#[C:3][C:4](=[O:5])[C:6]([H:10])([H:11])[H:12])([H:7])([H:8])[H:9]>>[C:1](=[C:2]([C+:3]=[C:4]([O-:5])[C:6]([H:10])([H:11])[H:12])[H:8])([H:7])[H:9]"
C       -2.48857161       0.43778629      -0.47197388
C       -1.38556118      -0.29063606      -0.08787088
C       -0.28917731      -0.53055913       0.53374834
C        1.08240264      -0.78776639       0.20826940
O        1.43345926      -1.85941047      -0.24669027
C        2.05821932       0.30918596       0.56009888
H       -2.59004459       1.48296733      -0.19842345
H       -1.43578949      -0.40861442      -1.29021695
H       -3.31099654      -0.05004873      -0.97929505
H        1.58715693       1.29321001       0.56564317
H        2.45614996       0.11541237       1.55811998
H        2.88275260       0.28847324      -0.15140929
12
Frame=4 idx=003722 GeodesicLength=0.22227635678317886 rxn_smarts="[C:1]([C:2]#[C:3][C:4](=[O:5])[C:6]([H:10])([H:11])[H:12])([H:7])([H:8])[H:9]>>[C:1](=[C:2]([C+:3]=[C:4]([O-:5])[C:6]([H:10])([H:11])[H:12])[H:8])([H:7])[H:9]"
C       -2.47769275       0.43748757      -0.47777255
C       -1.38696240      -0.31535631      -0.10197263
C       -0.29035869      -0.53897569       0.52681919
C        1.08513699      -0.79079152       0.21149044
O        1.44065149      -1.86780198      -0.22675159
C        2.05508866       0.31237195       0.55735332
H       -2.57274755       1.47052658      -0.15980232
H       -1.44499582      -0.38631696      -1.32209946
H       -3.31920548      -0.03515234      -0.96830525
H        1.58358450       1.29599194       0.53602492
H        2.43671756       0.13918512       1.56547899
H        2.89078349       0.27883163      -0.14046305
12
Frame=5 idx=003722 GeodesicLength=0.2775395378721153 rxn_smarts="[C:1]([C:2]#[C:3][C:4](=[O:5])[C:6]([H:10])([H:11])[H:12])([H:7])([H:8])[H:9]>>[C:1](=[C:2]([C+:3]=[C:4]([O-:5])[C:6]([H:10])([H:11])[H:12])[H:8])([H:7])[H:9]"
C       -2.46821520       0.43654985      -0.48268820
C       -1.38701942      -0.33740389      -0.11826163
C       -0.29154654      -0.54588921       0.51927631
C        1.08780034      -0.79380168       0.21531467
O        1.44696475      -1.87664720      -0.20497064
C        2.05275881       0.31496976       0.55453570
H       -2.55916910       1.45529874      -0.12067117
H       -1.45381913      -0.35933916      -1.35458542
H       -3.32676423      -0.02250460      -0.95686852
H        1.58205114       1.29800303       0.50529685
H        2.41727640       0.16314704       1.57239250
H        2.89968218       0.26761732      -0.12877045
12
Frame=6 idx=003722 GeodesicLength=0.332821123563948 rxn_smarts="[C:1]([C:2]#[C:3][C:4](=[O:5])[C:6]([H:10])([H:11])[H:12])([H:7])([H:8])[H:9]>>[C:1](=[C:2]([C+:3]=[C:4]([O-:5])[C:6]([H:10])([H:11])[H:12])[H:8])([H:7])[H:9]"
C       -2.45920336       0.43547881      -0.48690489
C       -1.38614124      -0.35772885      -0.13569720
C       -0.29265996      -0.55259634       0.51119156
C        1.09049074      -0.79653023       0.21883889
O        1.45307813      -1.88469274      -0.18416786
C        2.05062967       0.31736493       0.55224735
H       -2.54473578       1.43971913      -0.08523453
H       -1.46455592      -0.33242767      -1.38645063
H       -3.33445718      -0.01115268      -0.94265684
H        1.58126635       1.29932928       0.47582013
H        2.39768448       0.18629352       1.57905879
H        2.90860406       0.25694285      -0.11604478
12
Frame=7 idx=003722 GeodesicLength=0.38804232117411297 rxn_smarts="[C:1]([C:2]#[C:3][C:4](=[O:5])[C:6]([H:10])([H:11])[H:12])([H:7])([H:8])[H:9]>>[C:1](=[C:2]([C+:3]=[C:4]([O-:5])[C:6]([H:10])([H:11])[H:12])[H:8])([H:7])[H:9]"
C       -2.45086210       0.43416277      -0.49065458
C       -1.38432197      -0.37616195      -0.15428429
C       -0.29370555      -0.55871730       0.50269533
C        1.09316968      -0.79902915       0.22236650
O        1.45874317      -1.89223773      -0.16369456
C        2.04888632       0.31947744       0.55033206
H       -2.53065205       1.42343662      -0.05229907
H       -1.47672005      -0.30464982      -1.41788264
H       -3.34199468      -0.00142248      -0.92658019
H        1.58157683       1.30000909       0.44718072
H        2.37821731       0.20880496       1.58535149
H        2.91766308       0.24632756      -0.10253078
12
Frame=8 idx=003722 GeodesicLength=0.44324702167554275 rxn_smarts="[C:1]([C:2]#[C:3][C:4](=[O:5])[C:6]([H:10])([H:11])[H:12])([H:7])([H:8])[H:9]>>[C:1](=[C:2]([C+:3]=[C:4]([O-:5])[C:6]([H:10])([H:11])[H:12])[H:8])([H:7])[H:9]"
C       -2.44306765       0.43258521      -0.49389809
C       -1.38163765      -0.39302384      -0.17391343
C       -0.29469541      -0.56459650       0.49382171
C        1.09585083      -0.80141041       0.22591412
O        1.46411155      -1.89937016      -0.14351388
C        2.04737814       0.32137504       0.54873393
H       -2.51645725       1.40668508      -0.02166125
H       -1.49035220      -0.27599994      -1.44885938
H       -3.34926811       0.00692226      -0.90882249
H        1.58270072       1.30005755       0.41916899
H        2.35869796       0.23091116       1.59126763
H        2.92673909       0.23586455      -0.08823787
12
Frame=9 idx=003722 GeodesicLength=0.4984047979258621 rxn_smarts="[C:1]([C:2]#[C:3][C:4](=[O:5])[C:6]([H:10])([H:11])[H:12])([H:7])([H:8])[H:9]>>[C:1](=[C:2]([C+:3]=[C:4]([O-:5])[C:6]([H:10])([H:11])[H:12])[H:8])([H:7])[H:9]"
C       -2.43566426       0.43079532      -0.49685112
C       -1.37823755      -0.40844895      -0.19422207
C       -0.29561730      -0.57028147       0.48469329
C        1.09851875      -0.80356727       0.22937538
O        1.46918266      -1.90581540      -0.12429538
C        2.04605881       0.32311479       0.54761194
H       -2.50147212       1.39012210       0.00587537
H       -1.50591366      -0.24762632      -1.47916850
H       -3.35632383       0.01394917      -0.88911125
H        1.58449450       1.29958801       0.39249987
H        2.33934036       0.25222463       1.59687003
H        2.93563363       0.22594539      -0.07327756
12
Frame=10 idx=003722 GeodesicLength=0.5535351574756486 rxn_smarts="[C:1]([C:2]#[C:3][C:4](=[O:5])[C:6]([H:10])([H:11])[H:12])([H:7])([H:8])[H:9]>>[C:1](=[C:2]([C+:3]=[C:4]([O-:5])[C:6]([H:10])([H:11])[H:12])[H:8])([H:7])[H:9]"
C       -2.42900344       0.42858611      -0.49936875
C       -1.37388986      -0.42218101      -0.21572552
C       -0.29648275      -0.57543522       0.47522169
C        1.10115139      -0.80569849       0.23314916
O        1.47374268      -1.91224180      -0.10447082
C        2.04511494       0.32456620       0.54656857
H       -2.48755224       1.37257276       0.03258130
H       -1.52243153      -0.21695255      -1.50917334
H       -3.36278506       0.01918381      -0.86870834
H        1.58744477       1.29846295       0.36563110
H        2.31997679       0.27358986       1.60195359
H        2.94471432       0.21554738      -0.05765865
12
Frame=11 idx=003722 GeodesicLength=0.6086184593574321 rxn_smarts="[C:1]([C:2]#[C:3][C:4](=[O:5])[C:6]([H:10])([H:11])[H:12])([H:7])([H:8])[H:9]>>[C:1](=[C:2]([C+:3]=[C:4]([O-:5])[C:6]([H:10])([H:11])[H:12])[H:8])([H:7])[H:9]"
C       -2.42244817       0.42628571      -0.50192774
C       -1.36903023      -0.43475334      -0.23749126
C       -0.29725190      -0.58060465       0.46556599
C        1.10378347      -0.80751181       0.23662838
O        1.47813763      -1.91770281      -0.08649779
C        2.04424266       0.32595918       0.54623005
H       -2.47179901       1.35622118       0.05525051
H       -1.54162623      -0.18819474      -1.53837256
H       -3.36905189       0.02334664      -0.84585152
H        1.59075969       1.29701839       0.34093190
H        2.30088044       0.29373792       1.60692873
H        2.95340354       0.20619831      -0.04139470
12
Frame=12 idx=003722 GeodesicLength=0.6637115129281166 rxn_smarts="[C:1]([C:2]#[C:3][C:4](=[O:5])[C:6]([H:10])([H:11])[H:12])([H:7])([H:8])[H:9]>>[C:1](=[C:2]([C+:3]=[C:4]([O-:5])[C:6]([H:10])([H:11])[H:12])[H:8])([H:7])[H:9]"
C       -2.41639539       0.42366592      -0.50431575
C       -1.36340632      -0.44586237      -0.26009708
C       -0.29794074      -0.58542310       0.45560792
C        1.10639765      -0.80919794       0.24020769
O        1.48214535      -1.92287554      -0.06872806
C        2.04366044       0.32715979       0.54617967
H       -2.45614699       1.33978821       0.07620987
H       -1.56253933      -0.15865352      -1.56713092
H       -3.37476140       0.02590447      -0.82181672
H        1.59500119       1.29509378       0.31675755
H        2.28185557       0.31357831       1.61157890
H        2.96212997       0.19682199      -0.02445307
12
Frame=13 idx=003722 GeodesicLength=0.7187793787753924 rxn_smarts="[C:1]([C:2]#[C:3][C:4](=[O:5])[C:6]([H:10])([H:11])[H:12])([H:7])([H:8])[H:9]>>[C:1](=[C:2]([C+:3]=[C:4]([O-:5])[C:6]([H:10])([H:11])[H:12])[H:8])([H:7])[H:9]"
C       -2.41127881       0.42051585      -0.50635785
C       -1.35667056      -0.45496931      -0.28417529
C       -0.29852070      -0.58936273       0.44513941
C        1.10897359      -0.81085011       0.24416621
O        1.48543447      -1.92832043      -0.04960174
C        2.04365878       0.32800591       0.54603665
H       -2.44258166       1.32190757       0.09746790
H       -1.58435685      -0.12563760      -1.59557622
H       -3.37968093       0.02600517      -0.79763381
H        1.60096982       1.29245078       0.29150525
H        2.26265963       0.33395289       1.61562515
H        2.97139324       0.18630202      -0.00659566
12
Frame=14 idx=003722 GeodesicLength=0.7738349838384491 rxn_smarts="[C:1]([C:2]#[C:3][C:4](=[O:5])[C:6]([H:10])([H:11])[H:12])([H:7])([H:8])[H:9]>>[C:1](=[C:2]([C+:3]=[C:4]([O-:5])[C:6]([H:10])([H:11])[H:12])[H:8])([H:7])[H:9]"
C       -2.40607099       0.41734018      -0.50864143
C       -1.34948215      -0.46307596      -0.30842103
C       -0.29895797      -0.59346072       0.43439845
C        1.11158366      -0.81218796       0.24771082
O        1.48871968      -1.93279962      -0.03263079
C        2.04362280       0.32882994       0.54670019
H       -2.42676209       1.30580905       0.11465910
H       -1.60944348      -0.09527340      -1.62328036
H       -3.38410792       0.02525589      -0.77086340
H        1.60713078       1.28961677       0.26856039
H        2.24355838       0.35305955       1.61974679
H        2.98020929       0.17688627       0.01206128
12
Frame=15 idx=003722 GeodesicLength=0.8289074040523355 rxn_smarts="[C:1]([C:2]#[C:3][C:4](=[O:5])[C:6]([H:10])([H:11])[H:12])([H:7])([H:8])[H:9]>>[C:1](=[C:2]([C+:3]=[C:4]([O-:5])[C:6]([H:10])([H:11])[H:12])[H:8])([H:7])[H:9]"
C       -2.40130700       0.41384952      -0.51101630
C       -1.34160232      -0.46966831      -0.33336252
C       -0.29926337      -0.59707383       0.42327636
C        1.11418348      -0.81325878       0.25114799
O        1.49157626      -1.93683287      -0.01639614
C        2.04394353       0.32948823       0.54785345
H       -2.41068813       1.29032000       0.12949830
H       -1.63706112      -0.06514125      -1.65043639
H       -3.38787240       0.02274402      -0.74253144
H        1.61436482       1.28647416       0.24666594
H        2.22464375       0.37153108       1.62376078
H        2.98908251       0.16756804       0.03153997
12
Frame=16 idx=003722 GeodesicLength=0.8839681031912203 rxn_smarts="[C:1]([C:2]#[C:3][C:4](=[O:5])[C:6]([H:10])([H:11])[H:12])([H:7])([H:8])[H:9]>>[C:1](=[C:2]([C+:3]=[C:4]([O-:5])[C:6]([H:10])([H:11])[H:12])[H:8])([H:7])[H:9]"
C       -2.39757341       0.40976938      -0.51323558
C       -1.33252540      -0.47386767      -0.35978516
C       -0.29935814      -0.59942727       0.41149035
C        1.11677174      -0.81411227       0.25483720
O        1.49356510      -1.94098946       0.00103012
C        2.04502257       0.32975399       0.54902490
H       -2.39685324       1.27366575       0.14431250
H       -1.66641091      -0.03201491      -1.67701430
H       -3.39069263       0.01725049      -0.71395263
H        1.62374760       1.28262717       0.22389463
H        2.20570069       0.39040715       1.62720070
H        2.99860603       0.15693764       0.05219727
