12
Frame=0 idx=001660 GeodesicLength=0.0 rxn_smarts="[O:1]([N:2]=[C:3]1[C:4]([H:8])([H:9])[N:5]([H:10])[C:6]1([H:11])[H:12])[H:7]>>[O:1]([N:2]([C:3]1=[C:6]([H:12])[N:5]([H:10])[C:4]1([H:8])[H:9])[H:11])[H:7]"
O        1.87877895      -0.80023568       1.28241270
N        1.66996836       0.22692807       0.35609637
C        0.34602210       0.03578646      -0.09012608
C       -0.69367215       1.08383202      -0.51344823
N       -1.72397318       0.08331794      -0.16778774
C       -0.71516717      -0.81577379       0.22793278
H        2.83407808      -0.82114450       1.37768739
H       -0.68648553       1.40234096      -1.55606730
H       -0.71725154       1.94510778       0.15008842
H       -2.37982784      -0.20041773      -0.88523176
H        1.01966085      -0.38640187      -0.93002181
H       -0.83213088      -1.75333967       0.74846528
12
Frame=1 idx=001660 GeodesicLength=0.1008015040406574 rxn_smarts="[O:1]([N:2]=[C:3]1[C:4]([H:8])([H:9])[N:5]([H:10])[C:6]1([H:11])[H:12])[H:7]>>[O:1]([N:2]([C:3]1=[C:6]([H:12])[N:5]([H:10])[C:4]1([H:8])[H:9])[H:11])[H:7]"
O        1.88788013      -0.80727950       1.27150864
N        1.67489956       0.21004941       0.33481603
C        0.34227758       0.05071479      -0.07369296
C       -0.69758964       1.09075502      -0.50481819
N       -1.72529398       0.08209124      -0.17099336
C       -0.71082078      -0.82487417       0.20507856
H        2.83989435      -0.79564860       1.39640855
H       -0.68258803       1.41170060      -1.54685615
H       -0.72987015       1.95116160       0.15977180
H       -2.37573601      -0.19344962      -0.89649163
H        1.00686960      -0.42949531      -0.92974252
H       -0.82992263      -1.74572544       0.75501124
12
Frame=2 idx=001660 GeodesicLength=0.20152464762312666 rxn_smarts="[O:1]([N:2]=[C:3]1[C:4]([H:8])([H:9])[N:5]([H:10])[C:6]1([H:11])[H:12])[H:7]>>[O:1]([N:2]([C:3]1=[C:6]([H:12])[N:5]([H:10])[C:4]1([H:8])[H:9])[H:11])[H:7]"
O        1.89772608      -0.81538448       1.25882386
N        1.67842404       0.19220482       0.31285014
C        0.33851904       0.06422537      -0.05721253
C       -0.70070393       1.09721719      -0.49577678
N       -1.72616925       0.08125800      -0.17363357
C       -0.70641618      -0.83287932       0.18392492
H        2.84358117      -0.76638190       1.41623334
H       -0.67807920       1.42037104      -1.53716754
H       -0.74119884       1.95692822       0.16954578
H       -2.37100616      -0.18628992      -0.90699884
H        0.99332198      -0.47281977      -0.92946579
H       -0.82799875      -1.73844925       0.75887700
12
Frame=3 idx=001660 GeodesicLength=0.30227845968844397 rxn_smarts="[O:1]([N:2]=[C:3]1[C:4]([H:8])([H:9])[N:5]([H:10])[C:6]1([H:11])[H:12])[H:7]>>[O:1]([N:2]([C:3]1=[C:6]([H:12])[N:5]([H:10])[C:4]1([H:8])[H:9])[H:11])[H:7]"
O        1.90824778      -0.82302949       1.24638820
N        1.68049209       0.17466224       0.29159863
C        0.33469880       0.07711918      -0.03974284
C       -0.70345570       1.10351621      -0.48664219
N       -1.72699633       0.08058499      -0.17639090
C       -0.70201796      -0.83966536       0.16509256
H        2.84605580      -0.73731441       1.43312633
H       -0.67269774       1.42847566      -1.52746351
H       -0.75258319       1.96295400       0.17873935
H       -2.36534247      -0.17968019      -0.91791987
H        0.97986283      -0.51591643      -0.92797013
H       -0.82626390      -1.73170638       0.76118436
12
Frame=4 idx=001660 GeodesicLength=0.40297083482718354 rxn_smarts="[O:1]([N:2]=[C:3]1[C:4]([H:8])([H:9])[N:5]([H:10])[C:6]1([H:11])[H:12])[H:7]>>[O:1]([N:2]([C:3]1=[C:6]([H:12])[N:5]([H:10])[C:4]1([H:8])[H:9])[H:11])[H:7]"
O        1.91966690      -0.83150296       1.23226057
N        1.68131242       0.15646615       0.26977709
C        0.33094544       0.08906858      -0.02186147
C       -0.70548831       1.10948323      -0.47717276
N       -1.72743220       0.08027789      -0.17864137
C       -0.69751366      -0.84556856       0.14773112
H        2.84585236      -0.70527305       1.45070558
H       -0.66670413       1.43595376      -1.51742862
H       -0.76293251       1.96886904       0.18788712
H       -2.35912568      -0.17288671      -0.92818264
H        0.96604760      -0.55920780      -0.92660420
H       -0.82462824      -1.72567958       0.76152959
12
Frame=5 idx=001660 GeodesicLength=0.5036675609808907 rxn_smarts="[O:1]([N:2]=[C:3]1[C:4]([H:8])([H:9])[N:5]([H:10])[C:6]1([H:11])[H:12])[H:7]>>[O:1]([N:2]([C:3]1=[C:6]([H:12])[N:5]([H:10])[C:4]1([H:8])[H:9])[H:11])[H:7]"
O        1.93157890      -0.83914393       1.21851658
N        1.68059308       0.13884304       0.24884329
C        0.32706173       0.10077915      -0.00263353
C       -0.70723735       1.11532062      -0.46758333
N       -1.72776449       0.08001486      -0.18121521
C       -0.69291272      -0.85053292       0.13215499
H        2.84454070      -0.67424822       1.46473747
H       -0.65976373       1.44291610      -1.50731387
H       -0.77366612       1.97501547       0.19652421
H       -2.35186147      -0.16665274      -0.93913442
H        0.95261901      -0.60231279      -0.92407940
H       -0.82318755      -1.71999864       0.76118323
12
Frame=6 idx=001660 GeodesicLength=0.6043551304956365 rxn_smarts="[O:1]([N:2]=[C:3]1[C:4]([H:8])([H:9])[N:5]([H:10])[C:6]1([H:11])[H:12])[H:7]>>[O:1]([N:2]([C:3]1=[C:6]([H:12])[N:5]([H:10])[C:4]1([H:8])[H:9])[H:11])[H:7]"
O        1.94420490      -0.84650286       1.20431872
N        1.67842885       0.12140754       0.22824680
C        0.32305606       0.11215430       0.01784991
C       -0.70861611       1.12100908      -0.45775467
N       -1.72793664       0.07983162      -0.18400238
C       -0.68819768      -0.85477413       0.11797395
H        2.84177783      -0.64301835       1.47665345
H       -0.65192291       1.44949054      -1.49695285
H       -0.78450362       1.98126086       0.20490678
H       -2.34369258      -0.16068673      -0.95058285
H        0.93941094      -0.64553728      -0.92093496
H       -0.82200904      -1.71463458       0.76027811
12
Frame=7 idx=001660 GeodesicLength=0.7050453323804827 rxn_smarts="[O:1]([N:2]=[C:3]1[C:4]([H:8])([H:9])[N:5]([H:10])[C:6]1([H:11])[H:12])[H:7]>>[O:1]([N:2]([C:3]1=[C:6]([H:12])[N:5]([H:10])[C:4]1([H:8])[H:9])[H:11])[H:7]"
O        1.95745458      -0.85336398       1.18974467
N        1.67469008       0.10426388       0.20807788
C        0.31884811       0.12332617       0.03980812
C       -0.70966130       1.12656358      -0.44766654
N       -1.72792781       0.07970214      -0.18708772
C       -0.68332292      -0.85834475       0.10504923
H        2.83777861      -0.61191482       1.48613570
H       -0.64311828       1.45567468      -1.48629863
H       -0.79561051       1.98761967       0.21301443
H       -2.33452822      -0.15498363      -0.96263856
H        0.92651290      -0.68903341      -0.91709944
H       -0.82111525      -1.70950955       0.75896086
12
Frame=8 idx=001660 GeodesicLength=0.8057438583125122 rxn_smarts="[O:1]([N:2]=[C:3]1[C:4]([H:8])([H:9])[N:5]([H:10])[C:6]1([H:11])[H:12])[H:7]>>[O:1]([N:2]([C:3]1=[C:6]([H:12])[N:5]([H:10])[C:4]1([H:8])[H:9])[H:11])[H:7]"
O        1.97112089      -0.85931130       1.17517383
N        1.66916341       0.08760522       0.18861382
C        0.31428786       0.13445415       0.06354200
C       -0.71045969       1.13201743      -0.43731287
N       -1.72777009       0.07958243      -0.19066579
C       -0.67828524      -0.86126456       0.09330296
H        2.83325808      -0.58160413       1.49239359
H       -0.63324706       1.46149593      -1.47531188
H       -0.80728180       1.99412527       0.22079019
H       -2.32422755      -0.14959190      -0.97559049
H        0.91405533      -0.73297152      -0.91230735
H       -0.82061412      -1.70453702       0.75737198
12
Frame=9 idx=001660 GeodesicLength=0.9064508496304823 rxn_smarts="[O:1]([N:2]=[C:3]1[C:4]([H:8])([H:9])[N:5]([H:10])[C:6]1([H:11])[H:12])[H:7]>>[O:1]([N:2]([C:3]1=[C:6]([H:12])[N:5]([H:10])[C:4]1([H:8])[H:9])[H:11])[H:7]"
O        1.98511523      -0.86418985       1.16064160
N        1.66168463       0.07140385       0.16986814
C        0.30926336       0.14557259       0.08920054
C       -0.71102946       1.13739255      -0.42664250
N       -1.72746750       0.07948065      -0.19482269
C       -0.67308559      -0.86357872       0.08260660
H        2.82863074      -0.55204625       1.49529922
H       -0.62225145       1.46702941      -1.46389325
H       -0.81959510       2.00076441       0.22827368
H       -2.31272889      -0.14442604      -0.98954952
H        0.90207803      -0.77768563      -0.90647973
H       -0.82061399      -1.69971696       0.75549789
12
Frame=10 idx=001660 GeodesicLength=1.0071649969538177 rxn_smarts="[O:1]([N:2]=[C:3]1[C:4]([H:8])([H:9])[N:5]([H:10])[C:6]1([H:11])[H:12])[H:7]>>[O:1]([N:2]([C:3]1=[C:6]([H:12])[N:5]([H:10])[C:4]1([H:8])[H:9])[H:11])[H:7]"
O        1.99930257      -0.86777006       1.14626454
N        1.65204466       0.05561031       0.15187976
C        0.30364587       0.15668977       0.11690834
C       -0.71138874       1.14271231      -0.41558733
N       -1.72702271       0.07940677      -0.19967644
C       -0.66773600      -0.86532269       0.07283422
H        2.82440409      -0.52317441       1.49458721
H       -0.61006620       1.47238294      -1.45190909
H       -0.83262393       2.00750546       0.23553941
H       -2.29993526      -0.13939079      -1.00467244
H        0.89062887      -0.82359963      -0.89945517
H       -0.82125322      -1.69505000       0.75328700
12
Frame=11 idx=001660 GeodesicLength=1.1078815775502098 rxn_smarts="[O:1]([N:2]=[C:3]1[C:4]([H:8])([H:9])[N:5]([H:10])[C:6]1([H:11])[H:12])[H:7]>>[O:1]([N:2]([C:3]1=[C:6]([H:12])[N:5]([H:10])[C:4]1([H:8])[H:9])[H:11])[H:7]"
O        2.01352469      -0.86978793       1.13219563
N        1.64001068       0.04012051       0.13468036
C        0.29730324       0.16777425       0.14673184
C       -0.71155087       1.14800217      -0.40405845
N       -1.72643351       0.07937793      -0.20536435
C       -0.66225836      -0.86653264       0.06384320
H        2.82111679      -0.49480468       1.48993623
H       -0.59663472       1.47771088      -1.43918720
H       -0.84640991       2.01429103       0.24271592
H       -2.28573029      -0.13436099      -1.02113728
H        0.87976001      -0.87124725      -0.89099899
H       -0.82269776      -1.69054328       0.75064309
12
Frame=12 idx=001660 GeodesicLength=1.2085996210483045 rxn_smarts="[O:1]([N:2]=[C:3]1[C:4]([H:8])([H:9])[N:5]([H:10])[C:6]1([H:11])[H:12])[H:7]>>[O:1]([N:2]([C:3]1=[C:6]([H:12])[N:5]([H:10])[C:4]1([H:8])[H:9])[H:11])[H:7]"
O        2.02768762      -0.87003961       1.11845304
N        1.62537343       0.02470909       0.11818092
C        0.29014789       0.17872394       0.17860707
C       -0.71149631       1.15328411      -0.39193508
N       -1.72566537       0.07943147      -0.21199068
C       -0.65666354      -0.86725841       0.05545075
H        2.81903552      -0.46642777       1.48121627
H       -0.58193699       1.48321852      -1.42550644
H       -0.86088343       2.02102584       0.25002212
H       -2.27000193      -0.12914733      -1.03905604
H        0.86950265      -0.92130920      -0.88086096
H       -0.82509954      -1.68621063       0.74741901
12
Frame=13 idx=001660 GeodesicLength=1.3093236742555368 rxn_smarts="[O:1]([N:2]=[C:3]1[C:4]([H:8])([H:9])[N:5]([H:10])[C:6]1([H:11])[H:12])[H:7]>>[O:1]([N:2]([C:3]1=[C:6]([H:12])[N:5]([H:10])[C:4]1([H:8])[H:9])[H:11])[H:7]"
O        2.04179535      -0.86836185       1.10494787
N        1.60797039       0.00904399       0.10219711
C        0.28215014       0.18937638       0.21234052
C       -0.71118848       1.15858656      -0.37907707
N       -1.72466795       0.07962149      -0.21964102
C       -0.65095447      -0.86756945       0.04743594
H        2.81816090      -0.43729511       1.46842798
H       -0.56599539       1.48917477      -1.41062006
H       -0.87589699       2.02759139       0.25775804
H       -2.25265542      -0.12350320      -1.05849755
H        0.85988083      -0.97459336      -0.86871535
H       -0.82859891      -1.68207160       0.74344360
12
Frame=14 idx=001660 GeodesicLength=1.4100743581194233 rxn_smarts="[O:1]([N:2]=[C:3]1[C:4]([H:8])([H:9])[N:5]([H:10])[C:6]1([H:11])[H:12])[H:7]>>[O:1]([N:2]([C:3]1=[C:6]([H:12])[N:5]([H:10])[C:4]1([H:8])[H:9])[H:11])[H:7]"
O        2.05564937      -0.86434518       1.09185196
N        1.58752680      -0.00709666       0.08678721
C        0.27320375       0.19960962       0.24777521
C       -0.71066653       1.16393478      -0.36532543
N       -1.72337510       0.07995626      -0.22860681
C       -0.64516004      -0.86750293       0.03961637
H        2.81897919      -0.40708696       1.45083080
H       -0.54878460       1.49589514      -1.39420860
H       -0.89150179       2.03381569       0.26629005
H       -2.23336034      -0.11727427      -1.07983398
H        0.85093550      -1.03191019      -0.85381527
H       -0.83344620      -1.67799530       0.73863848
12
Frame=15 idx=001660 GeodesicLength=1.5108522241631341 rxn_smarts="[O:1]([N:2]=[C:3]1[C:4]([H:8])([H:9])[N:5]([H:10])[C:6]1([H:11])[H:12])[H:7]>>[O:1]([N:2]([C:3]1=[C:6]([H:12])[N:5]([H:10])[C:4]1([H:8])[H:9])[H:11])[H:7]"
O        2.06940698      -0.85788622       1.07880873
N        1.56401391      -0.02425534       0.07161381
C        0.26344725       0.20914835       0.28437830
C       -0.70983180       1.16932811      -0.35051952
N       -1.72164684       0.08052579      -0.23889448
C       -0.63925136      -0.86715957       0.03162675
H        2.82080295      -0.37461917       1.42870225
H       -0.53045160       1.50367415      -1.37597863
H       -0.90730909       2.03949799       0.27605722
H       -2.21207071      -0.11010967      -1.10293841
H        0.84259831      -1.09417530      -0.83554385
H       -0.83970800      -1.67396912       0.73268783
12
Frame=16 idx=001660 GeodesicLength=1.6116869190446994 rxn_smarts="[O:1]([N:2]=[C:3]1[C:4]([H:8])([H:9])[N:5]([H:10])[C:6]1([H:11])[H:12])[H:7]>>[O:1]([N:2]([C:3]1=[C:6]([H:12])[N:5]([H:10])[C:4]1([H:8])[H:9])[H:11])[H:7]"
O        2.08311321      -0.84873170       1.06573871
N        1.53739044      -0.04271315       0.05671989
C        0.25289936       0.21780249       0.32176413
C       -0.70878091       1.17481613      -0.33455197
N       -1.71943168       0.08135722      -0.25079413
C       -0.63324165      -0.86664599       0.02322845
H        2.82377413      -0.33956413       1.40143078
H       -0.51107722       1.51292455      -1.35568225
H       -0.92341361       2.04447391       0.28746208
H       -2.18850941      -0.10178547      -1.12813132
H        0.83490294      -1.16204765      -0.81271885
H       -0.84762559      -1.66988619       0.72553449
