11
Frame=0 idx=000532 GeodesicLength=0.0 rxn_smarts="[O:1]=[C:2]1[C:3]([H:7])([H:8])[N:4]2[C:5]([H:9])([H:10])[C@@:6]12[H:11]>>[C-:3]([N+:4]1=[C:6]([H:11])[C:5]1([H:9])[H:10])([H:7])[H:8].[O+:1]#[C-:2]"
O       -1.48059479       1.84234775       1.52859303
C       -0.96936308       1.33965264       0.62949162
C       -0.95646352      -0.91805563      -0.77394435
N        0.16708124      -0.70273822      -0.14048423
C        1.29016357       0.15933910      -0.38980982
C        0.53830027       0.09156186       0.88950824
H       -1.80095801      -1.29395564      -0.21172896
H       -0.93275960      -1.01303416      -1.85078753
H        1.08051438       1.02994214      -1.01656898
H        2.23726230      -0.34261786      -0.55402762
H        0.82681723      -0.19244201       1.88975856
11
Frame=1 idx=000532 GeodesicLength=0.0477929912551519 rxn_smarts="[O:1]=[C:2]1[C:3]([H:7])([H:8])[N:4]2[C:5]([H:9])([H:10])[C@@:6]12[H:11]>>[C-:3]([N+:4]1=[C:6]([H:11])[C:5]1([H:9])[H:10])([H:7])[H:8].[O+:1]#[C-:2]"
O       -1.50476950       1.83259619       1.50717487
C       -0.97573650       1.32697715       0.61955076
C       -0.96297540      -0.89552273      -0.76271296
N        0.17584135      -0.71307846      -0.13681574
C        1.29474761       0.15396126      -0.39030711
C        0.54482956       0.09170795       0.89037814
H       -1.79418511      -1.30468570      -0.20343424
H       -0.94887805      -0.97433661      -1.84133947
H        1.08830938       1.02180938      -1.02121006
H        2.24253244      -0.34839296      -0.55039689
H        0.84028422      -0.19103546       1.88911271
11
Frame=2 idx=000532 GeodesicLength=0.09565747921788523 rxn_smarts="[O:1]=[C:2]1[C:3]([H:7])([H:8])[N:4]2[C:5]([H:9])([H:10])[C@@:6]12[H:11]>>[C-:3]([N+:4]1=[C:6]([H:11])[C:5]1([H:9])[H:10])([H:7])[H:8].[O+:1]#[C-:2]"
O       -1.52851148       1.82279952       1.48633394
C       -0.98183439       1.31471566       0.61031105
C       -0.96897196      -0.87409328      -0.75110100
N        0.18408059      -0.72302639      -0.13320649
C        1.29899857       0.14876420      -0.39091851
C        0.55122071       0.09193540       0.89126785
H       -1.78814624      -1.31401370      -0.19677777
H       -0.96379107      -0.93715476      -1.83120445
H        1.09565841       1.01377858      -1.02600257
H        2.24742744      -0.35398575      -0.54704758
H        0.85386943      -0.18971947       1.88834552
11
Frame=3 idx=000532 GeodesicLength=0.14346409816924566 rxn_smarts="[O:1]=[C:2]1[C:3]([H:7])([H:8])[N:4]2[C:5]([H:9])([H:10])[C@@:6]12[H:11]>>[C-:3]([N+:4]1=[C:6]([H:11])[C:5]1([H:9])[H:10])([H:7])[H:8].[O+:1]#[C-:2]"
O       -1.55184827       1.81315541       1.46589576
C       -0.98772446       1.30279612       0.60178695
C       -0.97440464      -0.85365901      -0.73919192
N        0.19190909      -0.73260998      -0.12975716
C        1.30287332       0.14375166      -0.39161178
C        0.55742265       0.09214271       0.89210806
H       -1.78252096      -1.32185179      -0.19135905
H       -0.97751392      -0.90149744      -1.82040093
H        1.10248640       1.00590306      -1.03080685
H        2.25189254      -0.35939181      -0.54395843
H        0.86742825      -0.18873893       1.88729537
11
Frame=4 idx=000532 GeodesicLength=0.1913664321524202 rxn_smarts="[O:1]=[C:2]1[C:3]([H:7])([H:8])[N:4]2[C:5]([H:9])([H:10])[C@@:6]12[H:11]>>[C-:3]([N+:4]1=[C:6]([H:11])[C:5]1([H:9])[H:10])([H:7])[H:8].[O+:1]#[C-:2]"
O       -1.57467798       1.80351156       1.44588330
C       -0.99348162       1.29116983       0.59385547
C       -0.97936652      -0.83400661      -0.72703840
N        0.19931899      -0.74183491      -0.12631450
C        1.30639730       0.13886390      -0.39235987
C        0.56349135       0.09240823       0.89291324
H       -1.77743308      -1.32854856      -0.18721276
H       -0.99009137      -0.86711565      -1.80902244
H        1.10880274       0.99804487      -1.03564868
H        2.25598162      -0.36465553      -0.54107252
H        0.88105857      -0.18783715       1.88601714
11
Frame=5 idx=000532 GeodesicLength=0.2392190545426818 rxn_smarts="[O:1]=[C:2]1[C:3]([H:7])([H:8])[N:4]2[C:5]([H:9])([H:10])[C@@:6]12[H:11]>>[C-:3]([N+:4]1=[C:6]([H:11])[C:5]1([H:9])[H:10])([H:7])[H:8].[O+:1]#[C-:2]"
O       -1.59698006       1.79413625       1.42634429
C       -0.99908033       1.27986270       0.58656872
C       -0.98394189      -0.81520416      -0.71479760
N        0.20634736      -0.75078130      -0.12297619
C        1.30964208       0.13418647      -0.39317491
C        0.56940718       0.09269409       0.89376478
H       -1.77289986      -1.33423064      -0.18407021
H       -1.00164271      -0.83420370      -1.79735705
H        1.11473657       0.99038051      -1.04055437
H        2.25977364      -0.36967656      -0.53840897
H        0.89463803      -0.18716367       1.88466152
11
Frame=6 idx=000532 GeodesicLength=0.2870901255358638 rxn_smarts="[O:1]=[C:2]1[C:3]([H:7])([H:8])[N:4]2[C:5]([H:9])([H:10])[C@@:6]12[H:11]>>[C-:3]([N+:4]1=[C:6]([H:11])[C:5]1([H:9])[H:10])([H:7])[H:8].[O+:1]#[C-:2]"
O       -1.61890037       1.78491493       1.40712994
C       -1.00453769       1.26884638       0.57986417
C       -0.98812720      -0.79712039      -0.70245097
N        0.21304114      -0.75946541      -0.11969925
C        1.31261868       0.12965306      -0.39403759
C        0.57519093       0.09300014       0.89462809
H       -1.76881199      -1.33901715      -0.18179268
H       -1.01226876      -0.80243356      -1.78537404
H        1.12029684       0.98280800      -1.04549792
H        2.26327557      -0.37453305      -0.53593151
H        0.90822285      -0.18665295       1.88316176
11
Frame=7 idx=000532 GeodesicLength=0.3350140825318582 rxn_smarts="[O:1]=[C:2]1[C:3]([H:7])([H:8])[N:4]2[C:5]([H:9])([H:10])[C@@:6]12[H:11]>>[C-:3]([N+:4]1=[C:6]([H:11])[C:5]1([H:9])[H:10])([H:7])[H:8].[O+:1]#[C-:2]"
O       -1.64053768       1.77577261       1.38815222
C       -1.00982334       1.25813169       0.57369436
C       -0.99198118      -0.77968718      -0.69000704
N        0.21943289      -0.76789477      -0.11647056
C        1.31535879       0.12524439      -0.39493320
C        0.58086931       0.09333612       0.89550344
H       -1.76509535      -1.34301656      -0.18027569
H       -1.02209512      -0.77164053      -1.77310315
H        1.12552514       0.97530103      -1.05047418
H        2.26651208      -0.37926589      -0.53360718
H        0.92183446      -0.18628091       1.88152098
11
Frame=8 idx=000532 GeodesicLength=0.3829947755440852 rxn_smarts="[O:1]=[C:2]1[C:3]([H:7])([H:8])[N:4]2[C:5]([H:9])([H:10])[C@@:6]12[H:11]>>[C-:3]([N+:4]1=[C:6]([H:11])[C:5]1([H:9])[H:10])([H:7])[H:8].[O+:1]#[C-:2]"
O       -1.66190435       1.76678693       1.36934466
C       -1.01499545       1.24765967       0.56807328
C       -0.99550911      -0.76285729      -0.67750940
N        0.22554832      -0.77610927      -0.11329170
C        1.31787876       0.12095045      -0.39585534
C        0.58644307       0.09368117       0.89639752
H       -1.76171965      -1.34633383      -0.17939545
H       -1.03117558      -0.74171400      -1.76060560
H        1.13044496       0.96785916      -1.05547567
H        2.26950864      -0.38387256      -0.53142241
H        0.93548040      -0.18605044       1.87974009
11
Frame=9 idx=000532 GeodesicLength=0.4310586100436049 rxn_smarts="[O:1]=[C:2]1[C:3]([H:7])([H:8])[N:4]2[C:5]([H:9])([H:10])[C@@:6]12[H:11]>>[C-:3]([N+:4]1=[C:6]([H:11])[C:5]1([H:9])[H:10])([H:7])[H:8].[O+:1]#[C-:2]"
O       -1.68307376       1.75790838       1.35065956
C       -1.02001651       1.23750191       0.56294146
C       -0.99873919      -0.74657749      -0.66491932
N        0.23140610      -0.78413746      -0.11015016
C        1.32020052       0.11675587      -0.39680590
C        0.59193957       0.09405249       0.89732489
H       -1.75869665      -1.34916624      -0.17915701
H       -1.03957633      -0.71248373      -1.74786356
H        1.13508427       0.96046379      -1.06050957
H        2.27227695      -0.38839352      -0.52938120
H        0.94919503      -0.18592401       1.87786082
11
Frame=10 idx=000532 GeodesicLength=0.4791121430546124 rxn_smarts="[O:1]=[C:2]1[C:3]([H:7])([H:8])[N:4]2[C:5]([H:9])([H:10])[C@@:6]12[H:11]>>[C-:3]([N+:4]1=[C:6]([H:11])[C:5]1([H:9])[H:10])([H:7])[H:8].[O+:1]#[C-:2]"
O       -1.70414438       1.74907759       1.33203098
C       -1.02489489       1.22748768       0.55840626
C       -1.00169422      -0.73090123      -0.65233539
N        0.23705482      -0.79199313      -0.10698131
C        1.32231819       0.11262552      -0.39775952
C        0.59734039       0.09441542       0.89825872
H       -1.75580944      -1.35109026      -0.17944501
H       -1.04738031      -0.68398027      -1.73493577
H        1.13940401       0.95303465      -1.06558097
H        2.27484063      -0.39280364      -0.52744023
H        0.96296519      -0.18587233       1.87578225
11
Frame=11 idx=000532 GeodesicLength=0.5272305843624401 rxn_smarts="[O:1]=[C:2]1[C:3]([H:7])([H:8])[N:4]2[C:5]([H:9])([H:10])[C@@:6]12[H:11]>>[C-:3]([N+:4]1=[C:6]([H:11])[C:5]1([H:9])[H:10])([H:7])[H:8].[O+:1]#[C-:2]"
O       -1.72499829       1.74043353       1.31344584
C       -1.02966086       1.21774098       0.55436470
C       -1.00440744      -0.71569355      -0.63971333
N        0.24248308      -0.79969531      -0.10386370
C        1.32425780       0.10860235      -0.39872869
C        0.60267403       0.09477995       0.89924174
H       -1.75320801      -1.35264621      -0.18024965
H       -1.05459626      -0.65613810      -1.72183721
H        1.14346606       0.94568328      -1.07066182
H        2.27720541      -0.39711004      -0.52562939
H        0.97678448      -0.18595688       1.87363151
11
Frame=12 idx=000532 GeodesicLength=0.5754565317289546 rxn_smarts="[O:1]=[C:2]1[C:3]([H:7])([H:8])[N:4]2[C:5]([H:9])([H:10])[C@@:6]12[H:11]>>[C-:3]([N+:4]1=[C:6]([H:11])[C:5]1([H:9])[H:10])([H:7])[H:8].[O+:1]#[C-:2]"
O       -1.74562827       1.73193531       1.29486770
C       -1.03435382       1.20821435       0.55079356
C       -1.00688089      -0.70089053      -0.62703449
N        0.24770836      -0.80723491      -0.10078872
C        1.32601982       0.10467404      -0.39970444
C        0.60793213       0.09513845       0.90024730
H       -1.75085522      -1.35380266      -0.18152375
H       -1.06121638      -0.62892621      -1.70853886
H        1.14726924       0.93837348      -1.07571839
H        2.27937604      -0.40131089      -0.52395286
H        0.99062899      -0.18617042       1.87135297
11
Frame=13 idx=000532 GeodesicLength=0.6237100295273843 rxn_smarts="[O:1]=[C:2]1[C:3]([H:7])([H:8])[N:4]2[C:5]([H:9])([H:10])[C@@:6]12[H:11]>>[C-:3]([N+:4]1=[C:6]([H:11])[C:5]1([H:9])[H:10])([H:7])[H:8].[O+:1]#[C-:2]"
O       -1.76608009       1.72363682       1.27622800
C       -1.03894801       1.19878546       0.54779285
C       -1.00914117      -0.68653628      -0.61439804
N        0.25276138      -0.81463892      -0.09771917
C        1.32760544       0.10084254      -0.40066570
C        0.61312592       0.09545800       0.90128982
H       -1.74867415      -1.35437854      -0.18315963
H       -1.06731809      -0.60239329      -1.69516945
H        1.15078506       0.93111560      -1.08074108
H        2.28136760      -0.40536786      -0.52238063
H        1.00451612      -0.18652353       1.86892302
11
Frame=14 idx=000532 GeodesicLength=0.6720178497696898 rxn_smarts="[O:1]=[C:2]1[C:3]([H:7])([H:8])[N:4]2[C:5]([H:9])([H:10])[C@@:6]12[H:11]>>[C-:3]([N+:4]1=[C:6]([H:11])[C:5]1([H:9])[H:10])([H:7])[H:8].[O+:1]#[C-:2]"
O       -1.78632550       1.71556557       1.25753600
C       -1.04348412       1.18954524       0.54529081
C       -1.01120296      -0.67257676      -0.60174945
N        0.25764910      -0.82192747      -0.09468457
C        1.32903091       0.09711375      -0.40162935
C        0.61826137       0.09574488       0.90238850
H       -1.74669350      -1.35458737      -0.18519094
H       -1.07290549      -0.57647993      -1.68168655
H        1.15403883       0.92394030      -1.08574406
H        2.28319956      -0.40930338      -0.52094597
H        1.01843179      -0.18703484       1.86641559
11
Frame=15 idx=000532 GeodesicLength=0.7203704656211193 rxn_smarts="[O:1]=[C:2]1[C:3]([H:7])([H:8])[N:4]2[C:5]([H:9])([H:10])[C@@:6]12[H:11]>>[C-:3]([N+:4]1=[C:6]([H:11])[C:5]1([H:9])[H:10])([H:7])[H:8].[O+:1]#[C-:2]"
O       -1.80627622       1.70771040       1.23876157
C       -1.04787874       1.18051927       0.54326435
C       -1.01322272      -0.65905895      -0.58915842
N        0.26232818      -0.82913620      -0.09164942
C        1.33037258       0.09355930      -0.40258454
C        0.62341910       0.09602231       0.90364737
H       -1.74511363      -1.35463186      -0.18763055
H       -1.07818689      -0.55122118      -1.66828410
H        1.15714496       0.91695931      -1.09080085
H        2.28495070      -0.41302874      -0.51960813
H        1.03246267      -0.18769367       1.86404273
11
Frame=16 idx=000532 GeodesicLength=0.7687638449752725 rxn_smarts="[O:1]=[C:2]1[C:3]([H:7])([H:8])[N:4]2[C:5]([H:9])([H:10])[C@@:6]12[H:11]>>[C-:3]([N+:4]1=[C:6]([H:11])[C:5]1([H:9])[H:10])([H:7])[H:8].[O+:1]#[C-:2]"
O       -1.82601995       1.70021824       1.21971012
C       -1.05236205       1.17140896       0.54185601
C       -1.01478672      -0.64578201      -0.57645127
N        0.26697185      -0.83616459      -0.08874731
C        1.33135570       0.08999979      -0.40349545
C        0.62834287       0.09616006       0.90473276
H       -1.74310971      -1.35390529      -0.19028889
H       -1.08269373      -0.52650887      -1.65440820
H        1.15971208       0.90986692      -1.09552517
H        2.28631619      -0.41669465      -0.51844354
H        1.04627347      -0.18859856       1.86106093
