14
Frame=0 idx=007124 GeodesicLength=0.0 rxn_smarts="[N:1](=[C:2]1\[O:3][C:4]([H:9])([H:10])[C@@:5]2([H:11])[C:6]([H:12])([H:13])[C@@:7]12[H:14])\[H:8]>>[H:9][H:12].[N:1](=[c:2]1\[o:3][c:4]([H:10])[c:5]([H:11])[c:6]([H:13])[c:7]1[H:14])\[H:8]"
N        1.74414062      -1.80001711       0.47069236
C        0.99660421      -0.80821623       0.35266635
O        1.40220954       0.42603211      -0.11668760
C        0.38655183       1.31335146      -0.03814691
C       -0.84353808       0.75665311       0.34829459
C       -1.33367316      -0.44897469      -0.40114109
C       -0.46039643      -0.77920676       0.68838869
H        2.68010250      -1.62007362       0.11738961
H       -0.08365976       1.01504570      -1.90931470
H        0.70730775       2.33318951       0.13221594
H       -1.55322979       1.36753803       0.88869803
H       -0.52288580       0.32195339      -1.84051601
H       -2.37262700      -0.73937463      -0.26766993
H       -0.74690642      -1.33790024       1.57513070
14
Frame=1 idx=007124 GeodesicLength=0.07849157921189277 rxn_smarts="[N:1](=[C:2]1\[O:3][C:4]([H:9])([H:10])[C@@:5]2([H:11])[C:6]([H:12])([H:13])[C@@:7]12[H:14])\[H:8]>>[H:9][H:12].[N:1](=[c:2]1\[o:3][c:4]([H:10])[c:5]([H:11])[c:6]([H:13])[c:7]1[H:14])\[H:8]"
N        1.74810314      -1.80088736       0.46657287
C        0.99687194      -0.81080205       0.35037468
O        1.40306839       0.42641394      -0.10928202
C        0.38493511       1.31614845      -0.05074044
C       -0.84334151       0.76395689       0.35407677
C       -1.33663212      -0.43864246      -0.39537082
C       -0.45904330      -0.78787437       0.68315981
H        2.68929706      -1.60895605       0.13404423
H       -0.07861996       1.00874444      -1.90760528
H        0.70767999       2.33393780       0.12889222
H       -1.54976036       1.37978670       0.89277327
H       -0.53801718       0.30765667      -1.84006208
H       -2.37665291      -0.72496588      -0.26394538
H       -0.74788831      -1.36451672       1.55711216
14
Frame=2 idx=007124 GeodesicLength=0.15697161306036292 rxn_smarts="[N:1](=[C:2]1\[O:3][C:4]([H:9])([H:10])[C@@:5]2([H:11])[C:6]([H:12])([H:13])[C@@:7]12[H:14])\[H:8]>>[H:9][H:12].[N:1](=[c:2]1\[o:3][c:4]([H:10])[c:5]([H:11])[c:6]([H:13])[c:7]1[H:14])\[H:8]"
N        1.75224316      -1.80161038       0.46254890
C        0.99718948      -0.81336191       0.34814200
O        1.40380732       0.42689387      -0.10161529
C        0.38335157       1.31885949      -0.06317564
C       -0.84299929       0.77133014       0.35988677
C       -1.33947767      -0.42834733      -0.38936832
C       -0.45768429      -0.79667038       0.67776874
H        2.69808792      -1.59794746       0.15079046
H       -0.07351809       1.00272311      -1.90585663
H        0.70795638       2.33466827       0.12516698
H       -1.54619416       1.39220685       0.89663851
H       -0.55335873       0.29314788      -1.83933041
H       -2.38054303      -0.71057290      -0.25992021
H       -0.74886056      -1.39131925       1.53832414
14
Frame=3 idx=007124 GeodesicLength=0.23543186585834724 rxn_smarts="[N:1](=[C:2]1\[O:3][C:4]([H:9])([H:10])[C@@:5]2([H:11])[C:6]([H:12])([H:13])[C@@:7]12[H:14])\[H:8]>>[H:9][H:12].[N:1](=[c:2]1\[o:3][c:4]([H:10])[c:5]([H:11])[c:6]([H:13])[c:7]1[H:14])\[H:8]"
N        1.75657877      -1.80211915       0.45882845
C        0.99757104      -0.81583954       0.34612238
O        1.40442675       0.42750770      -0.09359046
C        0.38178945       1.32150394      -0.07540841
C       -0.84254853       0.77878339       0.36569254
C       -1.34215453      -0.41813506      -0.38313623
C       -0.45632332      -0.80556294       0.67227592
H        2.70632915      -1.58720153       0.16707684
H       -0.06824973       0.99698362      -1.90404871
H        0.70810893       2.33541561       0.12110467
H       -1.54262254       1.40480463       0.90019129
H       -0.56882183       0.27834928      -1.83829842
H       -2.38423696      -0.69628642      -0.25565022
H       -0.74984664      -1.41820352       1.51884035
14
Frame=4 idx=007124 GeodesicLength=0.3138662331501796 rxn_smarts="[N:1](=[C:2]1\[O:3][C:4]([H:9])([H:10])[C@@:5]2([H:11])[C:6]([H:12])([H:13])[C@@:7]12[H:14])\[H:8]>>[H:9][H:12].[N:1](=[c:2]1\[o:3][c:4]([H:10])[c:5]([H:11])[c:6]([H:13])[c:7]1[H:14])\[H:8]"
N        1.76111379      -1.80235521       0.45563408
C        0.99802584      -0.81817924       0.34448857
O        1.40492491       0.42829071      -0.08509492
C        0.38023868       1.32410017      -0.08739013
C       -0.84203448       0.78633091       0.37145808
C       -1.34461072      -0.40805186      -0.37668015
C       -0.45497013      -0.81451750       0.66675137
H        2.71390781      -1.57686422       0.18228446
H       -0.06269195       0.99152181      -1.90215806
H        0.70810888       2.33621248       0.11677899
H       -1.53914847       1.41759126       0.90331884
H       -0.58430752       0.26317293      -1.83694216
H       -2.38767973      -0.68219599      -0.25120304
H       -0.75087691      -1.44505625       1.49875407
14
Frame=5 idx=007124 GeodesicLength=0.392257521685635 rxn_smarts="[N:1](=[C:2]1\[O:3][C:4]([H:9])([H:10])[C@@:5]2([H:11])[C:6]([H:12])([H:13])[C@@:7]12[H:14])\[H:8]>>[H:9][H:12].[N:1](=[c:2]1\[o:3][c:4]([H:10])[c:5]([H:11])[c:6]([H:13])[c:7]1[H:14])\[H:8]"
N        1.76583290      -1.80226016       0.45319882
C        0.99856053      -0.82031024       0.34346706
O        1.40529541       0.42928688      -0.07597990
C        0.37868754       1.32666822      -0.09905985
C       -0.84151483       0.79399208       0.37714098
C       -1.34678434      -0.39814885      -0.37000962
C       -0.45363928      -0.82348881       0.66128828
H        2.72070923      -1.56709512       0.19565052
H       -0.05670407       0.98632803      -1.90015010
H        0.70791600       2.33709337       0.11227700
H       -1.53589712       1.43058207       0.90588769
H       -0.59966149       0.24748998      -1.83523362
H       -2.39080700      -0.66839637      -0.24667188
H       -0.75199348      -1.47174107       1.47819463
14
Frame=6 idx=007124 GeodesicLength=0.4706238263570719 rxn_smarts="[N:1](=[C:2]1\[O:3][C:4]([H:9])([H:10])[C@@:5]2([H:11])[C:6]([H:12])([H:13])[C@@:7]12[H:14])\[H:8]>>[H:9][H:12].[N:1](=[c:2]1\[o:3][c:4]([H:10])[c:5]([H:11])[c:6]([H:13])[c:7]1[H:14])\[H:8]"
N        1.77070224      -1.80193321       0.45134015
C        0.99913951      -0.82234062       0.34279900
O        1.40551636       0.43038934      -0.06649227
C        0.37717171       1.32915787      -0.11048582
C       -0.84095165       0.80176126       0.38276174
C       -1.34877192      -0.38837192      -0.36311250
C       -0.45232875      -0.83252968       0.65577512
H        2.72704192      -1.55763122       0.20803652
H       -0.05042698       0.98151961      -1.89807401
H        0.70765195       2.33798245       0.10757366
H       -1.53273909       1.44377572       0.90802762
H       -0.61514312       0.23138200      -1.83319748
H       -2.39372007      -0.65478201      -0.24194772
H       -0.75314210      -1.49837960       1.45699601
14
Frame=7 idx=007124 GeodesicLength=0.5489706086137798 rxn_smarts="[N:1](=[C:2]1\[O:3][C:4]([H:9])([H:10])[C@@:5]2([H:11])[C:6]([H:12])([H:13])[C@@:7]12[H:14])\[H:8]>>[H:9][H:12].[N:1](=[c:2]1\[o:3][c:4]([H:10])[c:5]([H:11])[c:6]([H:13])[c:7]1[H:14])\[H:8]"
N        1.77564742      -1.80157872       0.44944157
C        0.99972151      -0.82443627       0.34200567
O        1.40556387       0.43143565      -0.05707425
C        0.37573574       1.33149686      -0.12179849
C       -0.84025332       0.80961793       0.38836671
C       -1.35071531      -0.37863073      -0.35595661
C       -0.45101367      -0.84172529       0.65000782
H        2.73332368      -1.54802571       0.22124289
H       -0.04416063       0.97728114      -1.89602209
H        0.70749547       2.33875832       0.10259620
H       -1.52941941       1.45714680       0.90999766
H       -0.63117147       0.21499718      -1.83087607
H       -2.39655823      -0.64118796      -0.23681489
H       -0.75419566      -1.52514921       1.43488387
14
Frame=8 idx=007124 GeodesicLength=0.6272882581847777 rxn_smarts="[N:1](=[C:2]1\[O:3][C:4]([H:9])([H:10])[C@@:5]2([H:11])[C:6]([H:12])([H:13])[C@@:7]12[H:14])\[H:8]>>[H:9][H:12].[N:1](=[c:2]1\[o:3][c:4]([H:10])[c:5]([H:11])[c:6]([H:13])[c:7]1[H:14])\[H:8]"
N        1.78073272      -1.80096992       0.44828762
C        1.00033954      -0.82642375       0.34161550
O        1.40545214       0.43256858      -0.04731056
C        0.37434125       1.33375650      -0.13285111
C       -0.83954073       0.81759838       0.39387807
C       -1.35246043      -0.36903818      -0.34856829
C       -0.44972261      -0.85097738       0.64420543
H        2.73914592      -1.53875090       0.23325470
H       -0.03753335       0.97352074      -1.89391363
H        0.70730389       2.33953143       0.09750255
H       -1.52623349       1.47073060       0.91148345
H       -0.64737418       0.19809633      -1.82820519
H       -2.39916853      -0.62781900      -0.23149498
H       -0.75528214      -1.55182342       1.41211644
14
Frame=9 idx=007124 GeodesicLength=0.7055671098714411 rxn_smarts="[N:1](=[C:2]1\[O:3][C:4]([H:9])([H:10])[C@@:5]2([H:11])[C:6]([H:12])([H:13])[C@@:7]12[H:14])\[H:8]>>[H:9][H:12].[N:1](=[c:2]1\[o:3][c:4]([H:10])[c:5]([H:11])[c:6]([H:13])[c:7]1[H:14])\[H:8]"
N        1.78593437      -1.80006881       0.44808584
C        1.00099237      -0.82825116       0.34181932
O        1.40517563       0.43382038      -0.03707554
C        0.37298251       1.33595367      -0.14358852
C       -0.83887049       0.82572265       0.39925412
C       -1.35396211      -0.35963560      -0.34095848
C       -0.44847020      -0.86024962       0.63844804
H        2.74444013      -1.52992889       0.24340790
H       -0.03039185       0.97024616      -1.89172249
H        0.70704739       2.34032570       0.09237907
H       -1.52329430       1.48454002       0.91236675
H       -0.66364563       0.18056186      -1.82515672
H       -2.40150468      -0.61475446      -0.22607308
H       -0.75643314      -1.57828190       1.38881378
14
Frame=10 idx=007124 GeodesicLength=0.7838151574976361 rxn_smarts="[N:1](=[C:2]1\[O:3][C:4]([H:9])([H:10])[C@@:5]2([H:11])[C:6]([H:12])([H:13])[C@@:7]12[H:14])\[H:8]>>[H:9][H:12].[N:1](=[c:2]1\[o:3][c:4]([H:10])[c:5]([H:11])[c:6]([H:13])[c:7]1[H:14])\[H:8]"
N        1.79126659      -1.79880719       0.44917795
C        1.00166773      -0.82989874       0.34272587
O        1.40472739       0.43520406      -0.02628667
C        0.37166296       1.33809376      -0.15397899
C       -0.83828088       0.83400876       0.40447231
C       -1.35520814      -0.35043755      -0.33313131
C       -0.44727158      -0.86952470       0.63278105
H        2.74918647      -1.52162547       0.25115417
H       -0.02260565       0.96746898      -1.88943667
H        0.70672109       2.34115051       0.08727777
H       -1.52066575       1.49859837       0.91257126
H       -0.67996043       0.16230606      -1.82171075
H       -2.40355916      -0.60201137      -0.22058742
H       -0.75768063      -1.60452549       1.36497142
14
Frame=11 idx=007124 GeodesicLength=0.8620427129580013 rxn_smarts="[N:1](=[C:2]1\[O:3][C:4]([H:9])([H:10])[C@@:5]2([H:11])[C:6]([H:12])([H:13])[C@@:7]12[H:14])\[H:8]>>[H:9][H:12].[N:1](=[c:2]1\[o:3][c:4]([H:10])[c:5]([H:11])[c:6]([H:13])[c:7]1[H:14])\[H:8]"
N        1.79662591      -1.79758543       0.45016074
C        1.00232185      -0.83167463       0.34334675
O        1.40409447       0.43642776      -0.01584797
C        0.37044928       1.34006324      -0.16429871
C       -0.83756170       0.84240258       0.40963561
C       -1.35644918      -0.34127977      -0.32500606
C       -0.44604975      -0.87896811       0.62679633
H        2.75405403      -1.51303004       0.26030266
H       -0.01481699       0.96554585      -1.88726353
H        0.70664109       2.34179090       0.08201638
H       -1.51783242       1.51283774       0.91261556
H       -0.69715807       0.14365442      -1.81794638
H       -2.40557347      -0.58929649      -0.21457077
H       -0.75874506      -1.63088802       1.34005940
14
Frame=12 idx=007124 GeodesicLength=0.9402388208835691 rxn_smarts="[N:1](=[C:2]1\[O:3][C:4]([H:9])([H:10])[C@@:5]2([H:11])[C:6]([H:12])([H:13])[C@@:7]12[H:14])\[H:8]>>[H:9][H:12].[N:1](=[c:2]1\[o:3][c:4]([H:10])[c:5]([H:11])[c:6]([H:13])[c:7]1[H:14])\[H:8]"
N        1.80209818      -1.79596342       0.45270475
C        1.00298225      -0.83325544       0.34476161
O        1.40328345       0.43778317      -0.00481585
C        0.36928121       1.34198492      -0.17423867
C       -0.83697194       0.85098286       0.41459756
C       -1.35741840      -0.33235138      -0.31666179
C       -0.44488986      -0.88839388       0.62094498
H        2.75836375      -1.50501645       0.26659693
H       -0.00621080       0.96422203      -1.88500419
H        0.70650334       2.34246139       0.07687743
H       -1.51538202       1.52733944       0.91189391
H       -0.71444246       0.12413343      -1.81374617
H       -2.40729132      -0.57694432      -0.20851718
H       -0.75990539      -1.65698235       1.31460667
14
Frame=13 idx=007124 GeodesicLength=1.0184125943688822 rxn_smarts="[N:1](=[C:2]1\[O:3][C:4]([H:9])([H:10])[C@@:5]2([H:11])[C:6]([H:12])([H:13])[C@@:7]12[H:14])\[H:8]>>[H:9][H:12].[N:1](=[c:2]1\[o:3][c:4]([H:10])[c:5]([H:11])[c:6]([H:13])[c:7]1[H:14])\[H:8]"
N        1.80762739      -1.79419343       0.45592426
C        1.00362101      -0.83485248       0.34628240
O        1.40229090       0.43907163       0.00618495
C        0.36820103       1.34378650      -0.18398897
C       -0.83636889       0.85971433       0.41942434
C       -1.35828286      -0.32354405      -0.30803641
C       -0.44373538      -0.89791388       0.61494603
H        2.76254659      -1.49705083       0.27260326
H        0.00280347       0.96377037      -1.88281187
H        0.70652373       2.34301732       0.07174007
H       -1.51296468       1.54205724       0.91075391
H       -0.73242434       0.10393582      -1.80915276
H       -2.40887280      -0.56476239      -0.20209224
H       -0.76096517      -1.68303616       1.28822304
14
Frame=14 idx=007124 GeodesicLength=1.0965747644877268 rxn_smarts="[N:1](=[C:2]1\[O:3][C:4]([H:9])([H:10])[C@@:5]2([H:11])[C:6]([H:12])([H:13])[C@@:7]12[H:14])\[H:8]>>[H:9][H:12].[N:1](=[c:2]1\[o:3][c:4]([H:10])[c:5]([H:11])[c:6]([H:13])[c:7]1[H:14])\[H:8]"
N        1.81316009      -1.79260627       0.45861835
C        1.00422069      -0.83674244       0.34695560
O        1.40113253       0.44003437       0.01630243
C        0.36724720       1.34538261      -0.19381606
C       -0.83553878       0.86853761       0.42421359
C       -1.35924296      -0.31472394      -0.29903795
C       -0.44250414      -0.90767762       0.60840483
H        2.76712322      -1.48843998       0.28184017
H        0.01164795       0.96453723      -1.88091037
H        0.70696784       2.34327647       0.06642152
H       -1.51009316       1.55691552       0.90968368
H       -0.75193245       0.08334654      -1.80421828
H       -2.41050802      -0.55250457      -0.19482119
H       -0.76168001      -1.70933553       1.26036369
14
Frame=15 idx=007124 GeodesicLength=1.1747127481806174 rxn_smarts="[N:1](=[C:2]1\[O:3][C:4]([H:9])([H:10])[C@@:5]2([H:11])[C:6]([H:12])([H:13])[C@@:7]12[H:14])\[H:8]>>[H:9][H:12].[N:1](=[c:2]1\[o:3][c:4]([H:10])[c:5]([H:11])[c:6]([H:13])[c:7]1[H:14])\[H:8]"
N        1.81889016      -1.79004459       0.46515319
C        1.00481274      -0.83808800       0.34967427
O        1.39977622       0.44145276       0.02813660
C        0.36630563       1.34706214      -0.20288564
C       -0.83518161       0.87767316       0.42860768
C       -1.35967065      -0.30632246      -0.28990651
C       -0.44144135      -0.91721125       0.60253887
H        2.77043500      -1.48143025       0.28301601
H        0.02246641       0.96575291      -1.87869005
H        0.70704939       2.34379826       0.06160280
H       -1.50831423       1.57216489       0.90709178
H       -0.77076337       0.06118290      -1.79867034
H       -2.41160326      -0.54094486      -0.18805344
H       -0.76276107      -1.73504561       1.23238480
14
Frame=16 idx=007124 GeodesicLength=1.252838592009785 rxn_smarts="[N:1](=[C:2]1\[O:3][C:4]([H:9])([H:10])[C@@:5]2([H:11])[C:6]([H:12])([H:13])[C@@:7]12[H:14])\[H:8]>>[H:9][H:12].[N:1](=[c:2]1\[o:3][c:4]([H:10])[c:5]([H:11])[c:6]([H:13])[c:7]1[H:14])\[H:8]"
N        1.82471321      -1.78711829       0.47317865
C        1.00536537      -0.83938556       0.35270819
O        1.39823547       0.44286838       0.04014456
C        0.36545365       1.34866355      -0.21168516
C       -0.83491385       0.88701030       0.43278035
C       -1.35994245      -0.29809264      -0.28048890
C       -0.44038962      -0.92678816       0.59664319
H        2.77341474      -1.47477853       0.28263336
H        0.03416556       0.96801313      -1.87653430
H        0.70724873       2.34425042       0.05693688
H       -1.50674555       1.58766196       0.90386479
H       -0.79037608       0.03800249      -1.79262445
H       -2.41251219      -0.52964574      -0.18095238
H       -0.76371698      -1.76066131       1.20339524
