15
Frame=0 idx=009105 GeodesicLength=0.0 rxn_smarts="[C:1]1([H:8])([H:9])[C@:2]2([H:10])[O:3][C:4]([H:11])([H:12])[C:5]([H:13])([H:14])[O:6][C@:7]12[H:15]>>[C:1]1([H:8])([H:9])[C:2]([H:10])=[C:7]1[H:15].[C:5](=[O:6])([H:13])[H:14].[O:3]=[C:4]([H:11])[H:12]"
C       -1.58200518       0.04737607       0.92975118
C       -1.47100218      -0.16918625      -0.52840298
O       -0.14840294       1.01501234      -1.28988946
C        0.93901637       1.24616401      -0.71096760
C        1.74111652      -0.53219877       0.11276683
O        0.87510988      -1.29873967       0.59614068
C       -1.04584757      -1.16495059       0.27099847
H       -0.86274385       0.71583824       1.41044725
H       -2.55689014       0.03605883       1.41383890
H       -2.08889481      -0.05197446      -1.39788126
H        0.95197466       1.88876027       0.17757268
H        1.85271703       1.20524646      -1.30686228
H        2.22681469      -0.82162364      -0.82601788
H        2.30370515       0.11461658       0.79464538
H       -1.13466762      -2.23039942       0.35386004
15
Frame=1 idx=009105 GeodesicLength=0.06180832717114519 rxn_smarts="[C:1]1([H:8])([H:9])[C@:2]2([H:10])[O:3][C:4]([H:11])([H:12])[C:5]([H:13])([H:14])[O:6][C@:7]12[H:15]>>[C:1]1([H:8])([H:9])[C:2]([H:10])=[C:7]1[H:15].[C:5](=[O:6])([H:13])[H:14].[O:3]=[C:4]([H:11])[H:12]"
C       -1.59666085       0.04994445       0.92508941
C       -1.46070283      -0.17592389      -0.53095179
O       -0.13498978       1.00832534      -1.29411536
C        0.94098906       1.25454724      -0.69546994
C        1.74522746      -0.53361493       0.09511347
O        0.88364904      -1.27270244       0.63310985
C       -1.04441266      -1.16641988       0.28389360
H       -0.88561324       0.71755008       1.41800793
H       -2.57990590       0.03940508       1.39147434
H       -2.07278499      -0.07312559      -1.40668045
H        0.92953111       1.90133426       0.19038496
H        1.86804403       1.25102391      -1.27207049
H        2.17861424      -0.85431792      -0.85938019
H        2.37332741       0.08460580       0.74584074
H       -1.14431211      -2.23063149       0.37575393
15
Frame=2 idx=009105 GeodesicLength=0.12196926206162839 rxn_smarts="[C:1]1([H:8])([H:9])[C@:2]2([H:10])[O:3][C:4]([H:11])([H:12])[C:5]([H:13])([H:14])[O:6][C@:7]12[H:15]>>[C:1]1([H:8])([H:9])[C:2]([H:10])=[C:7]1[H:15].[C:5](=[O:6])([H:13])[H:14].[O:3]=[C:4]([H:11])[H:12]"
C       -1.60983704       0.05223874       0.92053314
C       -1.44981019      -0.18239494      -0.53308098
O       -0.12107206       1.00179198      -1.29851771
C        0.94306179       1.26287712      -0.68049493
C        1.74846653      -0.53469099       0.07812527
O        0.89296690      -1.24583198       0.66750011
C       -1.04240768      -1.16790588       0.29650569
H       -0.90693958       0.71867715       1.42553027
H       -2.60087154       0.04237267       1.36962075
H       -2.05637278      -0.09363573      -1.41448939
H        0.90675787       1.91506663       0.20107497
H        1.88238474       1.29458644      -1.23623949
H        2.13048951      -0.88522063      -0.88814709
H        2.43700780       0.05278150       0.69553264
H       -1.15382427      -2.23071209       0.39654676
15
Frame=3 idx=009105 GeodesicLength=0.18092328615185216 rxn_smarts="[C:1]1([H:8])([H:9])[C@:2]2([H:10])[O:3][C:4]([H:11])([H:12])[C:5]([H:13])([H:14])[O:6][C@:7]12[H:15]>>[C:1]1([H:8])([H:9])[C:2]([H:10])=[C:7]1[H:15].[C:5](=[O:6])([H:13])[H:14].[O:3]=[C:4]([H:11])[H:12]"
C       -1.62158146       0.05426852       0.91610834
C       -1.43840657      -0.18860973      -0.53484258
O       -0.10665111       0.99533861      -1.30319477
C        0.94517642       1.27118302      -0.66601303
C        1.75095333      -0.53545298       0.06174126
O        0.90301284      -1.21836183       0.69949909
C       -1.03989728      -1.16946090       0.30882137
H       -0.92672847       0.71921541       1.43307098
H       -2.61986468       0.04500521       1.34832439
H       -2.03981057      -0.11343785      -1.42137445
H        0.88346541       1.93003610       0.20957104
H        1.89585088       1.33621379      -1.19933145
H        2.08279192      -0.91461215      -0.91264128
H        2.49507204       0.01939058       0.64405723
H       -1.16338268      -2.23071580       0.41620387
15
Frame=4 idx=009105 GeodesicLength=0.2389082235881711 rxn_smarts="[C:1]1([H:8])([H:9])[C@:2]2([H:10])[O:3][C:4]([H:11])([H:12])[C:5]([H:13])([H:14])[O:6][C@:7]12[H:15]>>[C:1]1([H:8])([H:9])[C:2]([H:10])=[C:7]1[H:15].[C:5](=[O:6])([H:13])[H:14].[O:3]=[C:4]([H:11])[H:12]"
C       -1.63193465       0.05606657       0.91184501
C       -1.42652882      -0.19455190      -0.53626291
O       -0.09169412       0.98887023      -1.30821452
C        0.94726650       1.27945365      -0.65200478
C        1.75280668      -0.53593512       0.04586475
O        0.91374041      -1.19043453       0.72924970
C       -1.03689898      -1.17108905       0.32081735
H       -0.94501745       0.71917610       1.44067199
H       -2.63693298       0.04734358       1.32768225
H       -2.02315316      -0.13247002      -1.42737138
H        0.85944150       1.94620486       0.21579838
H        1.90851317       1.37605897      -1.16127335
H        2.03577765      -0.94272783      -0.93323073
H        2.54767533      -0.01531821       0.59177784
H       -1.17306108      -2.23064729       0.43465039
15
Frame=5 idx=009105 GeodesicLength=0.2959977721900288 rxn_smarts="[C:1]1([H:8])([H:9])[C@:2]2([H:10])[O:3][C:4]([H:11])([H:12])[C:5]([H:13])([H:14])[O:6][C@:7]12[H:15]>>[C:1]1([H:8])([H:9])[C:2]([H:10])=[C:7]1[H:15].[C:5](=[O:6])([H:13])[H:14].[O:3]=[C:4]([H:11])[H:12]"
C       -1.64092420       0.05764115       0.90772893
C       -1.41423537      -0.20020538      -0.53734256
O       -0.07622605       0.98230002      -1.31355001
C        0.94927126       1.28763732      -0.63842749
C        1.75414878      -0.53613598       0.03042182
O        0.92515018      -1.16215645       0.75683931
C       -1.03343516      -1.17275270       0.33247081
H       -0.96179692       0.71850451       1.44830864
H       -2.65212942       0.04941920       1.30768591
H       -2.00650374      -0.15068322      -1.43246334
H        0.83458403       1.96341598       0.21966979
H        1.92037982       1.41413566      -1.12199829
H        1.98964124      -0.96964476      -0.95021341
H        2.59502131      -0.05106576       0.53904007
H       -1.18294576      -2.23040959       0.45182983
15
Frame=6 idx=009105 GeodesicLength=0.352648517707886 rxn_smarts="[C:1]1([H:8])([H:9])[C@:2]2([H:10])[O:3][C:4]([H:11])([H:12])[C:5]([H:13])([H:14])[O:6][C@:7]12[H:15]>>[C:1]1([H:8])([H:9])[C:2]([H:10])=[C:7]1[H:15].[C:5](=[O:6])([H:13])[H:14].[O:3]=[C:4]([H:11])[H:12]"
C       -1.64862126       0.05900379       0.90382427
C       -1.40154410      -0.20563027      -0.53815124
O       -0.06018564       0.97566670      -1.31926792
C        0.95120896       1.29583355      -0.62525947
C        1.75504417      -0.53610330       0.01532616
O        0.93717205      -1.13366865       0.78246832
C       -1.02958427      -1.17455065       0.34381485
H       -0.97711590       0.71725080       1.45611999
H       -2.66557979       0.05127434       1.28839440
H       -1.98985945      -0.16814903      -1.43682586
H        0.80892588       1.98170973       0.22118685
H        1.93154520       1.45062483      -1.08146921
H        1.94441356      -0.99555629      -0.96399647
H        2.63738837      -0.08755543       0.48605016
H       -1.19320780      -2.23015011       0.46778519
15
Frame=7 idx=009105 GeodesicLength=0.40866050687296396 rxn_smarts="[C:1]1([H:8])([H:9])[C@:2]2([H:10])[O:3][C:4]([H:11])([H:12])[C:5]([H:13])([H:14])[O:6][C@:7]12[H:15]>>[C:1]1([H:8])([H:9])[C:2]([H:10])=[C:7]1[H:15].[C:5](=[O:6])([H:13])[H:14].[O:3]=[C:4]([H:11])[H:12]"
C       -1.65501517       0.06019727       0.90009597
C       -1.38843184      -0.21075197      -0.53865976
O       -0.04367552       0.96895924      -1.32524635
C        0.95288041       1.30397112      -0.61243835
C        1.75553832      -0.53591291       0.00056635
O        0.94984657      -1.10513939       0.80615809
C       -1.02525230      -1.17644225       0.35481130
H       -0.99102076       0.71535829       1.46402802
H       -2.67728137       0.05306332       1.26972866
H       -1.97320050      -0.18468976      -1.44037391
H        0.78232020       2.00094564       0.22018086
H        1.94178466       1.48538057      -1.03959323
H        1.90030175      -1.02055083      -0.97470074
H        2.67489605      -0.12462217       0.43301381
H       -1.20369049      -2.22976618       0.48242927
15
Frame=8 idx=009105 GeodesicLength=0.46434643734100106 rxn_smarts="[C:1]1([H:8])([H:9])[C@:2]2([H:10])[O:3][C:4]([H:11])([H:12])[C:5]([H:13])([H:14])[O:6][C@:7]12[H:15]>>[C:1]1([H:8])([H:9])[C:2]([H:10])=[C:7]1[H:15].[C:5](=[O:6])([H:13])[H:14].[O:3]=[C:4]([H:11])[H:12]"
C       -1.66014428       0.06117924       0.89659531
C       -1.37503005      -0.21564775      -0.53891214
O       -0.02663728       0.96208009      -1.33153454
C        0.95437826       1.31206960      -0.59997958
C        1.75570672      -0.53548977      -0.01395419
O        0.96305844      -1.07658800       0.82796403
C       -1.02062440      -1.17847443       0.36543438
H       -1.00341224       0.71280489       1.47211088
H       -2.68728812       0.05470385       1.25182309
H       -1.95669679      -0.20042523      -1.44321442
H        0.75499282       2.02103013       0.21659469
H        1.95125853       1.51847702      -0.99633504
H        1.85737310      -1.04463809      -0.98266689
H        2.70779032      -0.16181044       0.38032531
H       -1.21472503      -2.22927111       0.49574911
15
Frame=9 idx=009105 GeodesicLength=0.5199725266713942 rxn_smarts="[C:1]1([H:8])([H:9])[C@:2]2([H:10])[O:3][C:4]([H:11])([H:12])[C:5]([H:13])([H:14])[O:6][C@:7]12[H:15]>>[C:1]1([H:8])([H:9])[C:2]([H:10])=[C:7]1[H:15].[C:5](=[O:6])([H:13])[H:14].[O:3]=[C:4]([H:11])[H:12]"
C       -1.66412135       0.06202843       0.89331246
C       -1.36123737      -0.22033343      -0.53893097
O       -0.00910159       0.95520233      -1.33806381
C        0.95560347       1.32019761      -0.58779239
C        1.75560247      -0.53496553      -0.02836085
O        0.97687866      -1.04810885       0.84806243
C       -1.01563398      -1.18067107       0.37580185
H       -1.01451067       0.70965428       1.48041495
H       -2.69580342       0.05637456       1.23451734
H       -1.94011598      -0.21544024      -1.44547965
H        0.72686947       2.04184469       0.21048924
H        1.95985098       1.54997883      -0.95156661
H        1.81548948      -1.06793487      -0.98826394
H        2.73641446      -0.19914057       0.32791036
H       -1.22618463      -2.22868617       0.50794958
15
Frame=10 idx=009105 GeodesicLength=0.5756645624936436 rxn_smarts="[C:1]1([H:8])([H:9])[C@:2]2([H:10])[O:3][C:4]([H:11])([H:12])[C:5]([H:13])([H:14])[O:6][C@:7]12[H:15]>>[C:1]1([H:8])([H:9])[C:2]([H:10])=[C:7]1[H:15].[C:5](=[O:6])([H:13])[H:14].[O:3]=[C:4]([H:11])[H:12]"
C       -1.66700758       0.06271065       0.89035253
C       -1.34720026      -0.22480050      -0.53873466
O        0.00893567       0.94828332      -1.34488838
C        0.95655040       1.32836963      -0.57597244
C        1.75531592      -0.53434623      -0.04262203
O        0.99119904      -1.01995140       0.86644661
C       -1.01041875      -1.18314149       0.38583439
H       -1.02429898       0.70587529       1.48900973
H       -2.70290451       0.05807549       1.21805272
H       -1.92367988      -0.22958747      -1.44717227
H        0.69819894       2.06344785       0.20163333
H        1.96755469       1.57986780      -0.90543513
H        1.77505981      -1.09046060      -0.99164670
H        2.76094939      -0.23620745       0.27625458
H       -1.23825388      -2.22813488       0.51888772
15
Frame=11 idx=009105 GeodesicLength=0.6310318098625003 rxn_smarts="[C:1]1([H:8])([H:9])[C@:2]2([H:10])[O:3][C:4]([H:11])([H:12])[C:5]([H:13])([H:14])[O:6][C@:7]12[H:15]>>[C:1]1([H:8])([H:9])[C:2]([H:10])=[C:7]1[H:15].[C:5](=[O:6])([H:13])[H:14].[O:3]=[C:4]([H:11])[H:12]"
C       -1.66861372       0.06326423       0.88752136
C       -1.33286391      -0.22909422      -0.53831740
O        0.02729319       0.94117521      -1.35179142
C        0.95705550       1.33634326      -0.56433899
C        1.75474778      -0.53353883      -0.05677028
O        1.00609218      -0.99193434       0.88315009
C       -1.00488354      -1.18567408       0.39552772
H       -1.03255480       0.70138826       1.49768646
H       -2.70834642       0.05991599       1.20205312
H       -1.90735138      -0.24302506      -1.44826099
H        0.66900833       2.08520079       0.19011921
H        1.97403528       1.60792647      -0.85760221
H        1.73562813      -1.11198537      -0.99294342
H        2.78159570      -0.27279809       0.22537876
H       -1.25084232      -2.22716423       0.52858798
15
Frame=12 idx=009105 GeodesicLength=0.6868454636230097 rxn_smarts="[C:1]1([H:8])([H:9])[C@:2]2([H:10])[O:3][C:4]([H:11])([H:12])[C:5]([H:13])([H:14])[O:6][C@:7]12[H:15]>>[C:1]1([H:8])([H:9])[C:2]([H:10])=[C:7]1[H:15].[C:5](=[O:6])([H:13])[H:14].[O:3]=[C:4]([H:11])[H:12]"
C       -1.66931845       0.06369795       0.88507658
C       -1.31832431      -0.23321596      -0.53772764
O        0.04613355       0.93416078      -1.35898299
C        0.95721593       1.34443304      -0.55307869
C        1.75412118      -0.53273031      -0.07086542
O        1.02145011      -0.96446295       0.89834956
C       -0.99921931      -1.18859197       0.40496428
H       -1.03971459       0.69633141       1.50673431
H       -2.71267255       0.06195285       1.18691186
H       -1.89113009      -0.25563456      -1.44893002
H        0.63952330       2.10756253       0.17580712
H        1.97946609       1.63448231      -0.80836298
H        1.69775298      -1.13281547      -0.99251903
H        2.79882856      -0.30885116       0.17544843
H       -1.26411238      -2.22631850       0.53717463
15
Frame=13 idx=009105 GeodesicLength=0.7422876116703722 rxn_smarts="[C:1]1([H:8])([H:9])[C@:2]2([H:10])[O:3][C:4]([H:11])([H:12])[C:5]([H:13])([H:14])[O:6][C@:7]12[H:15]>>[C:1]1([H:8])([H:9])[C:2]([H:10])=[C:7]1[H:15].[C:5](=[O:6])([H:13])[H:14].[O:3]=[C:4]([H:11])[H:12]"
C       -1.66882390       0.06391707       0.88284229
C       -1.30370218      -0.23715494      -0.53694158
O        0.06514203       0.92691242      -1.36614304
C        0.95686594       1.35228766      -0.54207991
C        1.75322788      -0.53168149      -0.08478941
O        1.03717433      -0.93720699       0.91196315
C       -0.99338215      -1.19163971       0.41390590
H       -1.04534780       0.69056355       1.51581929
H       -2.71538661       0.06399411       1.17247066
H       -1.87530533      -0.26738944      -1.44901038
H        0.61026940       2.13003837       0.15857247
H        1.98343157       1.65903379      -0.75761472
H        1.66112749      -1.15263908      -0.99024577
H        2.81260400      -0.34396447       0.12695115
H       -1.27789467      -2.22507084       0.54429991
15
Frame=14 idx=009105 GeodesicLength=0.798112149782863 rxn_smarts="[C:1]1([H:8])([H:9])[C@:2]2([H:10])[O:3][C:4]([H:11])([H:12])[C:5]([H:13])([H:14])[O:6][C@:7]12[H:15]>>[C:1]1([H:8])([H:9])[C:2]([H:10])=[C:7]1[H:15].[C:5](=[O:6])([H:13])[H:14].[O:3]=[C:4]([H:11])[H:12]"
C       -1.66748021       0.06401750       0.88095880
C       -1.28898666      -0.24094883      -0.53600445
O        0.08447335       0.91973206      -1.37347819
C        0.95607044       1.36016375      -0.53144393
C        1.75231075      -0.53059402      -0.09866393
O        1.05331676      -0.91048650       0.92421255
C       -0.98747895      -1.19504121       0.42256766
H       -1.04989545       0.68423375       1.52517161
H       -2.71704655       0.06626040       1.15883232
H       -1.85971919      -0.27834285      -1.44871216
H        0.58119682       2.15275952       0.13849598
H        1.98600713       1.68201177      -0.70536976
H        1.62596846      -1.17167757      -0.98653363
H        2.82355780      -0.37829017       0.07965710
H       -1.29229451      -2.22379761       0.55031003
15
Frame=15 idx=009105 GeodesicLength=0.8543750236063177 rxn_smarts="[C:1]1([H:8])([H:9])[C@:2]2([H:10])[O:3][C:4]([H:11])([H:12])[C:5]([H:13])([H:14])[O:6][C@:7]12[H:15]>>[C:1]1([H:8])([H:9])[C:2]([H:10])=[C:7]1[H:15].[C:5](=[O:6])([H:13])[H:14].[O:3]=[C:4]([H:11])[H:12]"
C       -1.66524712       0.06404728       0.87931932
C       -1.27411879      -0.24470708      -0.53492811
O        0.10405357       0.91260357      -1.38091730
C        0.95475239       1.36801446      -0.52112017
C        1.75131613      -0.52943264      -0.11256803
O        1.06993123      -0.88419358       0.93513986
C       -0.98149229      -1.19875343       0.43101625
H       -1.05332655       0.67735807       1.53471229
H       -2.71763271       0.06890718       1.14573578
H       -1.84427945      -0.28871962      -1.44806263
H        0.55244845       2.17542951       0.11569919
H        1.98695288       1.70347420      -0.65119599
H        1.59204409      -1.18991439      -0.98151052
H        2.83193981      -0.41178832       0.03327590
H       -1.30734163      -2.22232522       0.55540416
15
Frame=16 idx=009105 GeodesicLength=0.9107172847323646 rxn_smarts="[C:1]1([H:8])([H:9])[C@:2]2([H:10])[O:3][C:4]([H:11])([H:12])[C:5]([H:13])([H:14])[O:6][C@:7]12[H:15]>>[C:1]1([H:8])([H:9])[C:2]([H:10])=[C:7]1[H:15].[C:5](=[O:6])([H:13])[H:14].[O:3]=[C:4]([H:11])[H:12]"
C       -1.66203370       0.06394649       0.87792889
C       -1.25908463      -0.24839686      -0.53373711
O        0.12370509       0.90545510      -1.38828930
C        0.95279274       1.37567620      -0.51106648
C        1.75002147      -0.52810471      -0.12646504
O        1.08676612      -0.85809614       0.94477055
C       -0.97536056      -1.20263026       0.43911544
H       -1.05560839       0.66996469       1.54434077
H       -2.71688693       0.07169735       1.13329488
H       -1.82890145      -0.29851275      -1.44710272
H        0.52462783       2.19802816       0.09011065
H        1.98586718       1.72294590      -0.59521688
H        1.55913012      -1.20714267      -0.97531646
H        2.83756823      -0.44439678      -0.01174920
H       -1.32260312      -2.22043372       0.55938203
