12
Frame=0 idx=005565 GeodesicLength=0.0 rxn_smarts="[C:1]1([H:7])([H:8])[O:2][C@:3]1([C@@:4]1([H:10])[C:5]([H:11])([H:12])[O:6]1)[H:9]>>[C:1]1([H:7])([H:8])[O:2][C@:3]1([C@@:4]([C:5][H:12])([O:6][H:11])[H:10])[H:9]"
C        1.52617168       0.69351028      -0.06444586
O        1.56530437      -0.18658294       1.04957199
C        0.79456945      -0.56763765      -0.07424139
C       -0.68384408      -0.62334654       0.15964064
C       -1.46506615       0.58717671       0.46895176
O       -1.49524265      -0.36462427      -1.00027247
H        0.97995004       1.61649617       0.09689400
H        2.45309863       0.76451189      -0.62547443
H        1.20132434      -1.40352989      -0.64082854
H       -1.01368429      -1.56153157       0.60173061
H       -1.45983988       0.73042872      -0.93399810
H       -2.40274146       0.31512913       0.96247178
12
Frame=1 idx=005565 GeodesicLength=0.04535827349445687 rxn_smarts="[C:1]1([H:7])([H:8])[O:2][C@:3]1([C@@:4]1([H:10])[C:5]([H:11])([H:12])[O:6]1)[H:9]>>[C:1]1([H:7])([H:8])[O:2][C@:3]1([C@@:4]([C:5][H:12])([O:6][H:11])[H:10])[H:9]"
C        1.52502577       0.69367632      -0.06411720
O        1.56769222      -0.18894779       1.04759634
C        0.79372512      -0.56784161      -0.07465316
C       -0.68373070      -0.62639941       0.16402366
C       -1.46915856       0.58324975       0.46301589
O       -1.49822849      -0.36678956      -0.99358837
H        0.97900578       1.61618562       0.10081124
H        2.45027245       0.76649054      -0.62770919
H        1.19921961      -1.40179122      -0.64502497
H       -1.01037271      -1.56405491       0.60963098
H       -1.44702762       0.74008819      -0.93949380
H       -2.40642286       0.31613410       0.95950860
12
Frame=2 idx=005565 GeodesicLength=0.09069039989480021 rxn_smarts="[C:1]1([H:7])([H:8])[O:2][C@:3]1([C@@:4]1([H:10])[C:5]([H:11])([H:12])[O:6]1)[H:9]>>[C:1]1([H:7])([H:8])[O:2][C@:3]1([C@@:4]([C:5][H:12])([O:6][H:11])[H:10])[H:9]"
C        1.52388571       0.69382890      -0.06379155
O        1.57005658      -0.19128165       1.04562621
C        0.79287039      -0.56803869      -0.07504406
C       -0.68361565      -0.62940034       0.16835771
C       -1.47320559       0.57930321       0.45704597
O       -1.50107253      -0.36893380      -0.98706531
H        0.97807364       1.61585294       0.10466638
H        2.44744990       0.76843075      -0.62991631
H        1.19709104      -1.40006203      -0.64913860
H       -1.00707107      -1.56650110       0.61745570
H       -1.43445337       0.74966290      -0.94473107
H       -2.41000905       0.31713892       0.95653493
12
Frame=3 idx=005565 GeodesicLength=0.13603267524140816 rxn_smarts="[C:1]1([H:7])([H:8])[O:2][C@:3]1([C@@:4]1([H:10])[C:5]([H:11])([H:12])[O:6]1)[H:9]>>[C:1]1([H:7])([H:8])[O:2][C@:3]1([C@@:4]([C:5][H:12])([O:6][H:11])[H:10])[H:9]"
C        1.52276287       0.69397614      -0.06347082
O        1.57241022      -0.19359317       1.04365696
C        0.79201237      -0.56823622      -0.07541707
C       -0.68350533      -0.63235989       0.17265108
C       -1.47722486       0.57533977       0.45104746
O       -1.50378586      -0.37108247      -0.98069602
H        0.97716233       1.61551603       0.10847488
H        2.44464459       0.77034506      -0.63211681
H        1.19495129      -1.39835636      -0.65318166
H       -1.00378685      -1.56888747       0.62522963
H       -1.42209569       0.75918958      -0.94971280
H       -2.41354507       0.31814900       0.95353517
12
Frame=4 idx=005565 GeodesicLength=0.1813759745016896 rxn_smarts="[C:1]1([H:7])([H:8])[O:2][C@:3]1([C@@:4]1([H:10])[C:5]([H:11])([H:12])[O:6]1)[H:9]>>[C:1]1([H:7])([H:8])[O:2][C@:3]1([C@@:4]([C:5][H:12])([O:6][H:11])[H:10])[H:9]"
C        1.52164954       0.69411522      -0.06314956
O        1.57476190      -0.19589864       1.04167922
C        0.79114730      -0.56843305      -0.07577770
C       -0.68339695      -0.63527795       0.17691196
C       -1.48121152       0.57135767       0.44500961
O       -1.50637908      -0.37326416      -0.97447008
H        0.97627061       1.61516622       0.11227100
H        2.44183625       0.77224267      -0.63431578
H        1.19278901      -1.39665977      -0.65717727
H       -1.00050778      -1.57119924       0.63298813
H       -1.40992812       0.76867677      -0.95445378
H       -2.41703115       0.31917428       0.95048426
12
Frame=5 idx=005565 GeodesicLength=0.22672469275682625 rxn_smarts="[C:1]1([H:7])([H:8])[O:2][C@:3]1([C@@:4]1([H:10])[C:5]([H:11])([H:12])[O:6]1)[H:9]>>[C:1]1([H:7])([H:8])[O:2][C@:3]1([C@@:4]([C:5][H:12])([O:6][H:11])[H:10])[H:9]"
C        1.52054475       0.69424703      -0.06282167
O        1.57712282      -0.19821384       1.03968515
C        0.79027462      -0.56862989      -0.07613095
C       -0.68329030      -0.63815587       0.18114746
C       -1.48516727       0.56735748       0.43892200
O       -1.50886344      -0.37550876      -0.96837846
H        0.97540318       1.61480191       0.11609121
H        2.43901316       0.77413382      -0.63652436
H        1.19059776      -1.39496439      -0.66114807
H       -0.99722626      -1.57342706       0.64076542
H       -1.39793132       0.77813462      -0.95896908
H       -2.42047770       0.32022495       0.94736135
12
Frame=6 idx=005565 GeodesicLength=0.2720819543234223 rxn_smarts="[C:1]1([H:7])([H:8])[O:2][C@:3]1([C@@:4]1([H:10])[C:5]([H:11])([H:12])[O:6]1)[H:9]>>[C:1]1([H:7])([H:8])[O:2][C@:3]1([C@@:4]([C:5][H:12])([O:6][H:11])[H:10])[H:9]"
C        1.51944588       0.69437066      -0.06248633
O        1.57949668      -0.20054641       1.03767002
C        0.78939341      -0.56882845      -0.07647849
C       -0.68318516      -0.64099562       0.18536302
C       -1.48909454       0.56333703       0.43278032
O       -1.51124602      -0.37783504      -0.96241618
H        0.97455841       1.61442155       0.11994762
H        2.43616802       0.77602511      -0.63874782
H        1.18837348      -1.39326747      -0.66510549
H       -0.99393598      -1.57556672       0.64858228
H       -1.38608328       0.78758193      -0.96325930
H       -2.42389090       0.32130342       0.94415035
12
Frame=7 idx=005565 GeodesicLength=0.3174400521225003 rxn_smarts="[C:1]1([H:7])([H:8])[O:2][C@:3]1([C@@:4]1([H:10])[C:5]([H:11])([H:12])[O:6]1)[H:9]>>[C:1]1([H:7])([H:8])[O:2][C@:3]1([C@@:4]([C:5][H:12])([O:6][H:11])[H:10])[H:9]"
C        1.51835083       0.69448387      -0.06214309
O        1.58188524      -0.20289928       1.03562984
C        0.78850359      -0.56902780      -0.07682265
C       -0.68307957      -0.64379745       0.18955989
C       -1.49299193       0.55929177       0.42658234
O       -1.51353331      -0.38025152      -0.95657592
H        0.97373226       1.61401903       0.12383836
H        2.43329480       0.77791622      -0.64098495
H        1.18611737      -1.39156648      -0.66904737
H       -0.99063175      -1.57761407       0.65644518
H       -1.37437348       0.79703927      -0.96732642
H       -2.42727406       0.32240643       0.94084479
12
Frame=8 idx=005565 GeodesicLength=0.36281187271790954 rxn_smarts="[C:1]1([H:7])([H:8])[O:2][C@:3]1([C@@:4]1([H:10])[C:5]([H:11])([H:12])[O:6]1)[H:9]>>[C:1]1([H:7])([H:8])[O:2][C@:3]1([C@@:4]([C:5][H:12])([O:6][H:11])[H:10])[H:9]"
C        1.51726132       0.69459039      -0.06179297
O        1.58429381      -0.20527860       1.03355999
C        0.78760452      -0.56922935      -0.07716820
C       -0.68297594      -0.64656514       0.19374441
C       -1.49686520       0.55521975       0.42032450
O       -1.51573454      -0.38278113      -0.95085433
H        0.97293085       1.61360014       0.12778184
H        2.43039492       0.77981618      -0.64324465
H        1.18382608      -1.38986442      -0.67298612
H       -0.98731328      -1.57956888       0.66437616
H       -1.36278168       0.80652340      -0.97117076
H       -2.43064087       0.32353766       0.93743012
12
Frame=9 idx=005565 GeodesicLength=0.4081874376667294 rxn_smarts="[C:1]1([H:7])([H:8])[O:2][C@:3]1([C@@:4]1([H:10])[C:5]([H:11])([H:12])[O:6]1)[H:9]>>[C:1]1([H:7])([H:8])[O:2][C@:3]1([C@@:4]([C:5][H:12])([O:6][H:11])[H:10])[H:9]"
C        1.51617259       0.69468753      -0.06143321
O        1.58672701      -0.20769033       1.03145501
C        0.78669389      -0.56943229      -0.07751531
C       -0.68287235      -0.64929848       0.19791958
C       -1.50071232       0.55111789       0.41400205
O       -1.51785366      -0.38543909      -0.94524285
H        0.97215317       1.61315824       0.13178987
H        2.42745634       0.78172524      -0.64552744
H        1.18149282      -1.38815067      -0.67693083
H       -0.98397248      -1.58142195       0.67238868
H       -1.35129464       0.81604439      -0.97479966
H       -2.43399038       0.32469953       0.93389411
12
Frame=10 idx=005565 GeodesicLength=0.45356881538741217 rxn_smarts="[C:1]1([H:7])([H:8])[O:2][C@:3]1([C@@:4]1([H:10])[C:5]([H:11])([H:12])[O:6]1)[H:9]>>[C:1]1([H:7])([H:8])[O:2][C@:3]1([C@@:4]([C:5][H:12])([O:6][H:11])[H:10])[H:9]"
C        1.51508631       0.69477680      -0.06106963
O        1.58917973      -0.21012882       1.02931596
C        0.78577324      -0.56963843      -0.07786558
C       -0.68277038      -0.65200083       0.20208436
C       -1.50453762       0.54698115       0.40761463
O       -1.51989878      -0.38822987      -0.93974203
H        0.97139923       1.61269813       0.13584913
H        2.42448699       0.78364162      -0.64783384
H        1.17912512      -1.38643548      -0.68087348
H       -0.98061009      -1.58317847       0.68048351
H       -1.33990368       0.82563071      -0.97819868
H       -2.43733008       0.32588350       0.93023565
12
Frame=11 idx=005565 GeodesicLength=0.49895608872617114 rxn_smarts="[C:1]1([H:7])([H:8])[O:2][C@:3]1([C@@:4]1([H:10])[C:5]([H:11])([H:12])[O:6]1)[H:9]>>[C:1]1([H:7])([H:8])[O:2][C@:3]1([C@@:4]([C:5][H:12])([O:6][H:11])[H:10])[H:9]"
C        1.51400163       0.69485692      -0.06070680
O        1.59164636      -0.21258530       1.02714384
C        0.78484182      -0.56984666      -0.07821873
C       -0.68266955      -0.65467320       0.20623520
C       -1.50834123       0.54280266       0.40116266
O       -1.52187649      -0.39115855      -0.93435028
H        0.97066818       1.61221798       0.13994415
H        2.42148909       0.78555899      -0.65016054
H        1.17672533      -1.38472273      -0.68480152
H       -0.97722404      -1.58483834       0.68865365
H       -1.32860384       0.83530897      -0.98135613
H       -2.44065725       0.32707926       0.92645451
12
Frame=12 idx=005565 GeodesicLength=0.5443519863566605 rxn_smarts="[C:1]1([H:7])([H:8])[O:2][C@:3]1([C@@:4]1([H:10])[C:5]([H:11])([H:12])[O:6]1)[H:9]>>[C:1]1([H:7])([H:8])[O:2][C@:3]1([C@@:4]([C:5][H:12])([O:6][H:11])[H:10])[H:9]"
C        1.51291707       0.69492756      -0.06034114
O        1.59413391      -0.21507172       1.02493207
C        0.78389862      -0.57005758      -0.07857833
C       -0.68256900      -0.65731596       0.21037744
C       -1.51212501       0.53858179       0.39463718
O       -1.52379239      -0.39424672      -0.92906015
H        0.96996041       1.61171489       0.14409496
H        2.41845560       0.78748458      -0.65251101
H        1.17428729      -1.38300589      -0.68873119
H       -0.97380832      -1.58639188       0.69692217
H       -1.31738119       0.84508737      -0.98427810
H       -2.44397699       0.32829357       0.92253612
12
Frame=13 idx=005565 GeodesicLength=0.5897521407399573 rxn_smarts="[C:1]1([H:7])([H:8])[O:2][C@:3]1([C@@:4]1([H:10])[C:5]([H:11])([H:12])[O:6]1)[H:9]>>[C:1]1([H:7])([H:8])[O:2][C@:3]1([C@@:4]([C:5][H:12])([O:6][H:11])[H:10])[H:9]"
C        1.51183346       0.69498915      -0.05997790
O        1.59663681      -0.21758099       1.02268176
C        0.78294412      -0.57027161      -0.07894544
C       -0.68246946      -0.65993135       0.21450895
C       -1.51589131       0.53431298       0.38803706
O       -1.52565228      -0.39749885      -0.92387161
H        0.96927534       1.61119079       0.14828650
H        2.41539328       0.78941443      -0.65488279
H        1.17181603      -1.38129221      -0.69265357
H       -0.97036335      -1.58784170       0.70528613
H       -1.30623095       0.85499102      -0.98695008
H       -2.44729170       0.32951835       0.91848098
12
Frame=14 idx=005565 GeodesicLength=0.6351554229368472 rxn_smarts="[C:1]1([H:7])([H:8])[O:2][C@:3]1([C@@:4]1([H:10])[C:5]([H:11])([H:12])[O:6]1)[H:9]>>[C:1]1([H:7])([H:8])[O:2][C@:3]1([C@@:4]([C:5][H:12])([O:6][H:11])[H:10])[H:9]"
C        1.51075073       0.69504113      -0.05962164
O        1.59914937      -0.22010613       1.02039407
C        0.78197795      -0.57048829      -0.07932059
C       -0.68237077      -0.66252066       0.21862683
C       -1.51964145       0.52999067       0.38136112
O       -1.52746226      -0.40092153      -0.91878278
H        0.96861219       1.61064579       0.15250445
H        2.41230686       0.79134348      -0.65727246
H        1.16931475      -1.37958668      -0.69655890
H       -0.96688793      -1.58918807       0.71374004
H       -1.29514965       0.86504444      -0.98935930
H       -2.45059980       0.33074585       0.91428916
12
Frame=15 idx=005565 GeodesicLength=0.6805588933975385 rxn_smarts="[C:1]1([H:7])([H:8])[O:2][C@:3]1([C@@:4]1([H:10])[C:5]([H:11])([H:12])[O:6]1)[H:9]>>[C:1]1([H:7])([H:8])[O:2][C@:3]1([C@@:4]([C:5][H:12])([O:6][H:11])[H:10])[H:9]"
C        1.50966926       0.69508349      -0.05927852
O        1.60166428      -0.22263845       1.01807091
C        0.78099990      -0.57070712      -0.07970481
C       -0.68227345      -0.66508589       0.22272758
C       -1.52337769       0.52560908       0.37460807
O       -1.52922821      -0.40452016      -0.91379294
H        0.96797096       1.61008192       0.15673133
H        2.40920432       0.79326621      -0.65967561
H        1.16678801      -1.37789638      -0.70043587
H       -0.96338274      -1.59043295       0.72227687
H       -1.28413446       0.87527316      -0.99149076
H       -2.45390019       0.33196709       0.90996375
12
Frame=16 idx=005565 GeodesicLength=0.7259595083024231 rxn_smarts="[C:1]1([H:7])([H:8])[O:2][C@:3]1([C@@:4]1([H:10])[C:5]([H:11])([H:12])[O:6]1)[H:9]>>[C:1]1([H:7])([H:8])[O:2][C@:3]1([C@@:4]([C:5][H:12])([O:6][H:11])[H:10])[H:9]"
C        1.50858891       0.69511595      -0.05895488
O        1.60417364      -0.22516887       1.01571430
C        0.78000964      -0.57092747      -0.08009907
C       -0.68217765      -0.66762893       0.22680748
C       -1.52710190       0.52116223       0.36777586
O       -1.53095538      -0.40830005      -0.90890148
H        0.96735120       1.60950095       0.16094870
H        2.40609317       0.79517615      -0.66208751
H        1.16424050      -1.37622844      -0.70427248
H       -0.95984795      -1.59157815       0.73088896
H       -1.27318343       0.88570328      -0.99332713
H       -2.45719073       0.33317337       0.90550724
