13
Frame=0 idx=001295 GeodesicLength=0.0 rxn_smarts="[N:1]([C:2](=[O:3])[C:4]([C:5]([O:6][H:13])([H:11])[H:12])([H:9])[H:10])([H:7])[H:8]>>[C:4]([C:5](=[O:6])[H:11])([H:9])([H:10])[H:12].[N:1]([C:2](=[O:3])[H:13])([H:7])[H:8]"
N       -1.73634940      -1.09144191      -0.50914932
C       -0.49511216      -0.65961034      -0.87199776
O       -0.19764292      -0.35159510      -2.00335603
C        0.14558216       1.10102063       0.46304725
C        1.47259127       0.53076509       0.53943136
O        1.49195317      -0.74151527       0.85098138
H       -1.85271831      -1.54471881       0.37959320
H       -2.39017549      -1.32239726      -1.24066411
H       -0.56233680       0.81409512       1.23264329
H       -0.03840869       2.03977879      -0.05359009
H        2.17031726       0.89660030      -0.22830424
H        1.61178557       1.22948041       1.45095405
H        0.38051428      -0.90046171      -0.00958904
13
Frame=1 idx=001295 GeodesicLength=0.10663803480857553 rxn_smarts="[N:1]([C:2](=[O:3])[C:4]([C:5]([O:6][H:13])([H:11])[H:12])([H:9])[H:10])([H:7])[H:8]>>[C:4]([C:5](=[O:6])[H:11])([H:9])([H:10])[H:12].[N:1]([C:2](=[O:3])[H:13])([H:7])[H:8]"
N       -1.73479416      -1.09889035      -0.51105889
C       -0.50085577      -0.64842274      -0.87434930
O       -0.21685067      -0.31377560      -2.00198782
C        0.14904111       1.10370165       0.46560372
C        1.47517617       0.52333419       0.54299446
O        1.48654527      -0.74559021       0.86784870
H       -1.83839582      -1.56426221       0.37326899
H       -2.39385389      -1.31941311      -1.24081863
H       -0.55752044       0.82944649       1.24138632
H       -0.02611917       2.03443301      -0.06817222
H        2.17206055       0.87467248      -0.23244420
H        1.59091446       1.26051184       1.44542919
H        0.39465236      -0.93574544      -0.00770033
13
Frame=2 idx=001295 GeodesicLength=0.2131262779522908 rxn_smarts="[N:1]([C:2](=[O:3])[C:4]([C:5]([O:6][H:13])([H:11])[H:12])([H:9])[H:10])([H:7])[H:8]>>[C:4]([C:5](=[O:6])[H:11])([H:9])([H:10])[H:12].[N:1]([C:2](=[O:3])[H:13])([H:7])[H:8]"
N       -1.73286074      -1.10682618      -0.51294661
C       -0.50690605      -0.63655971      -0.87665206
O       -0.23727700      -0.27570864      -2.00013337
C        0.15252100       1.10715173       0.46796461
C        1.47729350       0.51573710       0.54749386
O        1.47949666      -0.74999628       0.88448074
H       -1.82291716      -1.58396030       0.36687372
H       -2.39728665      -1.31777048      -1.24040962
H       -0.55305024       0.84614393       1.24956012
H       -0.01294983       2.02978427      -0.08255248
H        2.17373385       0.85202605      -0.23525177
H        1.57049927       1.29105091       1.43933917
H        0.40970339      -0.97107240      -0.00776632
13
Frame=3 idx=001295 GeodesicLength=0.31957390549672227 rxn_smarts="[N:1]([C:2](=[O:3])[C:4]([C:5]([O:6][H:13])([H:11])[H:12])([H:9])[H:10])([H:7])[H:8]>>[C:4]([C:5](=[O:6])[H:11])([H:9])([H:10])[H:12].[N:1]([C:2](=[O:3])[H:13])([H:7])[H:8]"
N       -1.73050608      -1.11520606      -0.51482685
C       -0.51325908      -0.62411819      -0.87884616
O       -0.25890282      -0.23749450      -1.99771894
C        0.15600571       1.11133181       0.47013703
C        1.47891049       0.50797444       0.55285867
O        1.47082902      -0.75474737       0.90076939
H       -1.80631386      -1.60375181       0.36035997
H       -2.40047004      -1.31725539      -1.23947374
H       -0.54887180       0.86416117       1.25720685
H        0.00102771       2.02572939      -0.09678737
H        2.17529077       0.82877436      -0.23672190
H        1.55053760       1.32113531       1.43270765
H        0.42572239      -1.00653315      -0.00966459
13
Frame=4 idx=001295 GeodesicLength=0.42610271276207035 rxn_smarts="[N:1]([C:2](=[O:3])[C:4]([C:5]([O:6][H:13])([H:11])[H:12])([H:9])[H:10])([H:7])[H:8]>>[C:4]([C:5](=[O:6])[H:11])([H:9])([H:10])[H:12].[N:1]([C:2](=[O:3])[H:13])([H:7])[H:8]"
N       -1.72771218      -1.12399893      -0.51672947
C       -0.51992390      -0.61116580      -0.88087790
O       -0.28168687      -0.19922292      -1.99467478
C        0.15949081       1.11621563       0.47213875
C        1.48000236       0.50004622       0.55901055
O        1.46058010      -0.75985936       0.91659787
H       -1.78864452      -1.62357895       0.35367694
H       -2.40339407      -1.31772053      -1.23806971
H       -0.54492732       0.88346726       1.26437196
H        0.01574820       2.02218246      -0.11091316
H        2.17669448       0.80503151      -0.23687571
H        1.53105164       1.35079731       1.42555400
H        0.44272126      -1.04219391      -0.01320933
13
Frame=5 idx=001295 GeodesicLength=0.5328532389493572 rxn_smarts="[N:1]([C:2](=[O:3])[C:4]([C:5]([O:6][H:13])([H:11])[H:12])([H:9])[H:10])([H:7])[H:8]>>[C:4]([C:5](=[O:6])[H:11])([H:9])([H:10])[H:12].[N:1]([C:2](=[O:3])[H:13])([H:7])[H:8]"
N       -1.72446321      -1.13317153      -0.51872203
C       -0.52691720      -0.59776195      -0.88268571
O       -0.30558994      -0.16096127      -1.99091313
C        0.16297334       1.12176787       0.47400007
C        1.48054812       0.49195284       0.56587142
O        1.44881218      -0.76533725       0.93187367
H       -1.76998098      -1.64337630       0.34674356
H       -2.40604213      -1.31903617      -1.23629447
H       -0.54113857       0.90401073       1.27111953
H        0.03112699       2.01904208      -0.12494590
H        2.17788642       0.78089576      -0.23577606
H        1.51209978       1.38010152       1.41785414
H        0.46068521      -1.07812634      -0.01812509
13
Frame=6 idx=001295 GeodesicLength=0.6397720827678497 rxn_smarts="[N:1]([C:2](=[O:3])[C:4]([C:5]([O:6][H:13])([H:11])[H:12])([H:9])[H:10])([H:7])[H:8]>>[C:4]([C:5](=[O:6])[H:11])([H:9])([H:10])[H:12].[N:1]([C:2](=[O:3])[H:13])([H:7])[H:8]"
N       -1.72077766      -1.14271243      -0.52086131
C       -0.53425304      -0.58394398      -0.88421643
O       -0.33051020      -0.12280876      -1.98637003
C        0.16646452       1.12798469       0.47575861
C        1.48053940       0.48370761       0.57337038
O        1.43558933      -0.77119135       0.94644500
H       -1.75043784      -1.66308532       0.33951306
H       -2.40840697      -1.32115045      -1.23424259
H       -0.53743357       0.92574543       1.27750851
H        0.04709417       2.01624780      -0.13888603
H        2.17882570       0.75648825      -0.23348178
H        1.49374975       1.40905739       1.40961487
H        0.47955642      -1.11433888      -0.02415224
13
Frame=7 idx=001295 GeodesicLength=0.7468627196070567 rxn_smarts="[N:1]([C:2](=[O:3])[C:4]([C:5]([O:6][H:13])([H:11])[H:12])([H:9])[H:10])([H:7])[H:8]>>[C:4]([C:5](=[O:6])[H:11])([H:9])([H:10])[H:12].[N:1]([C:2](=[O:3])[H:13])([H:7])[H:8]"
N       -1.71667141      -1.15259345      -0.52324377
C       -0.54195223      -0.56974511      -0.88540620
O       -0.35634717      -0.08483045      -1.98096419
C        0.16997037       1.13483709       0.47746979
C        1.47997044       0.47532918       0.58142370
O        1.42102094      -0.77740100       0.96023256
H       -1.73013542      -1.68265553       0.33189121
H       -2.41046903      -1.32398557      -1.23206268
H       -0.53371874       0.94859117       1.28363523
H        0.06354216       2.01370995      -0.15270505
H        2.17942480       0.73189485      -0.23012247
H        1.47610822       1.43773049       1.40076943
H        0.49925706      -1.15088164      -0.03091753
13
Frame=8 idx=001295 GeodesicLength=0.854162617156629 rxn_smarts="[N:1]([C:2](=[O:3])[C:4]([C:5]([O:6][H:13])([H:11])[H:12])([H:9])[H:10])([H:7])[H:8]>>[C:4]([C:5](=[O:6])[H:11])([H:9])([H:10])[H:12].[N:1]([C:2](=[O:3])[H:13])([H:7])[H:8]"
N       -1.71216367      -1.16280417      -0.52598415
C       -0.55005608      -0.55515837      -0.88621052
O       -0.38299287      -0.04706981      -1.97463698
C        0.17349709       1.14229755       0.47919746
C        1.47885290       0.46683412       0.58993271
O        1.40524433      -0.78395049       0.97317048
H       -1.70924507      -1.70197516       0.32380903
H       -2.41216999      -1.32754677      -1.22993284
H       -0.52989008       0.97244400       1.28961299
H        0.08034506       2.01136673      -0.16634173
H        2.17960578       0.70720330      -0.22587207
H        1.45928760       1.46618025       1.39125010
H        0.51968501      -1.18782117      -0.03799447
13
Frame=9 idx=001295 GeodesicLength=0.9611669854468434 rxn_smarts="[N:1]([C:2](=[O:3])[C:4]([C:5]([O:6][H:13])([H:11])[H:12])([H:9])[H:10])([H:7])[H:8]>>[C:4]([C:5](=[O:6])[H:11])([H:9])([H:10])[H:12].[N:1]([C:2](=[O:3])[H:13])([H:7])[H:8]"
N       -1.70730136      -1.17339293      -0.52918747
C       -0.55861369      -0.54016801      -0.88649295
O       -0.41015275      -0.00963552      -1.96729184
C        0.17709273       1.15040071       0.48104830
C        1.47717942       0.45830439       0.59885183
O        1.38835523      -0.79069427       0.98524689
H       -1.68796113      -1.72115398       0.31516080
H       -2.41353592      -1.33178401      -1.22803115
H       -0.52580862       0.99726496       1.29558699
H        0.09740726       2.00918817      -0.17973004
H        2.17917359       0.68241059      -0.22097710
H        1.44342798       1.49436519       1.38094756
H        0.54073727      -1.22510530      -0.04513183
13
Frame=10 idx=001295 GeodesicLength=1.0683758802580956 rxn_smarts="[N:1]([C:2](=[O:3])[C:4]([C:5]([O:6][H:13])([H:11])[H:12])([H:9])[H:10])([H:7])[H:8]>>[C:4]([C:5](=[O:6])[H:11])([H:9])([H:10])[H:12].[N:1]([C:2](=[O:3])[H:13])([H:7])[H:8]"
N       -1.70203604      -1.18431744      -0.53300299
C       -0.56766180      -0.52477026      -0.88629488
O       -0.43793191       0.02756070      -1.95894910
C        0.18073253       1.15904394       0.48303443
C        1.47499320       0.44970476       0.60802543
O        1.37054410      -0.79768456       0.99642916
H       -1.66637149      -1.73994215       0.30591510
H       -2.41447445      -1.33668283      -1.22653369
H       -0.52138621       1.02289241       1.30164248
H        0.11456533       2.00708096      -0.19280915
H        2.17813550       0.65762736      -0.21557502
H        1.42856083       1.52245821       1.36982338
H        0.56233041      -1.26297110      -0.05170512
13
Frame=11 idx=001295 GeodesicLength=1.1757786800375747 rxn_smarts="[N:1]([C:2](=[O:3])[C:4]([C:5]([O:6][H:13])([H:11])[H:12])([H:9])[H:10])([H:7])[H:8]>>[C:4]([C:5](=[O:6])[H:11])([H:9])([H:10])[H:12].[N:1]([C:2](=[O:3])[H:13])([H:7])[H:8]"
N       -1.69635537      -1.19558876      -0.53756617
C       -0.57729088      -0.50889286      -0.88556477
O       -0.46629628       0.06458286      -1.94957663
C        0.18443296       1.16820821       0.48521039
C        1.47230056       0.44104498       0.61735532
O        1.35190984      -0.80486197       1.00674300
H       -1.64456674      -1.75827243       0.29603993
H       -2.41490539      -1.34230032      -1.22564364
H       -0.51650172       1.04926568       1.30789337
H        0.13171827       2.00501053      -0.20551815
H        2.17638574       0.63285058      -0.20986041
H        1.41477192       1.55050986       1.35780355
H        0.58439709      -1.30155636      -0.05731578
13
Frame=12 idx=001295 GeodesicLength=1.2833405162762914 rxn_smarts="[N:1]([C:2](=[O:3])[C:4]([C:5]([O:6][H:13])([H:11])[H:12])([H:9])[H:10])([H:7])[H:8]>>[C:4]([C:5](=[O:6])[H:11])([H:9])([H:10])[H:12].[N:1]([C:2](=[O:3])[H:13])([H:7])[H:8]"
N       -1.69023742      -1.20723937      -0.54301338
C       -0.58759541      -0.49245125      -0.88426294
O       -0.49532406       0.10156568      -1.93913492
C        0.18823056       1.17788799       0.48761643
C        1.46912228       0.43232157       0.62675557
O        1.33253715      -0.81217897       1.01623596
H       -1.62265447      -1.77604400       0.28552538
H       -2.41470473      -1.34879229      -1.22558560
H       -0.51104309       1.07634059       1.31443028
H        0.14879136       2.00297926      -0.21780619
H        2.17385431       0.60806491      -0.20401405
H        1.40214627       1.57855387       1.34483383
H        0.60687724      -1.34100800      -0.06158037
13
Frame=13 idx=001295 GeodesicLength=1.390997211534701 rxn_smarts="[N:1]([C:2](=[O:3])[C:4]([C:5]([O:6][H:13])([H:11])[H:12])([H:9])[H:10])([H:7])[H:8]>>[C:4]([C:5](=[O:6])[H:11])([H:9])([H:10])[H:12].[N:1]([C:2](=[O:3])[H:13])([H:7])[H:8]"
N       -1.68363049      -1.21931613      -0.54949486
C       -0.59869778      -0.47535427      -0.88232065
O       -0.52510145       0.13862521      -1.92756206
C        0.19216365       1.18809488       0.49028609
C        1.46545891       0.42353946       0.63614498
O        1.31245360      -0.81957457       1.02493655
H       -1.60066347      -1.79322758       0.27434861
H       -2.41379675      -1.35624768      -1.22656023
H       -0.50488928       1.10412125       1.32132948
H        0.16573480       2.00096875      -0.22964776
H        2.17045575       0.58323872      -0.19818482
H        1.39075501       1.60661263       1.33087495
H        0.62975749      -1.38148068      -0.06415027
13
Frame=14 idx=001295 GeodesicLength=1.4987524227618325 rxn_smarts="[N:1]([C:2](=[O:3])[C:4]([C:5]([O:6][H:13])([H:11])[H:12])([H:9])[H:10])([H:7])[H:8]>>[C:4]([C:5](=[O:6])[H:11])([H:9])([H:10])[H:12].[N:1]([C:2](=[O:3])[H:13])([H:7])[H:8]"
N       -1.67644826      -1.23189327      -0.55717813
C       -0.61078950      -0.45743649      -0.87965685
O       -0.55587216       0.17598632      -1.91475939
C        0.19628883       1.19886330       0.49324360
C        1.46131337       0.41467149       0.64544299
O        1.29164352      -0.82700596       1.03294896
H       -1.57863895      -1.80971089       0.26252857
H       -2.41196303      -1.36494088      -1.22884665
H       -0.49791164       1.13264521       1.32866483
H        0.18253351       1.99902386      -0.24102077
H        2.16611440       0.55828014      -0.19253859
H        1.38069438       1.63468017       1.31587489
H        0.65303552      -1.42316299      -0.06470346
13
Frame=15 idx=001295 GeodesicLength=1.606555285846387 rxn_smarts="[N:1]([C:2](=[O:3])[C:4]([C:5]([O:6][H:13])([H:11])[H:12])([H:9])[H:10])([H:7])[H:8]>>[C:4]([C:5](=[O:6])[H:11])([H:9])([H:10])[H:12].[N:1]([C:2](=[O:3])[H:13])([H:7])[H:8]"
N       -1.66858804      -1.24504975      -0.56624247
C       -0.62408853      -0.43852379      -0.87615507
O       -0.58785967       0.21384551      -1.90061241
C        0.20066965       1.21024350       0.49651523
C        1.45667937       0.40569769       0.65455825
O        1.27006282      -0.83442611       1.04034865
H       -1.55660093      -1.82542704       0.25007100
H       -2.40899859      -1.37512551      -1.23273606
H       -0.48996084       1.16197639       1.33651403
H        0.19917483       1.99719260      -0.25190796
H        2.16073135       0.53309644      -0.18725447
H        1.37206791       1.66273862       1.29979922
H        0.67671068      -1.46623856      -0.06289793
13
Frame=16 idx=001295 GeodesicLength=1.714337223052225 rxn_smarts="[N:1]([C:2](=[O:3])[C:4]([C:5]([O:6][H:13])([H:11])[H:12])([H:9])[H:10])([H:7])[H:8]>>[C:4]([C:5](=[O:6])[H:11])([H:9])([H:10])[H:12].[N:1]([C:2](=[O:3])[H:13])([H:7])[H:8]"
N       -1.65990980      -1.25886447      -0.57689463
C       -0.63885616      -0.41844053      -0.87165161
O       -0.62138545       0.25242320      -1.88493444
C        0.20538613       1.22230162       0.50012308
C        1.45155216       0.39659410       0.66339557
O        1.24763793      -0.84179182       1.04720031
H       -1.53456492      -1.84031715       0.23696601
H       -2.40463085      -1.38708219      -1.23858517
H       -0.48085992       1.19221024       1.34495387
H        0.21565786       1.99552092      -0.26231213
H        2.15419517       0.50757195      -0.18251441
H        1.36499514       1.69076698       1.28260365
H        0.70078271      -1.51089286      -0.05835010
