9
Frame=0 idx=001641 GeodesicLength=0.0 rxn_smarts="[C:1](#[C:2][C@@:3]1([H:7])[C:4]([H:8])([H:9])[O:5]1)[H:6]>>[C:1](#[C:2][C:3](=[O+:5][C-:4]([H:8])[H:9])[H:7])[H:6]"
C        2.47130070      -0.41076338       0.43253550
C        1.37747064      -0.18490814      -0.01906090
C        0.10883573       0.06734646      -0.54818778
C       -1.84648514       0.32855024       0.17515583
O       -0.69073938       0.96846767       0.07343071
H        3.44216554      -0.60020534       0.82465656
H       -0.27065970      -0.38093558      -1.44971565
H       -1.84792248      -0.68624242       0.53740686
H       -2.74396587       0.89869052      -0.02622116
9
Frame=1 idx=001641 GeodesicLength=0.03237441370538998 rxn_smarts="[C:1](#[C:2][C@@:3]1([H:7])[C:4]([H:8])([H:9])[O:5]1)[H:6]>>[C:1](#[C:2][C:3](=[O+:5][C-:4]([H:8])[H:9])[H:7])[H:6]"
C        2.46763720      -0.40781472       0.43561116
C        1.36750447      -0.19882175      -0.00815360
C        0.10016470       0.06087647      -0.54081192
C       -1.83840460       0.32515557       0.16981060
O       -0.68758666       0.97641675       0.07463516
H        3.44498331      -0.59451801       0.81279066
H       -0.26455750      -0.37056120      -1.45703835
H       -1.85328467      -0.68491217       0.54545097
H       -2.73645624       0.89417904      -0.03229467
9
Frame=2 idx=001641 GeodesicLength=0.06478435178149199 rxn_smarts="[C:1](#[C:2][C@@:3]1([H:7])[C:4]([H:8])([H:9])[O:5]1)[H:6]>>[C:1](#[C:2][C:3](=[O+:5][C-:4]([H:8])[H:9])[H:7])[H:6]"
C        2.46187416      -0.41428405       0.43830569
C        1.35730502      -0.21631045       0.00112384
C        0.09152635       0.05350067      -0.53434711
C       -1.82976888       0.32234352       0.16521621
O       -0.68283750       0.98296292       0.07710632
H        3.44839326      -0.57719871       0.80279177
H       -0.25902973      -0.35948844      -1.46500199
H       -1.86004150      -0.68380821       0.55102869
H       -2.72742119       0.89228275      -0.03622342
9
Frame=3 idx=001641 GeodesicLength=0.09720945575274137 rxn_smarts="[C:1](#[C:2][C@@:3]1([H:7])[C:4]([H:8])([H:9])[O:5]1)[H:6]>>[C:1](#[C:2][C:3](=[O+:5][C-:4]([H:8])[H:9])[H:7])[H:6]"
C        2.45674613      -0.41377548       0.44230548
C        1.34799153      -0.22852336       0.01070115
C        0.08320210       0.04772593      -0.52802595
C       -1.82125885       0.31895775       0.16091319
O       -0.67938219       0.99047470       0.07785037
H        3.44999312      -0.57001983       0.79087424
H       -0.25240426      -0.35008491      -1.47124847
H       -1.86544199      -0.68265850       0.55776208
H       -2.71944557       0.88790370      -0.04113210
9
Frame=4 idx=001641 GeodesicLength=0.12965335033367242 rxn_smarts="[C:1](#[C:2][C@@:3]1([H:7])[C:4]([H:8])([H:9])[O:5]1)[H:6]>>[C:1](#[C:2][C:3](=[O+:5][C-:4]([H:8])[H:9])[H:7])[H:6]"
C        2.45128221      -0.41380716       0.44751134
C        1.33838788      -0.24128379       0.02177064
C        0.07503419       0.04180180      -0.52107866
C       -1.81303393       0.31580603       0.15670342
O       -0.67584792       0.99746908       0.07919711
H        3.45266997      -0.56157025       0.77600031
H       -0.24504929      -0.34112854      -1.47632715
H       -1.87217893      -0.68153591       0.56300684
H       -2.71126417       0.88424874      -0.04678385
9
Frame=5 idx=001641 GeodesicLength=0.1621495870458708 rxn_smarts="[C:1](#[C:2][C@@:3]1([H:7])[C:4]([H:8])([H:9])[O:5]1)[H:6]>>[C:1](#[C:2][C:3](=[O+:5][C-:4]([H:8])[H:9])[H:7])[H:6]"
C        2.44530798      -0.42149889       0.44911073
C        1.32855349      -0.25822301       0.03037978
C        0.06680931       0.03473967      -0.51535325
C       -1.80405936       0.31329343       0.15363082
O       -0.67037235       1.00297574       0.08186303
H        3.45397589      -0.54227322       0.76634171
H       -0.23889736      -0.33166970      -1.48227843
H       -1.87996470      -0.68058843       0.56633699
H       -2.70135290       0.88324441      -0.05003138
9
Frame=6 idx=001641 GeodesicLength=0.19466342345656867 rxn_smarts="[C:1](#[C:2][C@@:3]1([H:7])[C:4]([H:8])([H:9])[O:5]1)[H:6]>>[C:1](#[C:2][C:3](=[O+:5][C-:4]([H:8])[H:9])[H:7])[H:6]"
C        2.43950633      -0.42470229       0.45302269
C        1.31898496      -0.27217852       0.04075936
C        0.05889040       0.02866851      -0.50894112
C       -1.79551474       0.31050381       0.15054029
O       -0.66589445       1.00894035       0.08399238
H        3.45542688      -0.52921889       0.75246808
H       -0.23148284      -0.32324065      -1.48649861
H       -1.88772801      -0.67967201       0.56956996
H       -2.69218853       0.88089970      -0.05491304
9
Frame=7 idx=001641 GeodesicLength=0.22722131986773997 rxn_smarts="[C:1](#[C:2][C@@:3]1([H:7])[C:4]([H:8])([H:9])[O:5]1)[H:6]>>[C:1](#[C:2][C:3](=[O+:5][C-:4]([H:8])[H:9])[H:7])[H:6]"
C        2.43353016      -0.42820340       0.45789638
C        1.30923601      -0.28642534       0.05246293
C        0.05118065       0.02255490      -0.50191407
C       -1.78716305       0.30789659       0.14764658
O       -0.66129648       1.01448630       0.08674217
H        3.45721174      -0.51531416       0.73585846
H       -0.22338125      -0.31522097      -1.48954991
H       -1.89652932      -0.67877804       0.57154268
H       -2.68278847       0.87900412      -0.06068520
9
Frame=8 idx=001641 GeodesicLength=0.2599267101622488 rxn_smarts="[C:1](#[C:2][C@@:3]1([H:7])[C:4]([H:8])([H:9])[O:5]1)[H:6]>>[C:1](#[C:2][C:3](=[O+:5][C-:4]([H:8])[H:9])[H:7])[H:6]"
C        2.42758669      -0.44106329       0.45637581
C        1.29930882      -0.30627104       0.06008974
C        0.04332077       0.01474444      -0.49678608
C       -1.77761171       0.30613326       0.14633902
O       -0.65388398       1.01821989       0.09091457
H        3.45576265      -0.48756922       0.72830694
H       -0.21737814      -0.30680938      -1.49416862
H       -1.90608766      -0.67785623       0.57198284
H       -2.67101744       0.88047157      -0.06305421
9
Frame=9 idx=001641 GeodesicLength=0.2926163786291761 rxn_smarts="[C:1](#[C:2][C@@:3]1([H:7])[C:4]([H:8])([H:9])[O:5]1)[H:6]>>[C:1](#[C:2][C:3](=[O+:5][C-:4]([H:8])[H:9])[H:7])[H:6]"
C        2.42161085      -0.44932992       0.45704760
C        1.29001073      -0.32200308       0.06817440
C        0.03578881       0.00849850      -0.49170821
C       -1.76827135       0.30385394       0.14518379
O       -0.64765512       1.02275840       0.09390152
H        3.45381237      -0.46734255       0.71829466
H       -0.21055052      -0.29924402      -1.49762818
H       -1.91453891      -0.67702580       0.57300635
H       -2.66020686       0.87983454      -0.06627193
9
Frame=10 idx=001641 GeodesicLength=0.32538782869532423 rxn_smarts="[C:1](#[C:2][C@@:3]1([H:7])[C:4]([H:8])([H:9])[O:5]1)[H:6]>>[C:1](#[C:2][C:3](=[O+:5][C-:4]([H:8])[H:9])[H:7])[H:6]"
C        2.41572381      -0.45546514       0.45903146
C        1.28104129      -0.33588755       0.07694908
C        0.02855895       0.00298905      -0.48644652
C       -1.75903942       0.30138875       0.14424808
O       -0.64189230       1.02754871       0.09660691
H        3.45115547      -0.45036140       0.70615011
H       -0.20309479      -0.29226955      -1.50016413
H       -1.92275296      -0.67633486       0.57378685
H       -2.64970005       0.87839200      -0.07016184
9
Frame=11 idx=001641 GeodesicLength=0.3581703787088778 rxn_smarts="[C:1](#[C:2][C@@:3]1([H:7])[C:4]([H:8])([H:9])[O:5]1)[H:6]>>[C:1](#[C:2][C:3](=[O+:5][C-:4]([H:8])[H:9])[H:7])[H:6]"
C        2.40949684      -0.46129704       0.46206690
C        1.27224167      -0.34878297       0.08574642
C        0.02149794      -0.00197938      -0.48134646
C       -1.74984923       0.29887789       0.14363945
O       -0.63630746       1.03241287       0.09912384
H        3.44856978      -0.43440750       0.69298236
H       -0.19548741      -0.28570662      -1.50218434
H       -1.93085677      -0.67571747       0.57419641
H       -2.63930535       0.87660021      -0.07422459
9
Frame=12 idx=001641 GeodesicLength=0.3910913489496042 rxn_smarts="[C:1](#[C:2][C@@:3]1([H:7])[C:4]([H:8])([H:9])[O:5]1)[H:6]>>[C:1](#[C:2][C:3](=[O+:5][C-:4]([H:8])[H:9])[H:7])[H:6]"
C        2.40448864      -0.47211000       0.45647661
C        1.26398399      -0.36464111       0.08886151
C        0.01422810      -0.00794853      -0.47898132
C       -1.73925242       0.29686049       0.14488635
O       -0.62843261       1.03624694       0.10134643
H        3.44082797      -0.41057173       0.69273997
H       -0.19073694      -0.27965546      -1.50617781
H       -1.93794393      -0.67478054       0.57522470
H       -2.62716281       0.87659995      -0.07437643
9
Frame=13 idx=001641 GeodesicLength=0.42398507195631085 rxn_smarts="[C:1](#[C:2][C@@:3]1([H:7])[C:4]([H:8])([H:9])[O:5]1)[H:6]>>[C:1](#[C:2][C:3](=[O+:5][C-:4]([H:8])[H:9])[H:7])[H:6]"
C        2.39896572      -0.47900007       0.45539159
C        1.25580624      -0.37758618       0.09457050
C        0.00730637      -0.01269861      -0.47553063
C       -1.72936527       0.29445354       0.14573890
O       -0.62193042       1.04063247       0.10340768
H        3.43494667      -0.39292290       0.68589479
H       -0.18447298      -0.27389457      -1.50857725
H       -1.94521855      -0.67409795       0.57562255
H       -2.61603779       0.87511429      -0.07651814
9
Frame=14 idx=001641 GeodesicLength=0.45697312314085065 rxn_smarts="[C:1](#[C:2][C@@:3]1([H:7])[C:4]([H:8])([H:9])[O:5]1)[H:6]>>[C:1](#[C:2][C:3](=[O+:5][C-:4]([H:8])[H:9])[H:7])[H:6]"
C        2.39377337      -0.48667587       0.45236776
C        1.24785666      -0.39093589       0.09898767
C        0.00045241      -0.01751435      -0.47274653
C       -1.71915025       0.29216324       0.14726947
O       -0.61486171       1.04470705       0.10537932
H        3.42754335      -0.37383556       0.68182743
H       -0.17886006      -0.26857489      -1.51114756
H       -1.95230030      -0.67333582       0.57589867
H       -2.60445346       0.87400208      -0.07783624
9
Frame=15 idx=001641 GeodesicLength=0.48999359273038384 rxn_smarts="[C:1](#[C:2][C@@:3]1([H:7])[C:4]([H:8])([H:9])[O:5]1)[H:6]>>[C:1](#[C:2][C:3](=[O+:5][C-:4]([H:8])[H:9])[H:7])[H:6]"
C        2.38836793      -0.49320933       0.45104812
C        1.24000958      -0.40329400       0.10425736
C       -0.00617094      -0.02186088      -0.46963543
C       -1.70916052       0.28976047       0.14884455
O       -0.60815608       1.04882668       0.10739473
H        3.42048090      -0.35652063       0.67526370
H       -0.17270433      -0.26354592      -1.51299670
H       -1.95957128      -0.67268782       0.57553473
H       -2.59309526       0.87253144      -0.07971105
9
Frame=16 idx=001641 GeodesicLength=0.523065292852779 rxn_smarts="[C:1](#[C:2][C@@:3]1([H:7])[C:4]([H:8])([H:9])[O:5]1)[H:6]>>[C:1](#[C:2][C:3](=[O+:5][C-:4]([H:8])[H:9])[H:7])[H:6]"
C        2.38365341      -0.50046474       0.44608625
C        1.23264325      -0.41581167       0.10698149
C       -0.01282577      -0.02626441      -0.46779782
C       -1.69863621       0.28746861       0.15128919
O       -0.60076707       1.05270877       0.10877609
H        3.41119421      -0.33791206       0.67443271
H       -0.16790275      -0.25925348      -1.51550859
H       -1.96608726      -0.67185406       0.57562700
H       -2.58127182       0.87138304      -0.07988631
