15
Frame=0 idx=005523 GeodesicLength=0.0 rxn_smarts="[C:1]([C:2](/[N:3]=[C:4](/[O:5][C:6]([H:13])([H:14])[H:15])[H:12])([H:10])[H:11])([H:7])([H:8])[H:9]>>[C:1]([C:2]([N:3]([C:4](=[O:5])[H:12])[C:6]([H:13])([H:14])[H:15])([H:10])[H:11])([H:7])([H:8])[H:9]"
C        1.79982881       0.88963395       0.42886540
C        1.24990086      -0.28633475      -0.36632264
N       -0.17836083      -0.42164892      -0.20079031
C       -0.78096059      -1.38652626       0.38811870
O       -2.03486320      -1.32225455       0.47465972
C       -2.09283185       0.47953716      -0.43799871
H        1.63864713       0.73934592       1.49795426
H        2.87019848       1.01486494       0.25387800
H        1.29663987       1.81424833       0.14008034
H        1.75592124      -1.21180741      -0.06529084
H        1.46783096      -0.14411450      -1.42958050
H       -0.25357119      -2.24667563       0.81300259
H       -3.03926818       0.06446703      -0.75516776
H       -1.56749090       0.98802644      -1.23200646
H       -2.13162066       1.02923830       0.49059816
15
Frame=1 idx=005523 GeodesicLength=0.03411154455167382 rxn_smarts="[C:1]([C:2](/[N:3]=[C:4](/[O:5][C:6]([H:13])([H:14])[H:15])[H:12])([H:10])[H:11])([H:7])([H:8])[H:9]>>[C:1]([C:2]([N:3]([C:4](=[O:5])[H:12])[C:6]([H:13])([H:14])[H:15])([H:10])[H:11])([H:7])([H:8])[H:9]"
C        1.79802254       0.89180181       0.43264508
C        1.24611188      -0.28345965      -0.36213186
N       -0.18188421      -0.41682941      -0.19565433
C       -0.78029728      -1.38566895       0.39406837
O       -2.03511805      -1.32145608       0.48088774
C       -2.08273398       0.47161965      -0.43767731
H        1.63724647       0.74201871       1.50187875
H        2.86865006       1.01427779       0.25735040
H        1.29698423       1.81758887       0.14399239
H        1.74959427      -1.21013791      -0.06072193
H        1.46210054      -0.14098450      -1.42574649
H       -0.24988238      -2.26123916       0.78212598
H       -3.04328723       0.07147657      -0.73202473
H       -1.57718069       0.96385849      -1.25551473
H       -2.10832618       1.04713377       0.47652268
15
Frame=2 idx=005523 GeodesicLength=0.06818089588628637 rxn_smarts="[C:1]([C:2](/[N:3]=[C:4](/[O:5][C:6]([H:13])([H:14])[H:15])[H:12])([H:10])[H:11])([H:7])([H:8])[H:9]>>[C:1]([C:2]([N:3]([C:4](=[O:5])[H:12])[C:6]([H:13])([H:14])[H:15])([H:10])[H:11])([H:7])([H:8])[H:9]"
C        1.79581917       0.89408410       0.43607178
C        1.24251932      -0.28095437      -0.35799750
N       -0.18525885      -0.41259712      -0.19114773
C       -0.77955530      -1.38529406       0.39951101
O       -2.03541357      -1.32136008       0.48569193
C       -2.07252877       0.46400972      -0.43671572
H        1.63499863       0.74527440       1.50544819
H        2.86675439       1.01394022       0.26090371
H        1.29688116       1.82080558       0.14688545
H        1.74350434      -1.20859213      -0.05553411
H        1.45701321      -0.13867416      -1.42193554
H       -0.24663789      -2.27445073       0.75183223
H       -3.04641978       0.07960805      -0.70879908
H       -1.58687734       0.94007270      -1.27697924
H       -2.08479873       1.06412788       0.46276460
15
Frame=3 idx=005523 GeodesicLength=0.10197719427691294 rxn_smarts="[C:1]([C:2](/[N:3]=[C:4](/[O:5][C:6]([H:13])([H:14])[H:15])[H:12])([H:10])[H:11])([H:7])([H:8])[H:9]>>[C:1]([C:2]([N:3]([C:4](=[O:5])[H:12])[C:6]([H:13])([H:14])[H:15])([H:10])[H:11])([H:7])([H:8])[H:9]"
C        1.79610846       0.89547956       0.44008023
C        1.23813640      -0.27724795      -0.35404509
N       -0.18910293      -0.40602051      -0.18328194
C       -0.77881599      -1.38317047       0.40779544
O       -2.03612386      -1.32219858       0.48919843
C       -2.06388814       0.45533314      -0.43715000
H        1.63790876       0.74578249       1.50973500
H        2.86699945       1.01195553       0.26244063
H        1.29947337       1.82418310       0.15342585
H        1.73644483      -1.20692099      -0.05358725
H        1.44848362      -0.13336210      -1.41858736
H       -0.24340864      -2.28410306       0.72483620
H       -3.04884087       0.08498354      -0.68975940
H       -1.59689236       0.91545461      -1.29770484
H       -2.06648210       1.07985170       0.44660410
15
Frame=4 idx=005523 GeodesicLength=0.13600037584929 rxn_smarts="[C:1]([C:2](/[N:3]=[C:4](/[O:5][C:6]([H:13])([H:14])[H:15])[H:12])([H:10])[H:11])([H:7])([H:8])[H:9]>>[C:1]([C:2]([N:3]([C:4](=[O:5])[H:12])[C:6]([H:13])([H:14])[H:15])([H:10])[H:11])([H:7])([H:8])[H:9]"
C        1.79400553       0.89748853       0.44327263
C        1.23452174      -0.27484312      -0.35026670
N       -0.19245591      -0.40193396      -0.17886073
C       -0.77799436      -1.38313576       0.41286414
O       -2.03651107      -1.32337577       0.49154512
C       -2.05397417       0.44787231      -0.43575200
H        1.63596834       0.74855609       1.51306359
H        2.86515266       1.01138783       0.26557622
H        1.29941660       1.82716003       0.15635957
H        1.73036671      -1.20551375      -0.04900388
H        1.44317915      -0.13094039      -1.41512634
H       -0.24057156      -2.29365114       0.69765999
H       -3.05033814       0.09379775      -0.66763780
H       -1.60673699       0.89194432      -1.31604607
H       -2.04402852       1.09518705       0.43235226
15
Frame=5 idx=005523 GeodesicLength=0.16989916148544237 rxn_smarts="[C:1]([C:2](/[N:3]=[C:4](/[O:5][C:6]([H:13])([H:14])[H:15])[H:12])([H:10])[H:11])([H:7])([H:8])[H:9]>>[C:1]([C:2]([N:3]([C:4](=[O:5])[H:12])[C:6]([H:13])([H:14])[H:15])([H:10])[H:11])([H:7])([H:8])[H:9]"
C        1.79185582       0.89931907       0.44634174
C        1.23095782      -0.27255909      -0.34679942
N       -0.19576278      -0.39805196      -0.17485163
C       -0.77718782      -1.38343628       0.41724394
O       -2.03701550      -1.32526618       0.49238777
C       -2.04424437       0.44060255      -0.43411607
H        1.63392963       0.75101450       1.51625257
H        2.86326063       1.01071603       0.26867025
H        1.29928958       1.82997884       0.15924467
H        1.72435331      -1.20424787      -0.04479475
H        1.43798469      -0.12850029      -1.41195359
H       -0.23750799      -2.30129639       0.67309618
H       -3.05118391       0.10308784      -0.64599540
H       -1.61675625       0.86897485      -1.33286309
H       -2.02197285       1.10966438       0.41813683
15
Frame=6 idx=005523 GeodesicLength=0.20358190832711154 rxn_smarts="[C:1]([C:2](/[N:3]=[C:4](/[O:5][C:6]([H:13])([H:14])[H:15])[H:12])([H:10])[H:11])([H:7])([H:8])[H:9]>>[C:1]([C:2]([N:3]([C:4](=[O:5])[H:12])[C:6]([H:13])([H:14])[H:15])([H:10])[H:11])([H:7])([H:8])[H:9]"
C        1.79106361       0.90045316       0.44970593
C        1.22686764      -0.26958278      -0.34370434
N       -0.19938168      -0.39291566      -0.16912275
C       -0.77650005      -1.38294747       0.42269419
O       -2.03786550      -1.32803410       0.49162539
C       -2.03542041       0.43288651      -0.43322891
H        1.63484391       0.75143836       1.51977368
H        2.86249835       1.00900101       0.27051558
H        1.30059354       1.83273610       0.16444270
H        1.71775401      -1.20294500      -0.04296518
H        1.43068456      -0.12406321      -1.40926531
H       -0.23387987      -2.30602929       0.65277633
H       -3.05143504       0.11089225      -0.62724243
H       -1.62669373       0.84602398      -1.34872304
H       -2.00312933       1.12308616       0.40271816
15
Frame=7 idx=005523 GeodesicLength=0.23727426532927698 rxn_smarts="[C:1]([C:2](/[N:3]=[C:4](/[O:5][C:6]([H:13])([H:14])[H:15])[H:12])([H:10])[H:11])([H:7])([H:8])[H:9]>>[C:1]([C:2]([N:3]([C:4](=[O:5])[H:12])[C:6]([H:13])([H:14])[H:15])([H:10])[H:11])([H:7])([H:8])[H:9]"
C        1.78952557       0.90172330       0.45274068
C        1.22304029      -0.26707609      -0.34077213
N       -0.20283117      -0.38862686      -0.16462008
C       -0.77583033      -1.38316642       0.42693839
O       -2.03867601      -1.33120449       0.48979490
C       -2.02633315       0.42569559      -0.43165897
H        1.63422623       0.75249917       1.52292309
H        2.86108646       1.00768855       0.27281112
H        1.30106539       1.83531788       0.16844086
H        1.71148615      -1.20179078      -0.04041655
H        1.42444230      -0.12058099      -1.40664990
H       -0.23021319      -2.31020309       0.63344507
H       -3.05099715       0.11990086      -0.60778176
H       -1.63672898       0.82381526      -1.36304271
H       -1.98326241       1.13600810       0.38784802
15
Frame=8 idx=005523 GeodesicLength=0.2709948889456865 rxn_smarts="[C:1]([C:2](/[N:3]=[C:4](/[O:5][C:6]([H:13])([H:14])[H:15])[H:12])([H:10])[H:11])([H:7])([H:8])[H:9]>>[C:1]([C:2]([N:3]([C:4](=[O:5])[H:12])[C:6]([H:13])([H:14])[H:15])([H:10])[H:11])([H:7])([H:8])[H:9]"
C        1.78758786       0.90299137       0.45559411
C        1.21935376      -0.26482747      -0.33802238
N       -0.20618530      -0.38482070      -0.16086738
C       -0.77518570      -1.38379740       0.43039603
O       -2.03949490      -1.33471616       0.48702963
C       -2.01718461       0.41885916      -0.42969385
H        1.63280315       0.75373292       1.52585987
H        2.85932028       1.00653727       0.27533465
H        1.30108418       1.83774976       0.17187646
H        1.70540312      -1.20074184      -0.03766106
H        1.41875667      -0.11752313      -1.40415973
H       -0.22638789      -2.31365868       0.61538249
H       -3.04994930       0.12960133      -0.58803710
H       -1.64694038       0.80211061      -1.37612750
H       -1.96298094       1.14850296       0.37309576
15
Frame=9 idx=005523 GeodesicLength=0.3048117727313365 rxn_smarts="[C:1]([C:2](/[N:3]=[C:4](/[O:5][C:6]([H:13])([H:14])[H:15])[H:12])([H:10])[H:11])([H:7])([H:8])[H:9]>>[C:1]([C:2]([N:3]([C:4](=[O:5])[H:12])[C:6]([H:13])([H:14])[H:15])([H:10])[H:11])([H:7])([H:8])[H:9]"
C        1.78530543       0.90433964       0.45837979
C        1.21583130      -0.26277222      -0.33529335
N       -0.20942521      -0.38141515      -0.15769136
C       -0.77451129      -1.38471060       0.43335625
O       -2.04021037      -1.33805035       0.48439827
C       -2.00798703       0.41227878      -0.42742444
H        1.63063555       0.75526587       1.52869467
H        2.85725836       1.00560599       0.27819433
H        1.30071836       1.84010601       0.17484063
H        1.69951533      -1.19972432      -0.03451544
H        1.41363551      -0.11486580      -1.40163379
H       -0.22277505      -2.31704356       0.59684026
H       -3.04834735       0.13983577      -0.56766071
H       -1.65755581       0.78020520      -1.38839520
H       -1.94208773       1.16094474       0.35791008
15
Frame=10 idx=005523 GeodesicLength=0.3386258776083279 rxn_smarts="[C:1]([C:2](/[N:3]=[C:4](/[O:5][C:6]([H:13])([H:14])[H:15])[H:12])([H:10])[H:11])([H:7])([H:8])[H:9]>>[C:1]([C:2]([N:3]([C:4](=[O:5])[H:12])[C:6]([H:13])([H:14])[H:15])([H:10])[H:11])([H:7])([H:8])[H:9]"
C        1.78288078       0.90563207       0.46107670
C        1.21237797      -0.26083820      -0.33271417
N       -0.21261809      -0.37822628      -0.15489305
C       -0.77386908      -1.38580568       0.43589032
O       -2.04095725      -1.34164445       0.48102168
C       -1.99886687       0.40593567      -0.42494499
H        1.62816760       0.75676330       1.53142845
H        2.85507414       1.00468659       0.28113071
H        1.30018848       1.84236583       0.17760937
H        1.69372073      -1.19878209      -0.03141183
H        1.40874529      -0.11234364      -1.39923526
H       -0.21902020      -2.31976744       0.57943194
H       -3.04617961       0.15037565      -0.54730054
H       -1.66842083       0.75866108      -1.39962408
H       -1.92122308       1.17298759       0.34253476
15
Frame=11 idx=005523 GeodesicLength=0.37239024480479116 rxn_smarts="[C:1]([C:2](/[N:3]=[C:4](/[O:5][C:6]([H:13])([H:14])[H:15])[H:12])([H:10])[H:11])([H:7])([H:8])[H:9]>>[C:1]([C:2]([N:3]([C:4](=[O:5])[H:12])[C:6]([H:13])([H:14])[H:15])([H:10])[H:11])([H:7])([H:8])[H:9]"
C        1.78046089       0.90683260       0.46367870
C        1.20893049      -0.25896332      -0.33027001
N       -0.21579854      -0.37511019      -0.15223295
C       -0.77329416      -1.38696963       0.43817614
O       -2.04177455      -1.34561529       0.47667761
C       -1.98988628       0.39978905      -0.42232296
H        1.62570455       0.75812808       1.53405667
H        2.85288793       1.00368622       0.28397762
H        1.29967303       1.84453912       0.18031639
H        1.68793531      -1.19789812      -0.02848201
H        1.40386504      -0.10983510      -1.39695768
H       -0.21507582      -2.32174553       0.56343767
H       -3.04345245       0.16099290      -0.52729268
H       -1.67942393       0.73764321      -1.40977951
H       -1.90075150       1.18452600       0.32701701
15
Frame=12 idx=005523 GeodesicLength=0.4060924415428186 rxn_smarts="[C:1]([C:2](/[N:3]=[C:4](/[O:5][C:6]([H:13])([H:14])[H:15])[H:12])([H:10])[H:11])([H:7])([H:8])[H:9]>>[C:1]([C:2]([N:3]([C:4](=[O:5])[H:12])[C:6]([H:13])([H:14])[H:15])([H:10])[H:11])([H:7])([H:8])[H:9]"
C        1.77826424       0.90785142       0.46634065
C        1.20541130      -0.25698402      -0.32797549
N       -0.21901177      -0.37182992      -0.14940308
C       -0.77277586      -1.38800762       0.44049898
O       -2.04263871      -1.34973989       0.47182095
C       -1.98116138       0.39370758      -0.41977253
H        1.62374775       0.75898615       1.53674295
H        2.85087785       1.00248722       0.28661940
H        1.29937099       1.84665055       0.18350600
H        1.68208133      -1.19703401      -0.02610817
H        1.39865383      -0.10691166      -1.39483339
H       -0.21095103      -2.32294990       0.54874210
H       -3.04029693       0.17136953      -0.50785467
H       -1.69061078       0.71668492      -1.41921163
H       -1.88096082       1.19571965       0.31088793
15
Frame=13 idx=005523 GeodesicLength=0.43976010703945645 rxn_smarts="[C:1]([C:2](/[N:3]=[C:4](/[O:5][C:6]([H:13])([H:14])[H:15])[H:12])([H:10])[H:11])([H:7])([H:8])[H:9]>>[C:1]([C:2]([N:3]([C:4](=[O:5])[H:12])[C:6]([H:13])([H:14])[H:15])([H:10])[H:11])([H:7])([H:8])[H:9]"
C        1.77607995       0.90877489       0.46889384
C        1.20188062      -0.25506319      -0.32582070
N       -0.22222364      -0.36860977      -0.14668963
C       -0.77235409      -1.38908085       0.44259945
O       -2.04358328      -1.35427332       0.46584970
C       -1.97255851       0.38783470      -0.41708772
H        1.62183386       0.75970644       1.53931118
H        2.84886749       1.00120221       0.28913163
H        1.29908631       1.84867350       0.18664050
H        1.67621784      -1.19623023      -0.02392847
H        1.39341204      -0.10400225      -1.39283572
H       -0.20657292      -2.32346971       0.53563997
H       -3.03662785       0.18173804      -0.48882038
H       -1.70185462       0.69641337      -1.42759975
H       -1.86160319       1.20638617       0.29471609
15
Frame=14 idx=005523 GeodesicLength=0.473370073244037 rxn_smarts="[C:1]([C:2](/[N:3]=[C:4](/[O:5][C:6]([H:13])([H:14])[H:15])[H:12])([H:10])[H:11])([H:7])([H:8])[H:9]>>[C:1]([C:2]([N:3]([C:4](=[O:5])[H:12])[C:6]([H:13])([H:14])[H:15])([H:10])[H:11])([H:7])([H:8])[H:9]"
C        1.77393865       0.90960341       0.47139848
C        1.19835065      -0.25316725      -0.32378414
N       -0.22542870      -0.36541289      -0.14404617
C       -0.77200872      -1.39015315       0.44455701
O       -2.04456834      -1.35904568       0.45910953
C       -1.96410079       0.38214162      -0.41432424
H        1.62002661       0.76023365       1.54183164
H        2.84688743       0.99984090       0.29153657
H        1.29882807       1.85062565       0.18983722
H        1.67036347      -1.19547550      -0.02196205
H        1.38812949      -0.10102748      -1.39095278
H       -0.20200737      -2.32345643       0.52374714
H       -3.03252826       0.19205749      -0.47010024
H       -1.71323328       0.67657170      -1.43514030
H       -1.84264892       1.21666396       0.27829232
15
Frame=15 idx=005523 GeodesicLength=0.5070705605608443 rxn_smarts="[C:1]([C:2](/[N:3]=[C:4](/[O:5][C:6]([H:13])([H:14])[H:15])[H:12])([H:10])[H:11])([H:7])([H:8])[H:9]>>[C:1]([C:2]([N:3]([C:4](=[O:5])[H:12])[C:6]([H:13])([H:14])[H:15])([H:10])[H:11])([H:7])([H:8])[H:9]"
C        1.77129200       0.91057434       0.47370944
C        1.19506706      -0.25161078      -0.32178174
N       -0.22847907      -0.36278225      -0.14229159
C       -0.77166618      -1.39159136       0.44579664
O       -2.04549376      -1.36384526       0.45190107
C       -1.95549811       0.37684134      -0.41112422
H        1.61706974       0.76135136       1.54412946
H        2.84449356       0.99877117       0.29438435
H        1.29803997       1.85248760       0.19211904
H        1.66477396      -1.19481494      -0.01931183
H        1.38373382      -0.09882530      -1.38905076
H       -0.19748143      -2.32356671       0.51180444
H       -3.02784819       0.20301665      -0.45052935
H       -1.72506738       0.65729182      -1.44166645
H       -1.82293600       1.22670232       0.26191148
15
Frame=16 idx=005523 GeodesicLength=0.5408414156672366 rxn_smarts="[C:1]([C:2](/[N:3]=[C:4](/[O:5][C:6]([H:13])([H:14])[H:15])[H:12])([H:10])[H:11])([H:7])([H:8])[H:9]>>[C:1]([C:2]([N:3]([C:4](=[O:5])[H:12])[C:6]([H:13])([H:14])[H:15])([H:10])[H:11])([H:7])([H:8])[H:9]"
C        1.76850052       0.91153799       0.47599401
C        1.19187649      -0.25015089      -0.31984230
N       -0.23146072      -0.36033181      -0.14089675
C       -0.77133943      -1.39311510       0.44673385
O       -2.04635320      -1.36857203       0.44450353
C       -1.94691804       0.37174278      -0.40778258
H        1.61376788       0.76251532       1.54637666
H        2.84197688       0.99775470       0.29741197
H        1.29709973       1.85428933       0.19422917
H        1.65927389      -1.19419530      -0.01657128
H        1.37963810      -0.09677042      -1.38717866
H       -0.19297938      -2.32352016       0.50009405
H       -3.02266941       0.21411324      -0.43065728
H       -1.73730465       0.63817025      -1.44746218
H       -1.80310868       1.23653212       0.24504780
