15
Frame=0 idx=001354 GeodesicLength=0.0 rxn_smarts="[C:1]([C:2]([C:3]([H:11])([H:12])[H:13])([N:4]([C:5](=[O:6])[H:15])[H:14])[H:10])([H:7])([H:8])[H:9]>>[C:1]([C:2]([C:3]([H:11])([H:12])[H:13])=[N:4][H:14])([H:7])([H:8])[H:9].[C:5](=[O:6])([H:10])[H:15]"
C       -1.15229181       0.00516369       0.97886169
C       -0.35774857       0.06720142      -0.27946848
C       -1.10599386       0.08757516      -1.57355596
N        0.94559226       0.09392306      -0.32528257
C        1.95624131      -0.07326597       0.63422194
O        1.57231043      -0.13306319       1.98830234
H       -1.93480119      -0.75327187       0.87888183
H       -1.65820228       0.96257289       1.14018889
H       -0.51568200      -0.19833356       1.83560138
H        2.06223385      -1.06162098       1.32334804
H       -0.44873158       0.20282757      -2.43728830
H       -1.82924338       0.90710023      -1.58339296
H       -1.67489658      -0.83879123      -1.70035897
H        1.33468061       0.16848830      -1.25663670
H        2.80653275       0.56349454       0.37657784
15
Frame=1 idx=001354 GeodesicLength=0.1479689788761372 rxn_smarts="[C:1]([C:2]([C:3]([H:11])([H:12])[H:13])([N:4]([C:5](=[O:6])[H:15])[H:14])[H:10])([H:7])([H:8])[H:9]>>[C:1]([C:2]([C:3]([H:11])([H:12])[H:13])=[N:4][H:14])([H:7])([H:8])[H:9].[C:5](=[O:6])([H:10])[H:15]"
C       -1.15182026       0.02173111       0.98165584
C       -0.35086408       0.04422483      -0.27532874
C       -1.10076609       0.05050246      -1.57002947
N        0.94798504       0.18954595      -0.31648618
C        1.96793076      -0.06131507       0.64843591
O        1.60294985      -0.17588940       1.98922720
H       -1.92698064      -0.74673963       0.90382781
H       -1.66714774       0.97853591       1.11313556
H       -0.51706633      -0.15148034       1.84654199
H        1.95550899      -1.14118842       1.23262628
H       -0.44666910       0.15041973      -2.43794975
H       -1.82358641       0.87022510      -1.59473612
H       -1.67096487      -0.87718367      -1.67943097
H        1.33191384       0.31150853      -1.24488428
H        2.84957705       0.53710293       0.40339494
15
Frame=2 idx=001354 GeodesicLength=0.2982547751732173 rxn_smarts="[C:1]([C:2]([C:3]([H:11])([H:12])[H:13])([N:4]([C:5](=[O:6])[H:15])[H:14])[H:10])([H:7])([H:8])[H:9]>>[C:1]([C:2]([C:3]([H:11])([H:12])[H:13])=[N:4][H:14])([H:7])([H:8])[H:9].[C:5](=[O:6])([H:10])[H:15]"
C       -1.15162127       0.03050357       0.98342027
C       -0.34208936       0.01959796      -0.27052380
C       -1.09349020       0.02235207      -1.56597171
N        0.94612191       0.26302374      -0.30632104
C        1.97951968      -0.05214687       0.66184954
O        1.63451566      -0.20195222       1.99047461
H       -1.92042794      -0.74578097       0.92327721
H       -1.67485350       0.98610888       1.08983260
H       -0.51918320      -0.11687655       1.85509990
H        1.85624151      -1.19047231       1.15677293
H       -0.44028294       0.10711642      -2.43617795
H       -1.81011510       0.84727548      -1.60172785
H       -1.67114991      -0.90182746      -1.66359158
H        1.32311777       0.42090342      -1.23229274
H        2.88369689       0.51217482       0.41587962
15
Frame=3 idx=001354 GeodesicLength=0.4476212679400569 rxn_smarts="[C:1]([C:2]([C:3]([H:11])([H:12])[H:13])([N:4]([C:5](=[O:6])[H:15])[H:14])[H:10])([H:7])([H:8])[H:9]>>[C:1]([C:2]([C:3]([H:11])([H:12])[H:13])=[N:4][H:14])([H:7])([H:8])[H:9].[C:5](=[O:6])([H:10])[H:15]"
C       -1.15203539       0.04143228       0.98534896
C       -0.33278901       0.00260119      -0.26384938
C       -1.08401397      -0.00472654      -1.56085978
N        0.94174055       0.32828166      -0.29310008
C        1.99076278      -0.04757937       0.67399509
O        1.66584984      -0.23852449       1.98756040
H       -1.91342546      -0.74297266       0.94152535
H       -1.68448373       0.99397340       1.06734379
H       -0.52188859      -0.08082582       1.86269067
H        1.76244762      -1.22720585       1.07521194
H       -0.42954443       0.06371327      -2.43132257
H       -1.79581968       0.82352983      -1.61064300
H       -1.66721124      -0.92637615      -1.64562128
H        1.31004385       0.52302362      -1.21522384
H        2.91036686       0.49165563       0.42694374
15
Frame=4 idx=001354 GeodesicLength=0.5985557765768842 rxn_smarts="[C:1]([C:2]([C:3]([H:11])([H:12])[H:13])([N:4]([C:5](=[O:6])[H:15])[H:14])[H:10])([H:7])([H:8])[H:9]>>[C:1]([C:2]([C:3]([H:11])([H:12])[H:13])=[N:4][H:14])([H:7])([H:8])[H:9].[C:5](=[O:6])([H:10])[H:15]"
C       -1.15282729       0.05033470       0.98691369
C       -0.32353575      -0.01218558      -0.25716832
C       -1.07428673      -0.02815640      -1.55602749
N        0.93599417       0.38299145      -0.27997373
C        2.00245979      -0.04614179       0.68579600
O        1.69739657      -0.27130114       1.98444446
H       -1.90738225      -0.74111053       0.95733523
H       -1.69348172       0.99967236       1.04724272
H       -0.52518564      -0.05014063       1.86911029
H        1.67560349      -1.25053703       1.00083858
H       -0.41769769       0.02435879      -2.42590199
H       -1.78017528       0.80430002      -1.61895148
H       -1.66402089      -0.94636219      -1.62951986
H        1.29457269       0.61048985      -1.19827253
H        2.93256654       0.47378812       0.43413443
15
Frame=5 idx=001354 GeodesicLength=0.7500982135093484 rxn_smarts="[C:1]([C:2]([C:3]([H:11])([H:12])[H:13])([N:4]([C:5](=[O:6])[H:15])[H:14])[H:10])([H:7])([H:8])[H:9]>>[C:1]([C:2]([C:3]([H:11])([H:12])[H:13])=[N:4][H:14])([H:7])([H:8])[H:9].[C:5](=[O:6])([H:10])[H:15]"
C       -1.15400759       0.05741718       0.98796362
C       -0.31459358      -0.02556866      -0.25070238
C       -1.06477203      -0.04856744      -1.55147710
N        0.92945492       0.42957287      -0.26734132
C        2.01465513      -0.04746423       0.69720983
O        1.72925740      -0.29975518       1.98144351
H       -1.90219376      -0.74024498       0.97106571
H       -1.70204741       1.00337583       1.02876863
H       -0.52913632      -0.02375266       1.87442934
H        1.59519265      -1.26394149       0.93385856
H       -0.40564446      -0.01143428      -2.42015366
H       -1.76370797       0.78877410      -1.62656714
H       -1.66193858      -0.96245396      -1.61516802
H        1.27761217       0.68654482      -1.18174800
H        2.95186943       0.45749810       0.43841841
15
Frame=6 idx=001354 GeodesicLength=0.901871578187133 rxn_smarts="[C:1]([C:2]([C:3]([H:11])([H:12])[H:13])([N:4]([C:5](=[O:6])[H:15])[H:14])[H:10])([H:7])([H:8])[H:9]>>[C:1]([C:2]([C:3]([H:11])([H:12])[H:13])=[N:4][H:14])([H:7])([H:8])[H:9].[C:5](=[O:6])([H:10])[H:15]"
C       -1.15559117       0.06325454       0.98856550
C       -0.30610511      -0.03759680      -0.24449275
C       -1.05561687      -0.06666381      -1.54723006
N        0.92241042       0.47014552      -0.25519097
C        2.02734087      -0.05132425       0.70826002
O        1.76140925      -0.32476112       1.97869406
H       -1.89760248      -0.74013902       0.98323772
H       -1.71053854       1.00560974       1.01143045
H       -0.53373328      -0.00033939       1.87888935
H        1.52064964      -1.27033829       0.87284136
H       -0.39371427      -0.04442267      -2.41423839
H       -1.74696025       0.77590151      -1.63378368
H       -1.66067553      -0.97567437      -1.60218190
H        1.25962087       0.75408802      -1.16559842
H        2.96910645       0.44226039       0.44079772
15
Frame=7 idx=001354 GeodesicLength=1.0537996200710316 rxn_smarts="[C:1]([C:2]([C:3]([H:11])([H:12])[H:13])([N:4]([C:5](=[O:6])[H:15])[H:14])[H:10])([H:7])([H:8])[H:9]>>[C:1]([C:2]([C:3]([H:11])([H:12])[H:13])=[N:4][H:14])([H:7])([H:8])[H:9].[C:5](=[O:6])([H:10])[H:15]"
C       -1.15758367       0.06809077       0.98876261
C       -0.29813909      -0.04849361      -0.23857641
C       -1.04688634      -0.08287300      -1.54332338
N        0.91501011       0.50604508      -0.24350818
C        2.04050133      -0.05751590       0.71899270
O        1.79397872      -0.34629025       1.97653948
H       -1.89351913      -0.74069874       0.99414693
H       -1.71909802       1.00663530       0.99494900
H       -0.53897001       0.02077713       1.88264757
H        1.45136038      -1.27172181       0.81698516
H       -0.38208117      -0.07502585      -2.40829683
H       -1.73018102       0.76509931      -1.64072802
H       -1.66009105      -0.98660692      -1.59043254
H        1.24080058       0.81515373      -1.14975343
H        2.98489838       0.42742476       0.44159532
15
Frame=8 idx=001354 GeodesicLength=1.205829318575952 rxn_smarts="[C:1]([C:2]([C:3]([H:11])([H:12])[H:13])([N:4]([C:5](=[O:6])[H:15])[H:14])[H:10])([H:7])([H:8])[H:9]>>[C:1]([C:2]([C:3]([H:11])([H:12])[H:13])=[N:4][H:14])([H:7])([H:8])[H:9].[C:5](=[O:6])([H:10])[H:15]"
C       -1.15998459       0.07212169       0.98860401
C       -0.29072687      -0.05837085      -0.23295614
C       -1.03859037      -0.09751361      -1.53976505
N        0.90734849       0.53825088      -0.23222039
C        2.05410408      -0.06586803       0.72949844
O        1.82703865      -0.36429178       1.97527830
H       -1.88985866      -0.74184244       1.00402164
H       -1.72783730       1.00665073       0.97913159
H       -0.54484262       0.04011351       1.88582951
H        1.38681210      -1.26955645       0.76533531
H       -0.37080635      -0.10360116      -2.40239513
H       -1.71351993       0.75593331      -1.64750698
H       -1.66004770      -0.99569018      -1.57977716
H        1.22128394       0.87117529      -1.13409080
H        2.99962713       0.41248910       0.44101284
15
Frame=9 idx=001354 GeodesicLength=1.357940133857375 rxn_smarts="[C:1]([C:2]([C:3]([H:11])([H:12])[H:13])([N:4]([C:5](=[O:6])[H:15])[H:14])[H:10])([H:7])([H:8])[H:9]>>[C:1]([C:2]([C:3]([H:11])([H:12])[H:13])=[N:4][H:14])([H:7])([H:8])[H:9].[C:5](=[O:6])([H:10])[H:15]"
C       -1.16279393       0.07541339       0.98812297
C       -0.28387581      -0.06734805      -0.22763382
C       -1.03071649      -0.11077359      -1.53656508
N        0.89948816       0.56744886      -0.22125558
C        2.06811237      -0.07625264       0.73988994
O        1.86071276      -0.37829955       1.97528706
H       -1.88655339      -0.74359106       1.01299254
H       -1.73684568       1.00571714       0.96385982
H       -0.55135958       0.05795959       1.88852631
H        1.32650207      -1.26489935       0.71721134
H       -0.35990837      -0.13034451      -2.39658574
H       -1.69704370       0.74815713      -1.65416509
H       -1.66045191      -1.00318204      -1.57016127
H        1.20115169       0.92319031      -1.11848044
H        3.01358181       0.39680437       0.43895704
15
Frame=10 idx=001354 GeodesicLength=1.5101160885913283 rxn_smarts="[C:1]([C:2]([C:3]([H:11])([H:12])[H:13])([N:4]([C:5](=[O:6])[H:15])[H:14])[H:10])([H:7])([H:8])[H:9]>>[C:1]([C:2]([C:3]([H:11])([H:12])[H:13])=[N:4][H:14])([H:7])([H:8])[H:9].[C:5](=[O:6])([H:10])[H:15]"
C       -1.16600923       0.07796276       0.98734500
C       -0.27758001      -0.07552415      -0.22261076
C       -1.02324375      -0.12275844      -1.53373347
N        0.89147550       0.59414475      -0.21054001
C        2.08247444      -0.08856837       0.75032950
O        1.89515251      -0.38760838       1.97697974
H       -1.88354349      -0.74601706       1.02112821
H       -1.74619109       1.00382506       0.94907099
H       -0.55853672       0.07445499       1.89081016
H        1.26997884      -1.25853856       0.67202630
H       -0.34938855      -0.15536647      -2.39091282
H       -1.68077297       0.74164174      -1.66071643
H       -1.66124214      -1.00922801      -1.56157040
H        1.18048124       0.97192618      -1.10279930
H        3.02694540       0.37965395       0.43519330
15
Frame=11 idx=001354 GeodesicLength=1.6623520871746775 rxn_smarts="[C:1]([C:2]([C:3]([H:11])([H:12])[H:13])([N:4]([C:5](=[O:6])[H:15])[H:14])[H:10])([H:7])([H:8])[H:9]>>[C:1]([C:2]([C:3]([H:11])([H:12])[H:13])=[N:4][H:14])([H:7])([H:8])[H:9].[C:5](=[O:6])([H:10])[H:15]"
C       -1.16961852       0.07974623       0.98628950
C       -0.27182195      -0.08301561      -0.21789019
C       -1.01614561      -0.13354946      -1.53128178
N        0.88333980       0.61870185      -0.19999541
C        2.09710361      -0.10274300       0.76105972
O        1.93053132      -0.39138022       1.98076947
H       -1.88081391      -0.74916156       1.02846532
H       -1.75586951       1.00097792       0.93473112
H       -0.56638815       0.08964496       1.89274204
H        1.21690261      -1.25111203       0.62914136
H       -0.33923668      -0.17873312      -2.38541988
H       -1.66471351       0.73629479      -1.66715375
H       -1.66236797      -1.01393810      -1.55401186
H        1.15930866       1.01799586      -1.08689118
H        3.03978983       0.36027148       0.42944551
15
Frame=12 idx=001354 GeodesicLength=1.8146412126584959 rxn_smarts="[C:1]([C:2]([C:3]([H:11])([H:12])[H:13])([N:4]([C:5](=[O:6])[H:15])[H:14])[H:10])([H:7])([H:8])[H:9]>>[C:1]([C:2]([C:3]([H:11])([H:12])[H:13])=[N:4][H:14])([H:7])([H:8])[H:9].[C:5](=[O:6])([H:10])[H:15]"
C       -1.17360005       0.08067847       0.98497033
C       -0.26657816      -0.08991778      -0.21348665
C       -1.00940429      -0.14315595      -1.52922760
N        0.87511568       0.64138779      -0.18956165
C        2.11188266      -0.11872846       0.77241055
O        1.96708484      -0.38847391       1.98707823
H       -1.87832944      -0.75313663       1.03499334
H       -1.76587470       0.99711055       0.92085410
H       -0.57491906       0.10345818       1.89437339
H        1.16695415      -1.24311550       0.58799789
H       -0.32946139      -0.20043264      -2.38016448
H       -1.64885465       0.73212106      -1.67344094
H       -1.66381191      -1.01733070      -1.54752833
H        1.13771789       1.06177349      -1.07064434
H        3.05207842       0.33776203       0.42137617
15
Frame=13 idx=001354 GeodesicLength=1.9669773965004973 rxn_smarts="[C:1]([C:2]([C:3]([H:11])([H:12])[H:13])([N:4]([C:5](=[O:6])[H:15])[H:14])[H:10])([H:7])([H:8])[H:9]>>[C:1]([C:2]([C:3]([H:11])([H:12])[H:13])=[N:4][H:14])([H:7])([H:8])[H:9].[C:5](=[O:6])([H:10])[H:15]"
C       -1.17791136       0.08064827       0.98340267
C       -0.26182059      -0.09631003      -0.20942753
C       -1.00301640      -0.15155059      -1.52759233
N        0.86683924       0.66240660      -0.17919369
C        2.12663116      -0.13648498       0.78485607
O        2.00510672      -0.37755973       1.99625647
H       -1.87603455      -0.75807976       1.04068835
H       -1.77617625       0.99213529       0.90748813
H       -0.58410794       0.11575919       1.89575157
H        1.11989706      -1.23495302       0.54794314
H       -0.32009569      -0.22043614      -2.37521623
H       -1.63317864       0.72918117      -1.67952957
H       -1.66559532      -1.01936853      -1.54216453
H        1.11584143       1.10347544      -1.05398716
H        3.06362113       0.31113681       0.41072461
15
Frame=14 idx=001354 GeodesicLength=2.119357093816758 rxn_smarts="[C:1]([C:2]([C:3]([H:11])([H:12])[H:13])([N:4]([C:5](=[O:6])[H:15])[H:14])[H:10])([H:7])([H:8])[H:9]>>[C:1]([C:2]([C:3]([H:11])([H:12])[H:13])=[N:4][H:14])([H:7])([H:8])[H:9].[C:5](=[O:6])([H:10])[H:15]"
C       -1.18250065       0.07946928       0.98159792
C       -0.25751349      -0.10226528      -0.20575411
C       -0.99697994      -0.15864142      -1.52640940
N        0.85854078       0.68192688      -0.16884740
C        2.14108377      -0.15594756       0.79906975
O        2.04502413      -0.35682448       2.00856161
H       -1.87384460      -0.76422236       1.04547817
H       -1.78675483       0.98587982       0.89472551
H       -0.59392446       0.12629103       1.89692247
H        1.07553501      -1.22691317       0.50839537
H       -0.31118264      -0.23863091      -2.37066558
H       -1.61765541       0.72761662      -1.68534413
H       -1.66775404      -1.01993569      -1.53801070
H        1.09385836       1.14322098      -1.03686864
H        3.07406801       0.27897626       0.39714915
15
Frame=15 idx=001354 GeodesicLength=2.271776665784617 rxn_smarts="[C:1]([C:2]([C:3]([H:11])([H:12])[H:13])([N:4]([C:5](=[O:6])[H:15])[H:14])[H:10])([H:7])([H:8])[H:9]>>[C:1]([C:2]([C:3]([H:11])([H:12])[H:13])=[N:4][H:14])([H:7])([H:8])[H:9].[C:5](=[O:6])([H:10])[H:15]"
C       -1.18726339       0.07693580       0.97957036
C       -0.25360980      -0.10785374      -0.20253954
C       -0.99132800      -0.16430944      -1.52571949
N        0.85026908       0.70006313      -0.15852585
C        2.15485985      -0.17704599       0.81599330
O        2.08739359      -0.32419627       2.02396003
H       -1.87164473      -0.77179773       1.04928094
H       -1.79751346       0.97817618       0.88271122
H       -0.60426557       0.13471771       1.89792766
H        1.03378493      -1.21922632       0.46860315
H       -0.30283548      -0.25484636      -2.36664508
H       -1.60230277       0.72759529      -1.69077034
H       -1.67034629      -1.01889700      -1.53516104
H        1.07203469       1.18098513      -1.01933158
H        3.08276734       0.23969960       0.38064625
15
Frame=16 idx=001354 GeodesicLength=2.4242021433231575 rxn_smarts="[C:1]([C:2]([C:3]([H:11])([H:12])[H:13])([N:4]([C:5](=[O:6])[H:15])[H:14])[H:10])([H:7])([H:8])[H:9]>>[C:1]([C:2]([C:3]([H:11])([H:12])[H:13])=[N:4][H:14])([H:7])([H:8])[H:9].[C:5](=[O:6])([H:10])[H:15]"
C       -1.19200032       0.07282900       0.97733809
C       -0.25004288      -0.11311649      -0.19991321
C       -0.98617429      -0.16839916      -1.52555980
N        0.84209828       0.71691868      -0.14832493
C        2.16742520      -0.19965630       0.83691762
O        2.13282421      -0.27757115       2.04189565
H       -1.86918370      -0.78107902       1.05206299
H       -1.80828923       0.96883368       0.87165100
H       -0.61490161       0.14069865       1.89879384
H        0.99475884      -1.21202380       0.42746561
H       -0.29532162      -0.26891284      -2.36334159
H       -1.58720782       0.72933778      -1.69564242
H       -1.67353698      -1.01605608      -1.53364458
H        1.05086616       1.21641702      -1.00167242
H        3.08868578       0.19178004       0.36197415
