16
Frame=0 idx=009640 GeodesicLength=0.0 rxn_smarts="[C:1]([C@@:2]1([H:11])[N:3]([H:12])[C@:4]1([C@@:5]1([H:14])[C:6]([H:15])([H:16])[O:7]1)[H:13])([H:8])([H:9])[H:10]>>[C:1]([C@@:2]1([H:11])[N:3]([H:12])[C@:4]1([O:7][C:6]([C:5][H:14])([H:15])[H:16])[H:13])([H:8])([H:9])[H:10]"
C       -1.94279213      -0.32525461      -0.18556064
C       -1.15795116       0.57461698       0.72733441
N       -0.33047459       0.00854233       1.81041566
C        0.30787357       0.60980619       0.67282143
C        0.91980782       0.33045131      -1.18152443
C        2.25269703      -0.11441794      -0.78411672
O        1.30471560      -0.66507740       0.11925354
H       -2.17734911       0.19312471      -1.11749820
H       -2.88239219      -0.62374686       0.28349071
H       -1.38176861      -1.22850206      -0.43225867
H       -1.67770440       1.48805229       1.00972527
H       -0.31558600      -1.00461457       1.78322465
H        0.93158334       1.47159402       0.85364507
H        0.47130260      -0.37443171      -1.88828891
H        2.72051111      -0.92275447      -1.33900444
H        2.95752719       0.58261186      -0.33165880
16
Frame=1 idx=009640 GeodesicLength=0.05101422782493548 rxn_smarts="[C:1]([C@@:2]1([H:11])[N:3]([H:12])[C@:4]1([C@@:5]1([H:14])[C:6]([H:15])([H:16])[O:7]1)[H:13])([H:8])([H:9])[H:10]>>[C:1]([C@@:2]1([H:11])[N:3]([H:12])[C@:4]1([O:7][C:6]([C:5][H:14])([H:15])[H:16])[H:13])([H:8])([H:9])[H:10]"
C       -1.94928810      -0.33247098      -0.17618261
C       -1.15939229       0.57519543       0.72466695
N       -0.32338132       0.01996942       1.80629429
C        0.30635644       0.61394874       0.65907411
C        0.93628893       0.34269712      -1.18487373
C        2.25855093      -0.12374336      -0.77575228
O        1.28120667      -0.68195188       0.09218194
H       -2.19997509       0.18235518      -1.10591018
H       -2.88087111      -0.63633923       0.30525789
H       -1.38470163      -1.23173649      -0.42882685
H       -1.67905290       1.48900463       1.00555376
H       -0.30578789      -0.99333512       1.78418355
H        0.92109584       1.48297838       0.83984028
H        0.48815076      -0.33631412      -1.91628454
H        2.73056457      -0.92349691      -1.33964010
H        2.96023618       0.55323919      -0.28958247
16
Frame=2 idx=009640 GeodesicLength=0.10186371723799334 rxn_smarts="[C:1]([C@@:2]1([H:11])[N:3]([H:12])[C@:4]1([C@@:5]1([H:14])[C:6]([H:15])([H:16])[O:7]1)[H:13])([H:8])([H:9])[H:10]>>[C:1]([C@@:2]1([H:11])[N:3]([H:12])[C@:4]1([O:7][C:6]([C:5][H:14])([H:15])[H:16])[H:13])([H:8])([H:9])[H:10]"
C       -1.95576449      -0.33957598      -0.16663442
C       -1.16081408       0.57563899       0.72210452
N       -0.31575328       0.03110989       1.80157644
C        0.30473354       0.61845046       0.64494008
C        0.95300073       0.35474100      -1.18813692
C        2.26393833      -0.13342941      -0.76703535
O        1.25747471      -0.69765005       0.06420043
H       -2.22229135       0.17159431      -1.09394888
H       -2.87919932      -0.64851540       0.32711386
H       -1.38804275      -1.23502136      -0.42521529
H       -1.68057518       1.48950475       1.00204180
H       -0.29490686      -0.98225801       1.78394845
H        0.90999744       1.49498168       0.82535422
H        0.50631655      -0.29778479      -1.94363875
H        2.74069167      -0.92457148      -1.33914692
H        2.96119433       0.52278538      -0.24752326
16
Frame=3 idx=009640 GeodesicLength=0.1525719989581133 rxn_smarts="[C:1]([C@@:2]1([H:11])[N:3]([H:12])[C@:4]1([C@@:5]1([H:14])[C:6]([H:15])([H:16])[O:7]1)[H:13])([H:8])([H:9])[H:10]>>[C:1]([C@@:2]1([H:11])[N:3]([H:12])[C@:4]1([O:7][C:6]([C:5][H:14])([H:15])[H:16])[H:13])([H:8])([H:9])[H:10]"
C       -1.96221968      -0.34659556      -0.15693251
C       -1.16223524       0.57600199       0.71968699
N       -0.30760674       0.04197763       1.79638013
C        0.30296962       0.62336267       0.63044865
C        0.96995944       0.36662441      -1.19138993
C        2.26884264      -0.14349675      -0.75799892
O        1.23356459      -0.71220226       0.03531347
H       -2.24434250       0.16086698      -1.08169394
H       -2.87736129      -0.66034628       0.34908283
H       -1.39174345      -1.23843717      -0.42146202
H       -1.68229447       1.48968667       0.99924058
H       -0.28293335      -0.97144384       1.78262136
H        0.89828299       1.50764943       0.81027283
H        0.52589817      -0.25886896      -1.97049021
H        2.75089096      -0.92609563      -1.33756740
H        2.96032830       0.49131667      -0.20551191
16
Frame=4 idx=009640 GeodesicLength=0.20318717102926076 rxn_smarts="[C:1]([C@@:2]1([H:11])[N:3]([H:12])[C@:4]1([C@@:5]1([H:14])[C:6]([H:15])([H:16])[O:7]1)[H:13])([H:8])([H:9])[H:10]>>[C:1]([C@@:2]1([H:11])[N:3]([H:12])[C@:4]1([O:7][C:6]([C:5][H:14])([H:15])[H:16])[H:13])([H:8])([H:9])[H:10]"
C       -1.96865534      -0.35352907      -0.14702626
C       -1.16364119       0.57623934       0.71736089
N       -0.29894315       0.05258333       1.79054499
C        0.30105651       0.62865064       0.61552007
C        0.98718669       0.37835141      -1.19453729
C        2.27322270      -0.15392450      -0.74860272
O        1.20948587      -0.72551221       0.00549091
H       -2.26616242       0.15014028      -1.06900639
H       -2.87534742      -0.67184216       0.37119737
H       -1.39579682      -1.24189235      -0.41750572
H       -1.68416142       1.48943882       0.99706979
H       -0.26988275      -0.96080044       1.78003057
H        0.88601194       1.52081479       0.79453238
H        0.54696002      -0.21953549      -1.99666445
H        2.76108760      -0.92802334      -1.33479068
H        2.95757918       0.45884096      -0.16361348
16
Frame=5 idx=009640 GeodesicLength=0.2536505354174872 rxn_smarts="[C:1]([C@@:2]1([H:11])[N:3]([H:12])[C@:4]1([C@@:5]1([H:14])[C:6]([H:15])([H:16])[O:7]1)[H:13])([H:8])([H:9])[H:10]>>[C:1]([C@@:2]1([H:11])[N:3]([H:12])[C@:4]1([O:7][C:6]([C:5][H:14])([H:15])[H:16])[H:13])([H:8])([H:9])[H:10]"
C       -1.97504212      -0.36038977      -0.13695581
C       -1.16504241       0.57639921       0.71518239
N       -0.28977580       0.06292626       1.78420348
C        0.29896216       0.63435847       0.60021547
C        1.00464497       0.38992079      -1.19763079
C        2.27703389      -0.16472848      -0.73889008
O        1.18531532      -0.73759597      -0.02521745
H       -2.28770800       0.13943868      -1.05601062
H       -2.87314694      -0.68301736       0.39341083
H       -1.40014470      -1.24547241      -0.41336843
H       -1.68619125       1.48887801       0.99560986
H       -0.25575612      -0.95039632       1.77627416
H        0.87319214       1.53451323       0.77825230
H        0.56956452      -0.17987608      -2.02226377
H        2.77124195      -0.93046480      -1.33087295
H        2.95285239       0.42550655      -0.12193859
16
Frame=6 idx=009640 GeodesicLength=0.3039279945288801 rxn_smarts="[C:1]([C@@:2]1([H:11])[N:3]([H:12])[C@:4]1([C@@:5]1([H:14])[C:6]([H:15])([H:16])[O:7]1)[H:13])([H:8])([H:9])[H:10]>>[C:1]([C@@:2]1([H:11])[N:3]([H:12])[C@:4]1([O:7][C:6]([C:5][H:14])([H:15])[H:16])[H:13])([H:8])([H:9])[H:10]"
C       -1.98136296      -0.36718126      -0.12672568
C       -1.16642427       0.57647511       0.71315765
N       -0.28011406       0.07299317       1.77734360
C        0.29668012       0.64047769       0.58453757
C        1.02230252       0.40131846      -1.20063797
C        2.28022180      -0.17588897      -0.72886461
O        1.16110017      -0.74842299      -0.05678066
H       -2.30892997       0.12876819      -1.04271613
H       -2.87077653      -0.69386350       0.41567935
H       -1.40477288      -1.24918339      -0.40901180
H       -1.68833137       1.48800283       0.99485756
H       -0.24059065      -0.94023802       1.77131508
H        0.85988970       1.54867206       0.76147048
H        0.59375484      -0.13997401      -2.04721527
H        2.78127268      -0.93343073      -1.32578555
H        2.94608087       0.39147536      -0.08062363
16
Frame=7 idx=009640 GeodesicLength=0.3541801195379226 rxn_smarts="[C:1]([C@@:2]1([H:11])[N:3]([H:12])[C@:4]1([C@@:5]1([H:14])[C:6]([H:15])([H:16])[O:7]1)[H:13])([H:8])([H:9])[H:10]>>[C:1]([C@@:2]1([H:11])[N:3]([H:12])[C@:4]1([O:7][C:6]([C:5][H:14])([H:15])[H:16])[H:13])([H:8])([H:9])[H:10]"
C       -1.98760197      -0.37391641      -0.11626118
C       -1.16780487       0.57644451       0.71123280
N       -0.26998574       0.08284625       1.76982001
C        0.29416199       0.64700021       0.56839402
C        1.04024403       0.41259275      -1.20348556
C        2.28275569      -0.18744569      -0.71850796
O        1.13681947      -0.75790984      -0.08927683
H       -2.32993550       0.11806960      -1.02894359
H       -2.86814838      -0.70446040       0.43812719
H       -1.40958725      -1.25291343      -0.40442687
H       -1.69061857       1.48671908       0.99474910
H       -0.22438158      -0.93018132       1.76500957
H        0.84608420       1.56316680       0.74410435
H        0.61968302      -0.09966938      -2.07141391
H        2.79112167      -0.93694957      -1.31947448
H        2.93719379       0.35660686      -0.03964665
16
Frame=8 idx=009640 GeodesicLength=0.4043846136059515 rxn_smarts="[C:1]([C@@:2]1([H:11])[N:3]([H:12])[C@:4]1([C@@:5]1([H:14])[C:6]([H:15])([H:16])[O:7]1)[H:13])([H:8])([H:9])[H:10]>>[C:1]([C@@:2]1([H:11])[N:3]([H:12])[C@:4]1([O:7][C:6]([C:5][H:14])([H:15])[H:16])[H:13])([H:8])([H:9])[H:10]"
C       -1.99375364      -0.38066950      -0.10562492
C       -1.16916931       0.57638181       0.70944469
N       -0.25934457       0.09252508       1.76180879
C        0.29140310       0.65402535       0.55184346
C        1.05845641       0.42383704      -1.20625201
C        2.28457342      -0.19943408      -0.70784008
O        1.11249251      -0.76611054      -0.12270328
H       -2.35079432       0.10732393      -1.01485504
H       -2.86522448      -0.71495942       0.46073642
H       -1.41454959      -1.25681707      -0.39969897
H       -1.69302700       1.48521146       0.99532437
H       -0.20707128      -0.92030007       1.75751875
H        0.83182778       1.57816114       0.72628399
H        0.64736621      -0.05893557      -2.09502980
H        2.80066915      -0.94119565      -1.31199706
H        2.92614562       0.32095610       0.00104068
16
Frame=9 idx=009640 GeodesicLength=0.4546503860531355 rxn_smarts="[C:1]([C@@:2]1([H:11])[N:3]([H:12])[C@:4]1([C@@:5]1([H:14])[C:6]([H:15])([H:16])[O:7]1)[H:13])([H:8])([H:9])[H:10]>>[C:1]([C@@:2]1([H:11])[N:3]([H:12])[C@:4]1([O:7][C:6]([C:5][H:14])([H:15])[H:16])[H:13])([H:8])([H:9])[H:10]"
C       -1.99976254      -0.38742744      -0.09472843
C       -1.17052279       0.57621510       0.70773140
N       -0.24827238       0.10205502       1.75308758
C        0.28836400       0.66149466       0.53479909
C        1.07700723       0.43504738      -1.20877983
C        2.28561338      -0.21184291      -0.69686585
O        1.08811481      -0.77286064      -0.15710351
H       -2.37142969       0.09646163      -1.00023537
H       -2.86195546      -0.72533290       0.48355356
H       -1.41957246      -1.26073863      -0.39470825
H       -1.69555265       1.48328637       0.99647628
H       -0.18873885      -0.91042000       1.74860420
H        0.81712241       1.59343205       0.70791351
H        0.67693063      -0.01770727      -2.11772617
H        2.80980496      -0.94610177      -1.30329460
H        2.91284942       0.28443937       0.04127639
16
Frame=10 idx=009640 GeodesicLength=0.5050710348595747 rxn_smarts="[C:1]([C@@:2]1([H:11])[N:3]([H:12])[C@:4]1([C@@:5]1([H:14])[C:6]([H:15])([H:16])[O:7]1)[H:13])([H:8])([H:9])[H:10]>>[C:1]([C@@:2]1([H:11])[N:3]([H:12])[C@:4]1([O:7][C:6]([C:5][H:14])([H:15])[H:16])[H:13])([H:8])([H:9])[H:10]"
C       -2.00562425      -0.39426710      -0.08360640
C       -1.17186098       0.57602767       0.70611571
N       -0.23668984       0.11151067       1.74379313
C        0.28501584       0.66952221       0.51726901
C        1.09591220       0.44632831      -1.21114898
C        2.28580224      -0.22475402      -0.68558219
O        1.06367240      -0.77821579      -0.19254853
H       -2.39201938       0.08544916      -0.98517330
H       -2.85822451      -0.73578215       0.50665164
H       -1.42458322      -1.26479611      -0.38958840
H       -1.69820986       1.48111760       0.99826200
H       -0.16925858      -0.90056730       1.73838992
H        0.80196718       1.60916507       0.68906162
H        0.70851325       0.02414256      -2.13973262
H        2.81842257      -0.95188769      -1.29339103
H        2.89716494       0.24700690       0.08122841
16
Frame=11 idx=009640 GeodesicLength=0.5558232271604122 rxn_smarts="[C:1]([C@@:2]1([H:11])[N:3]([H:12])[C@:4]1([C@@:5]1([H:14])[C:6]([H:15])([H:16])[O:7]1)[H:13])([H:8])([H:9])[H:10]>>[C:1]([C@@:2]1([H:11])[N:3]([H:12])[C@:4]1([O:7][C:6]([C:5][H:14])([H:15])[H:16])[H:13])([H:8])([H:9])[H:10]"
C       -2.01130149      -0.40123655      -0.07219192
C       -1.17317135       0.57579484       0.70453124
N       -0.22462380       0.12096139       1.73377750
C        0.28133186       0.67813064       0.49916705
C        1.11529535       0.45775859      -1.21325198
C        2.28505566      -0.23819784      -0.67397805
O        1.03911022      -0.78203620      -0.22913515
H       -2.41260522       0.07417697      -0.96949934
H       -2.85392947      -0.74641793       0.53012630
H       -1.42951036      -1.26892310      -0.38430953
H       -1.70097543       1.47861248       1.00058753
H       -0.14863238      -0.89059180       1.72671271
H        0.78636630       1.62531531       0.66964074
H        0.74226752       0.06678672      -2.16082348
H        2.82635889      -0.95859246      -1.28223940
H        2.87896370       0.20845894       0.12088577
16
Frame=12 idx=009640 GeodesicLength=0.6070940803254599 rxn_smarts="[C:1]([C@@:2]1([H:11])[N:3]([H:12])[C@:4]1([C@@:5]1([H:14])[C:6]([H:15])([H:16])[O:7]1)[H:13])([H:8])([H:9])[H:10]>>[C:1]([C@@:2]1([H:11])[N:3]([H:12])[C@:4]1([O:7][C:6]([C:5][H:14])([H:15])[H:16])[H:13])([H:8])([H:9])[H:10]"
C       -2.01676629      -0.40840104      -0.06047447
C       -1.17448256       0.57558038       0.70298615
N       -0.21204251       0.13050355       1.72310278
C        0.27724920       0.68742598       0.48046670
C        1.13523691       0.46943734      -1.21510868
C        2.28330436      -0.25228108      -0.66206220
O        1.01442676      -0.78429013      -0.26699975
H       -2.43334499       0.06258454      -0.95319565
H       -2.84891404      -0.75742424       0.55409259
H       -1.43422762      -1.27317010      -0.37897447
H       -1.70393252       1.47587700       1.00348898
H       -0.12673118      -0.88043543       1.71360346
H        0.77023673       1.64202975       0.64966351
H        0.77841122       0.11039441      -2.18107742
H        2.83352600      -0.96643319      -1.26987035
H        2.85805053       0.16860225       0.16035881
16
Frame=13 idx=009640 GeodesicLength=0.6592114132148607 rxn_smarts="[C:1]([C@@:2]1([H:11])[N:3]([H:12])[C@:4]1([C@@:5]1([H:14])[C:6]([H:15])([H:16])[O:7]1)[H:13])([H:8])([H:9])[H:10]>>[C:1]([C@@:2]1([H:11])[N:3]([H:12])[C@:4]1([O:7][C:6]([C:5][H:14])([H:15])[H:16])[H:13])([H:8])([H:9])[H:10]"
C       -2.02197775      -0.41580676      -0.04834874
C       -1.17574016       0.57532211       0.70137674
N       -0.19890443       0.14021780       1.71147594
C        0.27275149       0.69741769       0.46099691
C        1.15587611       0.48140522      -1.21653915
C        2.28037440      -0.26703012      -0.64977097
O        0.98949117      -0.78475839      -0.30628417
H       -2.45433981       0.05053595      -0.93594198
H       -2.84300029      -0.76893881       0.57869470
H       -1.43870435      -1.27738705      -0.37357068
H       -1.70698145       1.47270045       1.00687508
H       -0.10351721      -0.86987134       1.69874351
H        0.75362898       1.65920804       0.62892842
H        0.81732385       0.15515842      -2.20018439
H        2.83964962      -0.97541877      -1.25611057
H        2.83406983       0.12724556       0.19965938
16
Frame=14 idx=009640 GeodesicLength=0.7120778165417835 rxn_smarts="[C:1]([C@@:2]1([H:11])[N:3]([H:12])[C@:4]1([C@@:5]1([H:14])[C:6]([H:15])([H:16])[O:7]1)[H:13])([H:8])([H:9])[H:10]>>[C:1]([C@@:2]1([H:11])[N:3]([H:12])[C@:4]1([O:7][C:6]([C:5][H:14])([H:15])[H:16])[H:13])([H:8])([H:9])[H:10]"
C       -2.02679155      -0.42349451      -0.03591382
C       -1.17695116       0.57508582       0.69978389
N       -0.18527348       0.15012665       1.69913660
C        0.26781372       0.70817857       0.44093677
C        1.17709055       0.49367141      -1.21751347
C        2.27614738      -0.28247406      -0.63723550
O        0.96445465      -0.78342256      -0.34691553
H       -2.47527786       0.03798733      -0.91802558
H       -2.83614623      -0.78092703       0.60373798
H       -1.44274061      -1.28176220      -0.36803593
H       -1.71016980       1.46926467       1.01075967
H       -0.07899963      -0.85894675       1.68230444
H        0.73650985       1.67698649       0.60766394
H        0.85886606       0.20095535      -2.21802116
H        2.84453868      -0.98571983      -1.24117938
H        2.80692942       0.08449065       0.23851707
16
Frame=15 idx=009640 GeodesicLength=0.7658889766327679 rxn_smarts="[C:1]([C@@:2]1([H:11])[N:3]([H:12])[C@:4]1([C@@:5]1([H:14])[C:6]([H:15])([H:16])[O:7]1)[H:13])([H:8])([H:9])[H:10]>>[C:1]([C@@:2]1([H:11])[N:3]([H:12])[C@:4]1([O:7][C:6]([C:5][H:14])([H:15])[H:16])[H:13])([H:8])([H:9])[H:10]"
C       -2.03110940      -0.43150374      -0.02317946
C       -1.17810450       0.57489010       0.69820558
N       -0.17116081       0.16030426       1.68609102
C        0.26241136       0.71976110       0.42030401
C        1.19888677       0.50623713      -1.21793031
C        2.27048505      -0.29866800      -0.62449853
O        0.93934772      -0.78017157      -0.38892841
H       -2.49611160       0.02486892      -0.89942458
H       -2.82821444      -0.79347598       0.62920081
H       -1.44618217      -1.28629184      -0.36240782
H       -1.71351202       1.46556777       1.01514512
H       -0.05314671      -0.84754963       1.66424354
H        0.71885870       1.69541505       0.58588278
H        0.90316154       0.24777325      -2.23437380
H        2.84798326      -0.99746004      -1.22512620
H        2.77640726       0.04030321       0.27679626
16
Frame=16 idx=009640 GeodesicLength=0.821079255731062 rxn_smarts="[C:1]([C@@:2]1([H:11])[N:3]([H:12])[C@:4]1([C@@:5]1([H:14])[C:6]([H:15])([H:16])[O:7]1)[H:13])([H:8])([H:9])[H:10]>>[C:1]([C@@:2]1([H:11])[N:3]([H:12])[C@:4]1([O:7][C:6]([C:5][H:14])([H:15])[H:16])[H:13])([H:8])([H:9])[H:10]"
C       -2.03483675      -0.43987312      -0.01006881
C       -1.17914454       0.57467229       0.69656043
N       -0.15653674       0.17084134       1.67208738
C        0.25653176       0.73216580       0.39898946
C        1.22132925       0.51909072      -1.21756192
C        2.26315846      -0.31562485      -0.61155364
O        0.91408094      -0.77475114      -0.43240540
H       -2.51680463       0.01101915      -0.87989379
H       -2.81901405      -0.80666505       0.65514262
H       -1.44892861      -1.29083961      -0.35662826
H       -1.71692652       1.46139681       1.01993799
H       -0.02592300      -0.83541890       1.64427053
H        0.70072970       1.71437570       0.56343789
H        0.95058918       0.29569347      -2.24880776
H        2.84961978      -1.01064632      -1.20786881
H        2.74207576      -0.00543626       0.31436209
