17
Frame=0 idx=007742 GeodesicLength=0.0 rxn_smarts="[C:1]([C:2]1=[C:3]([H:11])[C:4]([H:12])([H:13])[C:5]([H:14])([H:15])[C@:6]1([O:7][H:17])[H:16])([H:8])([H:9])[H:10]>>[C:1]([C@@:2]1([H:11])[C:3][C:4]([H:12])([H:13])[C:5]([H:14])([H:15])[C@:6]1([O:7][H:17])[H:16])([H:8])([H:9])[H:10]"
C        2.21189409       0.00218145       0.22986303
C        0.73824769      -0.24840331       0.09892369
C        0.02310393      -1.24580148       0.78790409
C       -1.43205824      -0.96873982       0.46546481
C       -1.49602531       0.07582962      -0.66611777
C       -0.15770194       0.80279172      -0.56971279
O       -0.18183623       1.96938376       0.23702681
H        2.35099783       0.90597671       0.82550227
H        2.68363431       0.17637148      -0.73938772
H        2.69846151      -0.82961171       0.73684803
H        0.63635462      -1.40511381      -0.38976295
H       -1.84602726      -0.57901274       1.40421998
H       -2.00089018      -1.87517478       0.25716023
H       -1.56151430      -0.43285748      -1.63164951
H       -2.33557259       0.76921855      -0.60458213
H        0.22228248       1.13779421      -1.53577421
H       -0.55335039       1.74516771       1.09407414
17
Frame=1 idx=007742 GeodesicLength=0.04607350936025771 rxn_smarts="[C:1]([C:2]1=[C:3]([H:11])[C:4]([H:12])([H:13])[C:5]([H:14])([H:15])[C@:6]1([O:7][H:17])[H:16])([H:8])([H:9])[H:10]>>[C:1]([C@@:2]1([H:11])[C:3][C:4]([H:12])([H:13])[C:5]([H:14])([H:15])[C@:6]1([O:7][H:17])[H:16])([H:8])([H:9])[H:10]"
C        2.21124588       0.00575008       0.23199672
C        0.73906631      -0.25100124       0.09298852
C        0.02057832      -1.24217483       0.78566199
C       -1.43393608      -0.96894208       0.46453708
C       -1.49813034       0.07722943      -0.66522725
C       -0.15763978       0.80133476      -0.57159167
O       -0.18061724       1.96997529       0.23258613
H        2.34689820       0.90764497       0.83135331
H        2.68624095       0.18446052      -0.73515490
H        2.69981286      -0.82604694       0.73725355
H        0.64230673      -1.42612491      -0.38898956
H       -1.84703034      -0.58065835       1.40458202
H       -2.00241800      -1.87555156       0.25572232
H       -1.56795012      -0.42946475      -1.63162381
H       -2.33626361       0.77220983      -0.59973348
H        0.21963487       1.13587317      -1.53899026
H       -0.54179862       1.74548658       1.09462930
17
Frame=2 idx=007742 GeodesicLength=0.09105343500155075 rxn_smarts="[C:1]([C:2]1=[C:3]([H:11])[C:4]([H:12])([H:13])[C:5]([H:14])([H:15])[C@:6]1([O:7][H:17])[H:16])([H:8])([H:9])[H:10]>>[C:1]([C@@:2]1([H:11])[C:3][C:4]([H:12])([H:13])[C:5]([H:14])([H:15])[C@:6]1([O:7][H:17])[H:16])([H:8])([H:9])[H:10]"
C        2.21055891       0.00931367       0.23404296
C        0.73991593      -0.25354442       0.08699699
C        0.01810561      -1.23865764       0.78304713
C       -1.43578096      -0.96914592       0.46353669
C       -1.50025801       0.07869657      -0.66434234
C       -0.15759771       0.79993259      -0.57348642
O       -0.17942504       1.97053934       0.22826354
H        2.34279419       0.90921078       0.83721409
H        2.68872030       0.19262681      -0.73089528
H        2.70117323      -0.82249973       0.73747142
H        0.64827145      -1.44726433      -0.38734310
H       -1.84796332      -0.58236549       1.40490616
H       -2.00395284      -1.87589823       0.25425593
H       -1.57436443      -0.42596246      -1.63156055
H       -2.33690479       0.77516650      -0.59490045
H        0.21697058       1.13402031      -1.54220969
H       -0.53026311       1.74583166       1.09500292
17
Frame=3 idx=007742 GeodesicLength=0.13493128756263656 rxn_smarts="[C:1]([C:2]1=[C:3]([H:11])[C:4]([H:12])([H:13])[C:5]([H:14])([H:15])[C@:6]1([O:7][H:17])[H:16])([H:8])([H:9])[H:10]>>[C:1]([C@@:2]1([H:11])[C:3][C:4]([H:12])([H:13])[C:5]([H:14])([H:15])[C@:6]1([O:7][H:17])[H:16])([H:8])([H:9])[H:10]"
C        2.20980886       0.01285068       0.23602314
C        0.74078715      -0.25605173       0.08092209
C        0.01567961      -1.23516140       0.78028238
C       -1.43760527      -0.96934784       0.46251062
C       -1.50234242       0.08014934      -0.66351167
C       -0.15757680       0.79864894      -0.57535239
O       -0.17825414       1.97110642       0.22410482
H        2.33871191       0.91072380       0.84293014
H        2.69108577       0.20066556      -0.72673864
H        2.70249151      -0.81898232       0.73762772
H        0.65424278      -1.46837601      -0.38500929
H       -1.84888975      -0.58410930       1.40519841
H       -2.00539286      -1.87626507       0.25264376
H       -1.58070789      -0.42241595      -1.63146108
H       -2.33750570       0.77811711      -0.59006745
H        0.21428664       1.13228071      -1.54536856
H       -0.51881939       1.74616705       1.09526599
17
Frame=4 idx=007742 GeodesicLength=0.17798626033415374 rxn_smarts="[C:1]([C:2]1=[C:3]([H:11])[C:4]([H:12])([H:13])[C:5]([H:14])([H:15])[C@:6]1([O:7][H:17])[H:16])([H:8])([H:9])[H:10]>>[C:1]([C@@:2]1([H:11])[C:3][C:4]([H:12])([H:13])[C:5]([H:14])([H:15])[C@:6]1([O:7][H:17])[H:16])([H:8])([H:9])[H:10]"
C        2.20903869       0.01632442       0.23788837
C        0.74166273      -0.25847452       0.07481318
C        0.01331032      -1.23176443       0.77716013
C       -1.43942191      -0.96952518       0.46142616
C       -1.50443211       0.08169677      -0.66265937
C       -0.15758489       0.79743755      -0.57720039
O       -0.17710136       1.97169772       0.22002045
H        2.33462031       0.91214422       0.84857608
H        2.69328444       0.20866485      -0.72257172
H        2.70384117      -0.81541335       0.73766451
H        0.66030751      -1.48960233      -0.38178970
H       -1.84976868      -0.58593794       1.40543873
H       -2.00675912      -1.87663381       0.25087819
H       -1.58703939      -0.41876798      -1.63134119
H       -2.33811344       0.78110868      -0.58520162
H        0.21157445       1.13054131      -1.54851727
H       -0.50741872       1.74650401       1.09541546
17
Frame=5 idx=007742 GeodesicLength=0.22036570651476417 rxn_smarts="[C:1]([C:2]1=[C:3]([H:11])[C:4]([H:12])([H:13])[C:5]([H:14])([H:15])[C@:6]1([O:7][H:17])[H:16])([H:8])([H:9])[H:10]>>[C:1]([C@@:2]1([H:11])[C:3][C:4]([H:12])([H:13])[C:5]([H:14])([H:15])[C@:6]1([O:7][H:17])[H:16])([H:8])([H:9])[H:10]"
C        2.20819451       0.01983315       0.23979986
C        0.74258934      -0.26097710       0.06854001
C        0.01095307      -1.22840890       0.77383258
C       -1.44124006      -0.96970226       0.46031291
C       -1.50649762       0.08327160      -0.66180295
C       -0.15759749       0.79622364      -0.57910016
O       -0.17594618       1.97230096       0.21592528
H        2.33047507       0.91353037       0.85424193
H        2.69541638       0.21672908      -0.71842700
H        2.70519746      -0.81186891       0.73765955
H        0.66646183      -1.51090664      -0.37807330
H       -1.85060879      -0.58779043       1.40571476
H       -2.00813251      -1.87700015       0.24901698
H       -1.59337993      -0.41503525      -1.63117619
H       -2.33869980       0.78415572      -0.58022928
H        0.20882525       1.12884486      -1.55169661
H       -0.49601052       1.74680027       1.09546165
17
Frame=6 idx=007742 GeodesicLength=0.26201388025029043 rxn_smarts="[C:1]([C:2]1=[C:3]([H:11])[C:4]([H:12])([H:13])[C:5]([H:14])([H:15])[C@:6]1([O:7][H:17])[H:16])([H:8])([H:9])[H:10]>>[C:1]([C@@:2]1([H:11])[C:3][C:4]([H:12])([H:13])[C:5]([H:14])([H:15])[C@:6]1([O:7][H:17])[H:16])([H:8])([H:9])[H:10]"
C        2.20736543       0.02327117       0.24154197
C        0.74351600      -0.26339875       0.06228884
C        0.00862639      -1.22507530       0.77035765
C       -1.44303655      -0.96988463       0.45913970
C       -1.50856062       0.08488594      -0.66096460
C       -0.15764598       0.79513358      -0.58090422
O       -0.17484744       1.97289267       0.21204057
H        2.32644297       0.91489618       0.85960624
H        2.69737392       0.22449727      -0.71438812
H        2.70648164      -0.80826119       0.73765909
H        0.67266040      -1.53217532      -0.37368403
H       -1.85146960      -0.58971089       1.40591265
H       -2.00939648      -1.87738476       0.24706089
H       -1.59961460      -0.41125466      -1.63103617
H       -2.33921871       0.78715838      -0.57536595
H        0.20606491       1.12732871      -1.55474290
H       -0.48474167       1.74708160       1.09547839
17
Frame=7 idx=007742 GeodesicLength=0.30283320371243616 rxn_smarts="[C:1]([C:2]1=[C:3]([H:11])[C:4]([H:12])([H:13])[C:5]([H:14])([H:15])[C@:6]1([O:7][H:17])[H:16])([H:8])([H:9])[H:10]>>[C:1]([C@@:2]1([H:11])[C:3][C:4]([H:12])([H:13])[C:5]([H:14])([H:15])[C@:6]1([O:7][H:17])[H:16])([H:8])([H:9])[H:10]"
C        2.20648221       0.02670311       0.24323539
C        0.74445403      -0.26575605       0.05598780
C        0.00634086      -1.22182810       0.76662150
C       -1.44482150      -0.97005182       0.45790095
C       -1.51059443       0.08653735      -0.66015532
C       -0.15772044       0.79415828      -0.58268654
O       -0.17376401       1.97348468       0.20830516
H        2.32242141       0.91620485       0.86485696
H        2.69924210       0.23218217      -0.71048503
H        2.70777411      -0.80469740       0.73753920
H        0.67893713      -1.55346796      -0.36839657
H       -1.85231447      -0.59170950       1.40606566
H       -2.01064248      -1.87778137       0.24495713
H       -1.60577917      -0.40740621      -1.63088218
H       -2.33973713       0.79017586      -0.57046147
H        0.20327004       1.12591842      -1.55775455
H       -0.47354824       1.74733369       1.09535191
17
Frame=8 idx=007742 GeodesicLength=0.3428824936140403 rxn_smarts="[C:1]([C:2]1=[C:3]([H:11])[C:4]([H:12])([H:13])[C:5]([H:14])([H:15])[C@:6]1([O:7][H:17])[H:16])([H:8])([H:9])[H:10]>>[C:1]([C@@:2]1([H:11])[C:3][C:4]([H:12])([H:13])[C:5]([H:14])([H:15])[C@:6]1([O:7][H:17])[H:16])([H:8])([H:9])[H:10]"
C        2.20556085       0.03001300       0.24479338
C        0.74539329      -0.26801556       0.04971287
C        0.00409738      -1.21860562       0.76270468
C       -1.44658733      -0.97023161       0.45660356
C       -1.51262866       0.08825184      -0.65934788
C       -0.15782453       0.79330358      -0.58439216
O       -0.17272418       1.97408390       0.20485232
H        2.31848925       0.91745573       0.86984871
H        2.70095991       0.23964682      -0.70673491
H        2.70904238      -0.80114047       0.73733552
H        0.68521874      -1.57470765      -0.36226722
H       -1.85319259      -0.59376678       1.40613874
H       -2.01173326      -1.87820756       0.24269744
H       -1.61179424      -0.40353021      -1.63076729
H       -2.34023672       0.79312709      -0.56561545
H        0.20045223       1.12469855      -1.56064960
H       -0.46249251       1.74762495       1.09508729
17
Frame=9 idx=007742 GeodesicLength=0.3829968577801277 rxn_smarts="[C:1]([C:2]1=[C:3]([H:11])[C:4]([H:12])([H:13])[C:5]([H:14])([H:15])[C@:6]1([O:7][H:17])[H:16])([H:8])([H:9])[H:10]>>[C:1]([C@@:2]1([H:11])[C:3][C:4]([H:12])([H:13])[C:5]([H:14])([H:15])[C@:6]1([O:7][H:17])[H:16])([H:8])([H:9])[H:10]"
C        2.20455946       0.03340046       0.24630613
C        0.74637565      -0.27026740       0.04323327
C        0.00189250      -1.21534399       0.75857147
C       -1.44830892      -0.97040326       0.45526331
C       -1.51462287       0.08996932      -0.65861692
C       -0.15795394       0.79255262      -0.58607555
O       -0.17171705       1.97471828       0.20143689
H        2.31451689       0.91865983       0.87493801
H        2.70248519       0.24716277      -0.70300665
H        2.71028144      -0.79765007       0.73692269
H        0.69159083      -1.59626971      -0.35543389
H       -1.85405116      -0.59586338       1.40620130
H       -2.01281176      -1.87862211       0.24034156
H       -1.61775699      -0.39957892      -1.63061223
H       -2.34066025       0.79611935      -0.56071136
H        0.19760695       1.12350289      -1.56355812
H       -0.45142596       1.74791330       1.09480009
17
Frame=10 idx=007742 GeodesicLength=0.4223463835064326 rxn_smarts="[C:1]([C:2]1=[C:3]([H:11])[C:4]([H:12])([H:13])[C:5]([H:14])([H:15])[C@:6]1([O:7][H:17])[H:16])([H:8])([H:9])[H:10]>>[C:1]([C@@:2]1([H:11])[C:3][C:4]([H:12])([H:13])[C:5]([H:14])([H:15])[C@:6]1([O:7][H:17])[H:16])([H:8])([H:9])[H:10]"
C        2.20353384       0.03678234       0.24776659
C        0.74739188      -0.27253243       0.03654302
C       -0.00026385      -1.21217326       0.75407545
C       -1.45002095      -0.97054440       0.45386856
C       -1.51661654       0.09176454      -0.65786579
C       -0.15809903       0.79190069      -0.58778844
O       -0.17073390       1.97533174       0.19819210
H        2.31053590       0.91977912       0.87998567
H        2.70388406       0.25470655      -0.69930201
H        2.71150205      -0.79417743       0.73636852
H        0.69797130      -1.61791092      -0.34753036
H       -1.85481086      -0.59807935       1.40620701
H       -2.01381523      -1.87904443       0.23782024
H       -1.62372448      -0.39550343      -1.63042320
H       -2.34108529       0.79914561      -0.55575867
H        0.19472344       1.12237517      -1.56645577
H       -0.44037234       1.74817992       1.09429707
17
Frame=11 idx=007742 GeodesicLength=0.4609595797195667 rxn_smarts="[C:1]([C:2]1=[C:3]([H:11])[C:4]([H:12])([H:13])[C:5]([H:14])([H:15])[C@:6]1([O:7][H:17])[H:16])([H:8])([H:9])[H:10]>>[C:1]([C@@:2]1([H:11])[C:3][C:4]([H:12])([H:13])[C:5]([H:14])([H:15])[C@:6]1([O:7][H:17])[H:16])([H:8])([H:9])[H:10]"
C        2.20248912       0.04004059       0.24904642
C        0.74839225      -0.27469369       0.02995022
C       -0.00237080      -1.20909665       0.74939105
C       -1.45171079      -0.97069788       0.45242214
C       -1.51861259       0.09360176      -0.65716474
C       -0.15828293       0.79136809      -0.58942275
O       -0.16979854       1.97596994       0.19516686
H        2.30669211       0.92085543       0.88469023
H        2.70518119       0.26200316      -0.69580454
H        2.71270682      -0.79068995       0.73576586
H        0.70439657      -1.63940478      -0.33873504
H       -1.85563624      -0.60033317       1.40611924
H       -2.01474713      -1.87947973       0.23515870
H       -1.62954207      -0.39140451      -1.63028166
H       -2.34149035       0.80210907      -0.55092854
H        0.19182148       1.12145950      -1.56922346
H       -0.42948809       1.74839281       1.09385001
17
Frame=12 idx=007742 GeodesicLength=0.4990581930728255 rxn_smarts="[C:1]([C:2]1=[C:3]([H:11])[C:4]([H:12])([H:13])[C:5]([H:14])([H:15])[C@:6]1([O:7][H:17])[H:16])([H:8])([H:9])[H:10]>>[C:1]([C@@:2]1([H:11])[C:3][C:4]([H:12])([H:13])[C:5]([H:14])([H:15])[C@:6]1([O:7][H:17])[H:16])([H:8])([H:9])[H:10]"
C        2.20141933       0.04328010       0.25025551
C        0.74939998      -0.27684139       0.02322493
C       -0.00444708      -1.20610322       0.74440489
C       -1.45337981      -0.97087543       0.45083259
C       -1.52061375       0.09551667      -0.65640486
C       -0.15848762       0.79091277      -0.59106956
O       -0.16886806       1.97660252       0.19219900
H        2.30285700       0.92189963       0.88930832
H        2.70637520       0.26921453      -0.69239010
H        2.71389125      -0.78719051       0.73510271
H        0.71090465      -1.66093965      -0.32888979
H       -1.85642529      -0.60272511       1.40594294
H       -2.01558977      -1.87995646       0.23227095
H       -1.63541547      -0.38712952      -1.63011812
H       -2.34188693       0.80510272      -0.54597808
H        0.18885503       1.12062007      -1.57199267
H       -0.41858866       1.74861230       1.09330135
17
Frame=13 idx=007742 GeodesicLength=0.5362185968011837 rxn_smarts="[C:1]([C:2]1=[C:3]([H:11])[C:4]([H:12])([H:13])[C:5]([H:14])([H:15])[C@:6]1([O:7][H:17])[H:16])([H:8])([H:9])[H:10]>>[C:1]([C@@:2]1([H:11])[C:3][C:4]([H:12])([H:13])[C:5]([H:14])([H:15])[C@:6]1([O:7][H:17])[H:16])([H:8])([H:9])[H:10]"
C        2.20033039       0.04649602       0.25133730
C        0.75044197      -0.27901395       0.01638781
C       -0.00645984      -1.20323984       0.73909522
C       -1.45503768      -0.97105844       0.44918383
C       -1.52260631       0.09745396      -0.65572957
C       -0.15870985       0.79051530      -0.59270904
O       -0.16796998       1.97720451       0.18942763
H        2.29903746       0.92285775       0.89376399
H        2.70747933       0.27633639      -0.68907911
H        2.71511090      -0.78368400       0.73433470
H        0.71736016      -1.68229083      -0.31797069
H       -1.85719071      -0.60516095       1.40573911
H       -2.01639014      -1.88044885       0.22926274
H       -1.64125439      -0.38279016      -1.63000912
H       -2.34224147       0.80811920      -0.54102183
H        0.18587341       1.11996596      -1.57468250
H       -0.40777324       1.74873795       1.09266953
17
Frame=14 idx=007742 GeodesicLength=0.5726732257285156 rxn_smarts="[C:1]([C:2]1=[C:3]([H:11])[C:4]([H:12])([H:13])[C:5]([H:14])([H:15])[C@:6]1([O:7][H:17])[H:16])([H:8])([H:9])[H:10]>>[C:1]([C@@:2]1([H:11])[C:3][C:4]([H:12])([H:13])[C:5]([H:14])([H:15])[C@:6]1([O:7][H:17])[H:16])([H:8])([H:9])[H:10]"
C        2.19921803       0.04962125       0.25228958
C        0.75148257      -0.28115665       0.00944102
C       -0.00842950      -1.20044295       0.73354004
C       -1.45667125      -0.97125966       0.44741901
C       -1.52458826       0.09944810      -0.65506634
C       -0.15895927       0.79025209      -0.59430841
O       -0.16709569       1.97781993       0.18682274
H        2.29529530       0.92377183       0.89800260
H        2.70847374       0.28327550      -0.68593569
H        2.71625728      -0.78021081       0.73345917
H        0.72385685      -1.70348817      -0.30586696
H       -1.85793074      -0.60772735       1.40545257
H       -2.01708379      -1.88098395       0.22603979
H       -1.64702363      -0.37836638      -1.62992332
H       -2.34259531       0.81112898      -0.53606588
H        0.18284411       1.11950893      -1.57731190
H       -0.39705043       1.74880930       1.09201198
17
Frame=15 idx=007742 GeodesicLength=0.6083260113851535 rxn_smarts="[C:1]([C:2]1=[C:3]([H:11])[C:4]([H:12])([H:13])[C:5]([H:14])([H:15])[C@:6]1([O:7][H:17])[H:16])([H:8])([H:9])[H:10]>>[C:1]([C@@:2]1([H:11])[C:3][C:4]([H:12])([H:13])[C:5]([H:14])([H:15])[C@:6]1([O:7][H:17])[H:16])([H:8])([H:9])[H:10]"
C        2.19803465       0.05269496       0.25310689
C        0.75255731      -0.28335643       0.00234515
C       -0.01032889      -1.19777917       0.72766120
C       -1.45826237      -0.97147516       0.44561466
C       -1.52659554       0.10152401      -0.65441754
C       -0.15922849       0.79004995      -0.59590214
O       -0.16622379       1.97841779       0.18442794
H        2.29156284       0.92461517       0.90215529
H        2.70938061       0.29011348      -0.68293455
H        2.71741147      -0.77678053       0.73244097
H        0.73035519      -1.72444113      -0.29261035
H       -1.85865452      -0.61037588       1.40508023
H       -2.01770593      -1.88151910       0.22265816
H       -1.65278832      -0.37382265      -1.62986937
H       -2.34288274       0.81406066      -0.53111947
H        0.17978299       1.11921354      -1.57988938
H       -0.38641446       1.74886050       1.09125231
17
Frame=16 idx=007742 GeodesicLength=0.643591826526833 rxn_smarts="[C:1]([C:2]1=[C:3]([H:11])[C:4]([H:12])([H:13])[C:5]([H:14])([H:15])[C@:6]1([O:7][H:17])[H:16])([H:8])([H:9])[H:10]>>[C:1]([C@@:2]1([H:11])[C:3][C:4]([H:12])([H:13])[C:5]([H:14])([H:15])[C@:6]1([O:7][H:17])[H:16])([H:8])([H:9])[H:10]"
C        2.19684166       0.05572709       0.25382932
C        0.75363777      -0.28553991      -0.00481481
C       -0.01220043      -1.19515051       0.72159154
C       -1.45984179      -0.97171175       0.44369234
C       -1.52858469       0.10363703      -0.65378907
C       -0.15952470       0.78996084      -0.59743237
O       -0.16539332       1.97901823       0.18217683
H        2.28792852       0.92543028       0.90603128
H        2.71018074       0.29677023      -0.68006908
H        2.71855457      -0.77338431       0.73132099
H        0.73687150      -1.74525831      -0.27834219
H       -1.85940745      -0.61312474       1.40460020
H       -2.01822772      -1.88209454       0.21908550
H       -1.65846589      -0.36918868      -1.62981193
H       -2.34318042       0.81700577      -0.52618502
H        0.17667605       1.11907553      -1.58239003
H       -0.37586439       1.74882774       1.09050649
