13
Frame=0 idx=004828 GeodesicLength=0.0 rxn_smarts="[C:1]([C@@:2]1([H:10])[N:3]([H:11])[C:4]([H:12])([H:13])[C:5]1=[O:6])([H:7])([H:8])[H:9]>>[C:1]([C@@:2]([N:3]([C:4][H:12])[H:11])([C:5](=[O:6])[H:13])[H:10])([H:7])([H:8])[H:9]"
C       -1.64953662      -0.08413960      -0.10698174
C       -0.27402270      -0.21811956       0.48909694
N        0.68834575      -1.03252391      -0.28267409
C        1.46279293      -0.01365007      -0.62799885
C        0.67800534       1.02020105       0.13897608
O        0.37221315       2.20926530      -0.03206401
H       -2.24398006      -0.99172919       0.01199348
H       -1.58196867       0.16523082      -1.16647561
H       -2.15777135       0.74170100       0.39264612
H       -0.29842664      -0.52645773       1.53776501
H        0.99551001      -1.97130548      -0.07257439
H        2.40374779      -0.05843725      -1.16873469
H        1.60509104       0.75996464       0.88702576
13
Frame=1 idx=004828 GeodesicLength=0.08331076476650265 rxn_smarts="[C:1]([C@@:2]1([H:10])[N:3]([H:11])[C:4]([H:12])([H:13])[C:5]1=[O:6])([H:7])([H:8])[H:9]>>[C:1]([C@@:2]([N:3]([C:4][H:12])[H:11])([C:5](=[O:6])[H:13])[H:10])([H:7])([H:8])[H:9]"
C       -1.64930384      -0.08493660      -0.11291631
C       -0.27501036      -0.21340712       0.48819606
N        0.68813062      -1.02985502      -0.28027617
C        1.47776286      -0.01650876      -0.62004792
C        0.67116812       1.02782052       0.15336666
O        0.35992775       2.21408710      -0.00604977
H       -2.23747149      -0.99710502       0.00209258
H       -1.57951708       0.16562341      -1.17198862
H       -2.16509901       0.73655647       0.38604688
H       -0.30297782      -0.51851611       1.53790418
H        0.99065583      -1.96610142      -0.05247400
H        2.39210245      -0.07508019      -1.20327912
H        1.62963196       0.75742275       0.87942555
13
Frame=2 idx=004828 GeodesicLength=0.16660551098098908 rxn_smarts="[C:1]([C@@:2]1([H:10])[N:3]([H:11])[C:4]([H:12])([H:13])[C:5]1=[O:6])([H:7])([H:8])[H:9]>>[C:1]([C@@:2]([N:3]([C:4][H:12])[H:11])([C:5](=[O:6])[H:13])[H:10])([H:7])([H:8])[H:9]"
C       -1.64867892      -0.08569038      -0.11909445
C       -0.27582242      -0.20870370       0.48744659
N        0.68832729      -1.02724785      -0.27728752
C        1.49314780      -0.01978640      -0.61200855
C        0.66449533       1.03535341       0.16834383
O        0.34771384       2.21865638       0.02039154
H       -2.23059534      -1.00235595      -0.00819866
H       -1.57632114       0.16606819      -1.17771313
H       -2.17212672       0.73141744       0.37901547
H       -0.30771125      -0.51070692       1.53813198
H        0.98584381      -1.96083471      -0.03224066
H        2.37760394      -0.09166213      -1.23829967
H        1.65412376       0.75549263       0.87151323
13
Frame=3 idx=004828 GeodesicLength=0.2499069084515125 rxn_smarts="[C:1]([C@@:2]1([H:10])[N:3]([H:11])[C:4]([H:12])([H:13])[C:5]1=[O:6])([H:7])([H:8])[H:9]>>[C:1]([C@@:2]([N:3]([C:4][H:12])[H:11])([C:5](=[O:6])[H:13])[H:10])([H:7])([H:8])[H:9]"
C       -1.64773828      -0.08638988      -0.12542318
C       -0.27645928      -0.20402128       0.48677120
N        0.68885137      -1.02470356      -0.27391226
C        1.50882083      -0.02348650      -0.60422215
C        0.65792873       1.04279874       0.18373643
O        0.33551010       2.22298101       0.04711058
H       -2.22342493      -1.00746632      -0.01870520
H       -1.57258372       0.16658482      -1.18356838
H       -2.17886681       0.72630043       0.37171017
H       -0.31250728      -0.50307950       1.53837062
H        0.98105338      -1.95551405      -0.01208863
H        2.36081524      -0.10815264      -1.27275889
H        1.67860066       0.75414871       0.86297968
13
Frame=4 idx=004828 GeodesicLength=0.3331246534012175 rxn_smarts="[C:1]([C@@:2]1([H:10])[N:3]([H:11])[C:4]([H:12])([H:13])[C:5]1=[O:6])([H:7])([H:8])[H:9]>>[C:1]([C@@:2]([N:3]([C:4][H:12])[H:11])([C:5](=[O:6])[H:13])[H:10])([H:7])([H:8])[H:9]"
C       -1.64659184      -0.08704017      -0.13175236
C       -0.27693572      -0.19935420       0.48606033
N        0.68953816      -1.02216777      -0.27045204
C        1.52452513      -0.02753889      -0.59712491
C        0.65136532       1.05018435       0.19934720
O        0.32321761       2.22707223       0.07395050
H       -2.21604624      -1.01244452      -0.02920548
H       -1.56861231       0.16718353      -1.18939218
H       -2.18532475       0.72117890       0.36439525
H       -0.31718992      -0.49567086       1.53848320
H        0.97618005      -1.95008745       0.00760245
H        2.34281837      -0.12473683      -1.30530932
H        1.70305613       0.75342168       0.85339738
13
Frame=5 idx=004828 GeodesicLength=0.4163403517211701 rxn_smarts="[C:1]([C@@:2]1([H:10])[N:3]([H:11])[C:4]([H:12])([H:13])[C:5]1=[O:6])([H:7])([H:8])[H:9]>>[C:1]([C@@:2]([N:3]([C:4][H:12])[H:11])([C:5](=[O:6])[H:13])[H:10])([H:7])([H:8])[H:9]"
C       -1.64532220      -0.08761707      -0.13802598
C       -0.27728696      -0.19471787       0.48529902
N        0.69033403      -1.01966341      -0.26699603
C        1.54015265      -0.03195193      -0.59090648
C        0.64474307       1.05751047       0.21514406
O        0.31076968       2.23095177       0.10087508
H       -2.20854064      -1.01727051      -0.03962225
H       -1.56453443       0.16791789      -1.19513905
H       -2.19157200       0.71608544       0.35716629
H       -0.32175041      -0.48853877       1.53846155
H        0.97127125      -1.94457308       0.02680370
H        2.32424394      -0.14141036      -1.33562048
H        1.72749201       0.75327741       0.84256058
13
Frame=6 idx=004828 GeodesicLength=0.4994966326348534 rxn_smarts="[C:1]([C@@:2]1([H:10])[N:3]([H:11])[C:4]([H:12])([H:13])[C:5]1=[O:6])([H:7])([H:8])[H:9]>>[C:1]([C@@:2]([N:3]([C:4][H:12])[H:11])([C:5](=[O:6])[H:13])[H:10])([H:7])([H:8])[H:9]"
C       -1.64396079      -0.08811224      -0.14421785
C       -0.27753820      -0.19011793       0.48448809
N        0.69117277      -1.01717872      -0.26358014
C        1.55560160      -0.03671327      -0.58564834
C        0.63802137       1.06476497       0.23115381
O        0.29814382       2.23459343       0.12788850
H       -2.20093979      -1.02192999      -0.04994553
H       -1.56040384       0.16882382      -1.20077703
H       -2.19761844       0.71100866       0.35007240
H       -0.32619435      -0.48171905       1.53830062
H        0.96633171      -1.93892963       0.04553742
H        2.30550208      -0.15820867      -1.36360733
H        1.75188206       0.75371863       0.83033537
13
Frame=7 idx=004828 GeodesicLength=0.5826319684419262 rxn_smarts="[C:1]([C@@:2]1([H:10])[N:3]([H:11])[C:4]([H:12])([H:13])[C:5]1=[O:6])([H:7])([H:8])[H:9]>>[C:1]([C@@:2]([N:3]([C:4][H:12])[H:11])([C:5](=[O:6])[H:13])[H:10])([H:7])([H:8])[H:9]"
C       -1.64255702      -0.08851898      -0.15030209
C       -0.27772310      -0.18554451       0.48363693
N        0.69201450      -1.01469326      -0.26023712
C        1.57078889      -0.04178290      -0.58144660
C        0.63115447       1.07197057       0.24742364
O        0.28528779       2.23802370       0.15507928
H       -2.19328043      -1.02643410      -0.06018937
H       -1.55628012       0.16994451      -1.20627356
H       -2.20352529       0.70593225       0.34318065
H       -0.33054614      -0.47523329       1.53800514
H        0.96138460      -1.93312794       0.06379108
H        2.28707155      -0.17533860      -1.38923514
H        1.77621030       0.75480255       0.81656715
13
Frame=8 idx=004828 GeodesicLength=0.6657540882023674 rxn_smarts="[C:1]([C@@:2]1([H:10])[N:3]([H:11])[C:4]([H:12])([H:13])[C:5]1=[O:6])([H:7])([H:8])[H:9]>>[C:1]([C@@:2]([N:3]([C:4][H:12])[H:11])([C:5](=[O:6])[H:13])[H:10])([H:7])([H:8])[H:9]"
C       -1.64111303      -0.08882535      -0.15629035
C       -0.27785770      -0.18100285       0.48277386
N        0.69285614      -1.01222216      -0.25692732
C        1.58573629      -0.04718731      -0.57822237
C        0.62413186       1.07911876       0.26404764
O        0.27219985       2.24123610       0.18247640
H       -2.18557562      -1.03077070      -0.07040160
H       -1.55213175       0.17131023      -1.21162868
H       -2.20930985       0.70086853       0.33647434
H       -0.33486246      -0.46910857       1.53759375
H        0.95646585      -1.92717717       0.08165130
H        2.26903476      -0.19281098      -1.41278789
H        1.80042568       0.75657147       0.80124092
13
Frame=9 idx=004828 GeodesicLength=0.7488497467145349 rxn_smarts="[C:1]([C@@:2]1([H:10])[N:3]([H:11])[C:4]([H:12])([H:13])[C:5]1=[O:6])([H:7])([H:8])[H:9]>>[C:1]([C@@:2]([N:3]([C:4][H:12])[H:11])([C:5](=[O:6])[H:13])[H:10])([H:7])([H:8])[H:9]"
C       -1.63962946      -0.08902073      -0.16218515
C       -0.27795388      -0.17649359       0.48192391
N        0.69368909      -1.00975562      -0.25362917
C        1.60045561      -0.05293363      -0.57591940
C        0.61693761       1.08620242       0.28110604
O        0.25886830       2.24421894       0.21009811
H       -2.17782755      -1.03492970      -0.08061757
H       -1.54794055       0.17295995      -1.21683827
H       -2.21498332       0.69581211       0.32995778
H       -0.33918162      -0.46337656       1.53708636
H        0.95158372      -1.92106996       0.09915655
H        2.25151854      -0.21069559      -1.43445912
H        1.82446351       0.75908196       0.78431992
13
Frame=10 idx=004828 GeodesicLength=0.8319203982498717 rxn_smarts="[C:1]([C@@:2]1([H:10])[N:3]([H:11])[C:4]([H:12])([H:13])[C:5]1=[O:6])([H:7])([H:8])[H:9]>>[C:1]([C@@:2]([N:3]([C:4][H:12])[H:11])([C:5](=[O:6])[H:13])[H:10])([H:7])([H:8])[H:9]"
C       -1.63810204      -0.08909446      -0.16799566
C       -0.27801853      -0.17201787       0.48111490
N        0.69451680      -1.00728956      -0.25031096
C        1.61498102      -0.05903832      -0.57446439
C        0.60956575       1.09321291       0.29868668
O        0.24528900       2.24696408       0.23796119
H       -2.17003682      -1.03890225      -0.09088079
H       -1.54367631       0.17493096      -1.22190412
H       -2.22055626       0.69076216       0.32362275
H       -0.34354441      -0.45806782       1.53650487
H        0.94675105      -1.91481039       0.11635323
H        2.23457047      -0.22904693      -1.45446238
H        1.84826028       0.76239748       0.76577468
13
Frame=11 idx=004828 GeodesicLength=0.914955397265073 rxn_smarts="[C:1]([C@@:2]1([H:10])[N:3]([H:11])[C:4]([H:12])([H:13])[C:5]1=[O:6])([H:7])([H:8])[H:9]>>[C:1]([C@@:2]([N:3]([C:4][H:12])[H:11])([C:5](=[O:6])[H:13])[H:10])([H:7])([H:8])[H:9]"
C       -1.63649377      -0.08903229      -0.17374339
C       -0.27804913      -0.16757506       0.48037543
N        0.69535682      -1.00482839      -0.24691939
C        1.62935043      -0.06553784      -0.57376519
C        0.60200944       1.10013075       0.31689003
O        0.23145478       2.24945350       0.26610064
H       -2.16216587      -1.04266900      -0.10125385
H       -1.53926000       0.17725432      -1.22682813
H       -2.22601056       0.68572800       0.31743461
H       -0.34799738      -0.45319993       1.53586042
H        0.94199758      -1.90840366       0.13331073
H        2.21807636      -0.24790032      -1.47303393
H        1.87173129       0.76657992       0.74557201
13
Frame=12 idx=004828 GeodesicLength=0.9979682451011687 rxn_smarts="[C:1]([C@@:2]1([H:10])[N:3]([H:11])[C:4]([H:12])([H:13])[C:5]1=[O:6])([H:7])([H:8])[H:9]>>[C:1]([C@@:2]([N:3]([C:4][H:12])[H:11])([C:5](=[O:6])[H:13])[H:10])([H:7])([H:8])[H:9]"
C       -1.63478133      -0.08882447      -0.17946392
C       -0.27805018      -0.16316518       0.47974983
N        0.69622683      -1.00238157      -0.24337072
C        1.64358437      -0.07246448      -0.57378332
C        0.59428644       1.10693214       0.33582319
O        0.21738377       2.25166771       0.29461583
H       -2.15419515      -1.04622609      -0.11183349
H       -1.53460757       0.17997708      -1.23163795
H       -2.23135581       0.68069869       0.31134257
H       -0.35260754      -0.44879167       1.53519642
H        0.93736125      -1.90183952       0.15017689
H        2.20191875      -0.26727562      -1.49043134
H        1.89483615       0.77169297       0.72361600
13
Frame=13 idx=004828 GeodesicLength=1.0809521221968692 rxn_smarts="[C:1]([C@@:2]1([H:10])[N:3]([H:11])[C:4]([H:12])([H:13])[C:5]1=[O:6])([H:7])([H:8])[H:9]>>[C:1]([C@@:2]([N:3]([C:4][H:12])[H:11])([C:5](=[O:6])[H:13])[H:10])([H:7])([H:8])[H:9]"
C       -1.63295875      -0.08845570      -0.18514459
C       -0.27801513      -0.15879188       0.47925099
N        0.69713123      -0.99993330      -0.23968026
C        1.65774463      -0.07984214      -0.57443424
C        0.58638437       1.11360183       0.35555659
O        0.20306110       2.25359387       0.32344216
H       -2.14612671      -1.04955120      -0.12261655
H       -1.52971368       0.18313599      -1.23631063
H       -2.23658349       0.67568352       0.30537057
H       -0.35738155      -0.44488631       1.53451126
H        0.93282567      -1.89513979       0.16689157
H        2.18618030      -0.28723827      -1.50669010
H        1.91745202       0.77782337       0.69985322
13
Frame=14 idx=004828 GeodesicLength=1.1639028605295754 rxn_smarts="[C:1]([C@@:2]1([H:10])[N:3]([H:11])[C:4]([H:12])([H:13])[C:5]1=[O:6])([H:7])([H:8])[H:9]>>[C:1]([C@@:2]([N:3]([C:4][H:12])[H:11])([C:5](=[O:6])[H:13])[H:10])([H:7])([H:8])[H:9]"
C       -1.63097605      -0.08790856      -0.19081952
C       -0.27793760      -0.15445267       0.47891652
N        0.69808977      -0.99750034      -0.23577023
C        1.67183101      -0.08772182      -0.57568544
C        0.57830811       1.12010990       0.37620036
O        0.18848159       2.25521053       0.35270309
H       -2.13790032      -1.05263020      -0.13370900
H       -1.52447174       0.18678601      -1.24085453
H       -2.24167433       0.67068272       0.29946978
H       -0.36237146      -0.44149414       1.53382448
H        0.92843332      -1.88829986       0.18358504
H        2.17070591      -0.30783948      -1.52198183
H        1.93948180       0.78505790       0.67412128
13
Frame=15 idx=004828 GeodesicLength=1.24684259087328 rxn_smarts="[C:1]([C@@:2]1([H:10])[N:3]([H:11])[C:4]([H:12])([H:13])[C:5]1=[O:6])([H:7])([H:8])[H:9]>>[C:1]([C@@:2]([N:3]([C:4][H:12])[H:11])([C:5](=[O:6])[H:13])[H:10])([H:7])([H:8])[H:9]"
C       -1.62881048      -0.08716695      -0.19651284
C       -0.27781107      -0.15015435       0.47878654
N        0.69912617      -0.99508964      -0.23158261
C        1.68589755      -0.09614858      -0.57748199
C        0.57007698       1.12642189       0.39786236
O        0.17366406       2.25649159       0.38244368
H       -2.12950743      -1.05544439      -0.14517476
H       -1.51881064       0.19097269      -1.24528727
H       -2.24662530       0.66570156       0.29360193
H       -0.36762552      -0.43865513       1.53316942
H        0.92420765      -1.88133147       0.20033695
H        2.15539602      -0.32909255      -1.53643369
H        1.96082200       0.79349534       0.64627229
13
Frame=16 idx=004828 GeodesicLength=1.3297490105575878 rxn_smarts="[C:1]([C@@:2]1([H:10])[N:3]([H:11])[C:4]([H:12])([H:13])[C:5]1=[O:6])([H:7])([H:8])[H:9]>>[C:1]([C@@:2]([N:3]([C:4][H:12])[H:11])([C:5](=[O:6])[H:13])[H:10])([H:7])([H:8])[H:9]"
C       -1.62640065      -0.08620716      -0.20224408
C       -0.27762042      -0.14589935       0.47889303
N        0.70026012      -0.99271276      -0.22705973
C        1.69996703      -0.10518962      -0.57976005
C        0.56169114       1.13249407       0.42065139
O        0.15860729       2.25740073       0.41272846
H       -2.12088282      -1.05796087      -0.15708312
H       -1.51262079       0.19574197      -1.24959818
H       -2.25139016       0.66075553       0.28772899
H       -0.37318389      -0.43639542       1.53254701
H        0.92016564      -1.87424487       0.21721204
H        2.14011608      -0.35102376      -1.55011933
H        1.98129143       0.80324150       0.61610357
