8
Frame=0 idx=001041 GeodesicLength=0.0 rxn_smarts="[c:1]1([H:7])[n:2][n:3][n:4][c:5]([H:8])[n:6]1>>[C:1](#[N:2])[H:7].[C:5](#[N:6])[H:8].[N:3]#[N:4]"
C       -1.32106457      -0.30184728      -0.30876613
N       -1.38944416       0.89156671      -0.45994568
N        0.38576152       1.83450501      -0.17770674
N        1.25502105       1.17828142       0.12218915
C        1.06751672      -0.56131012       0.37597128
N        0.01699768      -1.09285222       0.18377892
H       -2.06083474      -1.08177221      -0.43534930
H        2.04604649      -0.86657131       0.69982850
8
Frame=1 idx=001041 GeodesicLength=0.065139211635652 rxn_smarts="[c:1]1([H:7])[n:2][n:3][n:4][c:5]([H:8])[n:6]1>>[C:1](#[N:2])[H:7].[C:5](#[N:6])[H:8].[N:3]#[N:4]"
C       -1.33996194      -0.28750889      -0.26562003
N       -1.39599819       0.89887766      -0.48229143
N        0.37683423       1.84199775      -0.17572044
N        1.25337736       1.18464931       0.11762056
C        1.08138813      -0.57235041       0.35847972
N        0.02085067      -1.09794956       0.18770570
H       -2.04574396      -1.08668416      -0.45260759
H        2.04925370      -0.88103169       0.71243350
8
Frame=2 idx=001041 GeodesicLength=0.12343206157331744 rxn_smarts="[c:1]1([H:7])[n:2][n:3][n:4][c:5]([H:8])[n:6]1>>[C:1](#[N:2])[H:7].[C:5](#[N:6])[H:8].[N:3]#[N:4]"
C       -1.35435344      -0.27545285      -0.23702292
N       -1.41106470       0.90983423      -0.46813553
N        0.37168591       1.84411034      -0.19583118
N        1.24997415       1.18961572       0.11248215
C        1.09069317      -0.58132027       0.35343633
N        0.02102127      -1.10025441       0.20561419
H       -2.02053871      -1.09009851      -0.48809921
H        2.05258236      -0.89643425       0.71755617
8
Frame=3 idx=001041 GeodesicLength=0.18536290524176857 rxn_smarts="[c:1]1([H:7])[n:2][n:3][n:4][c:5]([H:8])[n:6]1>>[C:1](#[N:2])[H:7].[C:5](#[N:6])[H:8].[N:3]#[N:4]"
C       -1.36750670      -0.26477890      -0.21658350
N       -1.42589015       0.92044310      -0.45857785
N        0.36555097       1.84723199      -0.21338326
N        1.24607621       1.19556708       0.10960464
C        1.09920410      -0.58995338       0.35313166
N        0.02155372      -1.10299258       0.22335779
H       -1.99725588      -1.09192539      -0.51592439
H        2.05826772      -0.91359193       0.71837492
8
Frame=4 idx=001041 GeodesicLength=0.24711650524858852 rxn_smarts="[c:1]1([H:7])[n:2][n:3][n:4][c:5]([H:8])[n:6]1>>[C:1](#[N:2])[H:7].[C:5](#[N:6])[H:8].[N:3]#[N:4]"
C       -1.37988685      -0.25501017      -0.20006256
N       -1.44217585       0.93171866      -0.44421201
N        0.35844848       1.85002887      -0.22996933
N        1.24277508       1.20056939       0.10169650
C        1.10739840      -0.59849524       0.35449623
N        0.02253200      -1.10605820       0.24048198
H       -1.97235539      -1.09208967      -0.54390975
H        2.06326414      -0.93066362       0.72147893
8
Frame=5 idx=001041 GeodesicLength=0.30903152241209114 rxn_smarts="[c:1]1([H:7])[n:2][n:3][n:4][c:5]([H:8])[n:6]1>>[C:1](#[N:2])[H:7].[C:5](#[N:6])[H:8].[N:3]#[N:4]"
C       -1.39212154      -0.24690104      -0.18307104
N       -1.46293572       0.94512032      -0.40916234
N        0.35124278       1.85027697      -0.25494986
N        1.24050287       1.20379039       0.08390581
C        1.11569470      -0.60703810       0.35881207
N        0.02653560      -1.11206085       0.24715729
H       -1.94430068      -1.08794309      -0.57988948
H        2.06538198      -0.94524460       0.73719755
8
Frame=6 idx=001041 GeodesicLength=0.3704906742306764 rxn_smarts="[c:1]1([H:7])[n:2][n:3][n:4][c:5]([H:8])[n:6]1>>[C:1](#[N:2])[H:7].[C:5](#[N:6])[H:8].[N:3]#[N:4]"
C       -1.40362754      -0.23821632      -0.17054713
N       -1.47922290       0.95609753      -0.39451419
N        0.34232436       1.85263435      -0.27031474
N        1.23655634       1.20845567       0.07407008
C        1.12388396      -0.61534217       0.36258921
N        0.02918147      -1.11637903       0.25957430
H       -1.91923840      -1.08456939      -0.60301331
H        2.07014271      -0.96268064       0.74215577
8
Frame=7 idx=001041 GeodesicLength=0.4322874740431333 rxn_smarts="[c:1]1([H:7])[n:2][n:3][n:4][c:5]([H:8])[n:6]1>>[C:1](#[N:2])[H:7].[C:5](#[N:6])[H:8].[N:3]#[N:4]"
C       -1.41514544      -0.23016649      -0.15836308
N       -1.49659959       0.96727293      -0.37490641
N        0.33270923       1.85431709      -0.28723882
N        1.23270652       1.21258555       0.06092209
C        1.13230659      -0.62372038       0.36751512
N        0.03304052      -1.12171191       0.26856201
H       -1.89322164      -1.07885762      -0.62738741
H        2.07420381      -0.97971917       0.75089650
8
Frame=8 idx=001041 GeodesicLength=0.4946073239369005 rxn_smarts="[c:1]1([H:7])[n:2][n:3][n:4][c:5]([H:8])[n:6]1>>[C:1](#[N:2])[H:7].[C:5](#[N:6])[H:8].[N:3]#[N:4]"
C       -1.42650359      -0.22193389      -0.14826160
N       -1.51288106       0.97805639      -0.36216822
N        0.32271980       1.85652448      -0.30269358
N        1.22772902       1.21774649       0.05251399
C        1.14070817      -0.63179137       0.37320531
N        0.03648140      -1.12648464       0.27999489
H       -1.86797927      -1.07347353      -0.64710535
H        2.07972553      -0.99864394       0.75451457
8
Frame=9 idx=001041 GeodesicLength=0.5564934297705152 rxn_smarts="[c:1]1([H:7])[n:2][n:3][n:4][c:5]([H:8])[n:6]1>>[C:1](#[N:2])[H:7].[C:5](#[N:6])[H:8].[N:3]#[N:4]"
C       -1.43815194      -0.21497907      -0.13695484
N       -1.53160433       0.98925772      -0.33524638
N        0.31127431       1.85684922      -0.32148722
N        1.22354846       1.22057833       0.03348220
C        1.14911785      -0.63994464       0.38134063
N        0.04168432      -1.13323035       0.28574689
H       -1.83901679      -1.06294127      -0.67413599
H        2.08314811      -1.01558995       0.76725471
8
Frame=10 idx=001041 GeodesicLength=0.6185688007355095 rxn_smarts="[c:1]1([H:7])[n:2][n:3][n:4][c:5]([H:8])[n:6]1>>[C:1](#[N:2])[H:7].[C:5](#[N:6])[H:8].[N:3]#[N:4]"
C       -1.44953216      -0.20717470      -0.12865030
N       -1.54812249       0.99959451      -0.32284148
N        0.29979281       1.85882477      -0.33602597
N        1.21795233       1.22538253       0.02328275
C        1.15750062      -0.64754695       0.38979182
N        0.04587902      -1.13833868       0.29630725
H       -1.81250898      -1.05494219      -0.69214965
H        2.08903885      -1.03579930       0.77028558
8
Frame=11 idx=001041 GeodesicLength=0.6807225008623367 rxn_smarts="[c:1]1([H:7])[n:2][n:3][n:4][c:5]([H:8])[n:6]1>>[C:1](#[N:2])[H:7].[C:5](#[N:6])[H:8].[N:3]#[N:4]"
C       -1.46102282      -0.20024534      -0.11990588
N       -1.56578326       1.01005607      -0.30271423
N        0.28704725       1.86005262      -0.35126679
N        1.21290488       1.22848594       0.00572939
C        1.16621437      -0.65524641       0.39938464
N        0.05155443      -1.14502144       0.30214013
H       -1.78435002      -1.04344204      -0.71336225
H        2.09343516      -1.05463939       0.77999498
8
Frame=12 idx=001041 GeodesicLength=0.743330930717341 rxn_smarts="[c:1]1([H:7])[n:2][n:3][n:4][c:5]([H:8])[n:6]1>>[C:1](#[N:2])[H:7].[C:5](#[N:6])[H:8].[N:3]#[N:4]"
C       -1.47254364      -0.19301361      -0.11301334
N       -1.58296401       1.02028213      -0.28837567
N        0.27390395       1.86208791      -0.36475299
N        1.20712453       1.23226694      -0.00903054
C        1.17454901      -0.66215273       0.41179268
N        0.05684031      -1.15093542       0.31070597
H       -1.75625836      -1.03260959      -0.73122531
H        2.09934822      -1.07592563       0.78389919
8
Frame=13 idx=001041 GeodesicLength=0.8054229206077211 rxn_smarts="[c:1]1([H:7])[n:2][n:3][n:4][c:5]([H:8])[n:6]1>>[C:1](#[N:2])[H:7].[C:5](#[N:6])[H:8].[N:3]#[N:4]"
C       -1.48431540      -0.18650986      -0.10608474
N       -1.60091153       1.03017617      -0.26862332
N        0.25946927       1.86336309      -0.37822019
N        1.20142445       1.23421437      -0.02996635
C        1.18268616      -0.66866160       0.42655562
N        0.06296619      -1.15769613       0.31695888
H       -1.72578311      -1.01822714      -0.75183076
H        2.10446396      -1.09665890       0.79121086
8
Frame=14 idx=001041 GeodesicLength=0.8681003108453994 rxn_smarts="[c:1]1([H:7])[n:2][n:3][n:4][c:5]([H:8])[n:6]1>>[C:1](#[N:2])[H:7].[C:5](#[N:6])[H:8].[N:3]#[N:4]"
C       -1.49624332      -0.18007857      -0.10023177
N       -1.61884697       1.03992621      -0.25064473
N        0.24449444       1.86497190      -0.39069892
N        1.19523847       1.23588708      -0.05107470
C        1.19070397      -0.67470787       0.44345529
N        0.06928081      -1.16439875       0.32390209
H       -1.69465006      -1.00312932      -0.77105540
H        2.11002267      -1.11847069       0.79634813
8
Frame=15 idx=001041 GeodesicLength=0.930832486068729 rxn_smarts="[c:1]1([H:7])[n:2][n:3][n:4][c:5]([H:8])[n:6]1>>[C:1](#[N:2])[H:7].[C:5](#[N:6])[H:8].[N:3]#[N:4]"
C       -1.50832810      -0.17350002      -0.09586643
N       -1.63663094       1.04942311      -0.23667449
N        0.22930621       1.86698680      -0.40197933
N        1.18837898       1.23768025      -0.07056665
C        1.19818571      -0.67983623       0.46392941
N        0.07539621      -1.17046096       0.33297584
H       -1.66289753      -0.98813815      -0.78795529
H        2.11658946      -1.14215480       0.79613694
8
Frame=16 idx=001041 GeodesicLength=0.9937459895263558 rxn_smarts="[c:1]1([H:7])[n:2][n:3][n:4][c:5]([H:8])[n:6]1>>[C:1](#[N:2])[H:7].[C:5](#[N:6])[H:8].[N:3]#[N:4]"
C       -1.52047748      -0.16729593      -0.09171903
N       -1.65456783       1.05868407      -0.22057900
N        0.21343030       1.86905231      -0.41199133
N        1.18143238       1.23812002      -0.09353957
C        1.20661963      -0.68566926       0.48196286
N        0.08258422      -1.17731990       0.33941742
H       -1.63081017      -0.97105939      -0.80446001
H        2.12178894      -1.16451191       0.80090867
