8
Frame=0 idx=005764 GeodesicLength=0.0 rxn_smarts="[o:1]1[c:2]([H:6])[c:3]([H:7])[n:4][c:5]1[H:8]>>[O-:1][C:2](=[C:3]([N+:4]#[C:5][H:8])[H:7])[H:6]"
O        0.20966482       1.52988358       0.08843249
C       -0.79876390       0.83192910       0.07973389
C       -0.72899053      -0.59318114      -0.01761561
N        0.53012070      -0.96701460      -0.14103201
C        1.60026407      -0.47403752      -0.28643100
H       -1.79907981       1.28541369       0.12230642
H       -1.54614567      -1.29049557      -0.07231315
H        2.53293033      -0.32249754       0.22691897
8
Frame=1 idx=005764 GeodesicLength=0.04541997044845942 rxn_smarts="[o:1]1[c:2]([H:6])[c:3]([H:7])[n:4][c:5]1[H:8]>>[O-:1][C:2](=[C:3]([N+:4]#[C:5][H:8])[H:7])[H:6]"
O        0.21960369       1.51727838       0.07601381
C       -0.79930432       0.82822129       0.08321162
C       -0.72959083      -0.59448895      -0.02145789
N        0.53038273      -0.97129602      -0.14392470
C        1.59258019      -0.45278309      -0.28272299
H       -1.79523441       1.28933413       0.12880883
H       -1.54660483      -1.29243218      -0.07193761
H        2.52816779      -0.32383357       0.23200892
8
Frame=2 idx=005764 GeodesicLength=0.0908408714944122 rxn_smarts="[o:1]1[c:2]([H:6])[c:3]([H:7])[n:4][c:5]1[H:8]>>[O-:1][C:2](=[C:3]([N+:4]#[C:5][H:8])[H:7])[H:6]"
O        0.22925573       1.50470668       0.06713739
C       -0.80000917       0.82478439       0.08452894
C       -0.73013999      -0.59570353      -0.02473819
N        0.53072031      -0.97540704      -0.14611850
C        1.58477588      -0.43242929      -0.27865028
H       -1.79155105       1.29332530       0.13373517
H       -1.54692307      -1.29435000      -0.07102382
H        2.52387136      -0.32492651       0.23512929
8
Frame=3 idx=005764 GeodesicLength=0.13622707837438966 rxn_smarts="[o:1]1[c:2]([H:6])[c:3]([H:7])[n:4][c:5]1[H:8]>>[O-:1][C:2](=[C:3]([N+:4]#[C:5][H:8])[H:7])[H:6]"
O        0.23863709       1.49234115       0.05954399
C       -0.80090307       0.82168680       0.08251843
C       -0.73063932      -0.59674851      -0.02872971
N        0.53114519      -0.97932914      -0.14855832
C        1.57710704      -0.41299873      -0.27383666
H       -1.78789591       1.29723093       0.14016012
H       -1.54705005      -1.29633285      -0.06916266
H        2.51959903      -0.32584966       0.23806481
8
Frame=4 idx=005764 GeodesicLength=0.18168924308154555 rxn_smarts="[o:1]1[c:2]([H:6])[c:3]([H:7])[n:4][c:5]1[H:8]>>[O-:1][C:2](=[C:3]([N+:4]#[C:5][H:8])[H:7])[H:6]"
O        0.24778133       1.48025872       0.05287723
C       -0.80203248       0.81891677       0.07713892
C       -0.73117526      -0.59754824      -0.03481787
N        0.53162606      -0.98297251      -0.15225282
C        1.56971972      -0.39427031      -0.26825579
H       -1.78415701       1.30100700       0.14857924
H       -1.54692736      -1.29856305      -0.06503143
H        2.51516499      -0.32682837       0.24176253
8
Frame=5 idx=005764 GeodesicLength=0.2270210307948312 rxn_smarts="[o:1]1[c:2]([H:6])[c:3]([H:7])[n:4][c:5]1[H:8]>>[O-:1][C:2](=[C:3]([N+:4]#[C:5][H:8])[H:7])[H:6]"
O        0.25667241       1.46828068       0.04750403
C       -0.80342506       0.81650516       0.06853083
C       -0.73164942      -0.59832680      -0.03970961
N        0.53221728      -0.98665950      -0.15360249
C        1.56214334      -0.37661261      -0.26208015
H       -1.78037350       1.30456574       0.15824801
H       -1.54679713      -1.30047104      -0.06257760
H        2.51121206      -0.32728164       0.24368697
8
Frame=6 idx=005764 GeodesicLength=0.27241357500903307 rxn_smarts="[o:1]1[c:2]([H:6])[c:3]([H:7])[n:4][c:5]1[H:8]>>[O-:1][C:2](=[C:3]([N+:4]#[C:5][H:8])[H:7])[H:6]"
O        0.26528298       1.45655657       0.04274897
C       -0.80533290       0.81469393       0.05323285
C       -0.73219206      -0.59883448      -0.04693563
N        0.53283473      -0.99009493      -0.15595571
C        1.55484965      -0.35960271      -0.25492169
H       -1.77600535       1.30756907       0.17259907
H       -1.54640026      -1.30250943      -0.05780000
H        2.50696320      -0.32777801       0.24703215
8
Frame=7 idx=005764 GeodesicLength=0.3178648501887414 rxn_smarts="[o:1]1[c:2]([H:6])[c:3]([H:7])[n:4][c:5]1[H:8]>>[O-:1][C:2](=[C:3]([N+:4]#[C:5][H:8])[H:7])[H:6]"
O        0.27346030       1.44514589       0.03666974
C       -0.80720579       0.81284634       0.03912393
C       -0.73287064      -0.59906951      -0.05672042
N        0.53342021      -0.99337134      -0.15882602
C        1.54761742      -0.34327721      -0.24718393
H       -1.77088991       1.31006703       0.18769702
H       -1.54585732      -1.30439138      -0.05189130
H        2.50232572      -0.32794982       0.25113098
8
Frame=8 idx=005764 GeodesicLength=0.3633504558367163 rxn_smarts="[o:1]1[c:2]([H:6])[c:3]([H:7])[n:4][c:5]1[H:8]>>[O-:1][C:2](=[C:3]([N+:4]#[C:5][H:8])[H:7])[H:6]"
O        0.28125720       1.43420785       0.02635216
C       -0.80897880       0.81093783       0.02646429
C       -0.73371654      -0.59912939      -0.06934042
N        0.53396842      -0.99669083      -0.16119335
C        1.54043009      -0.32790524      -0.23859300
H       -1.76479011       1.31190509       0.20602728
H       -1.54526424      -1.30594620      -0.04643258
H        2.49709398      -0.32737913       0.25671562
8
Frame=9 idx=005764 GeodesicLength=0.40887423265286504 rxn_smarts="[o:1]1[c:2]([H:6])[c:3]([H:7])[n:4][c:5]1[H:8]>>[O-:1][C:2](=[C:3]([N+:4]#[C:5][H:8])[H:7])[H:6]"
O        0.28886034       1.42331666       0.01972127
C       -0.81074767       0.80893324       0.01613164
C       -0.73445315      -0.59922775      -0.08044991
N        0.53449080      -0.99977791      -0.16413314
C        1.53308618      -0.31282816      -0.23047107
H       -1.75908113       1.31387933       0.21920513
H       -1.54442480      -1.30729956      -0.04029420
H        2.49226942      -0.32699585       0.26029028
8
Frame=10 idx=005764 GeodesicLength=0.45438161129288696 rxn_smarts="[o:1]1[c:2]([H:6])[c:3]([H:7])[n:4][c:5]1[H:8]>>[O-:1][C:2](=[C:3]([N+:4]#[C:5][H:8])[H:7])[H:6]"
O        0.29629990       1.41250858       0.01520657
C       -0.81246035       0.80688135       0.00751403
C       -0.73505791      -0.59944798      -0.08893551
N        0.53503666      -1.00286470      -0.16584732
C        1.52556499      -0.29832755      -0.22260894
H       -1.75377232       1.31603059       0.22902115
H       -1.54370601      -1.30840986      -0.03583110
H        2.48809504      -0.32637043       0.26148111
8
Frame=11 idx=005764 GeodesicLength=0.4999081741843091 rxn_smarts="[o:1]1[c:2]([H:6])[c:3]([H:7])[n:4][c:5]1[H:8]>>[O-:1][C:2](=[C:3]([N+:4]#[C:5][H:8])[H:7])[H:6]"
O        0.30355059       1.40187730       0.01187379
C       -0.81413232       0.80480702      -0.00002961
C       -0.73558604      -0.59966334      -0.09671676
N        0.53559569      -1.00585068      -0.16774088
C        1.51803971      -0.28430326      -0.21476493
H       -1.74870690       1.31823829       0.23695138
H       -1.54287411      -1.30939216      -0.03137255
H        2.48411338      -0.32571318       0.26179955
8
Frame=12 idx=005764 GeodesicLength=0.5454625752222965 rxn_smarts="[o:1]1[c:2]([H:6])[c:3]([H:7])[n:4][c:5]1[H:8]>>[O-:1][C:2](=[C:3]([N+:4]#[C:5][H:8])[H:7])[H:6]"
O        0.31064023       1.39138709       0.00992112
C       -0.81575761       0.80272861      -0.00670166
C       -0.73603864      -0.59987455      -0.10370304
N        0.53618007      -1.00875615      -0.16959649
C        1.51050798      -0.27074666      -0.20693606
H       -1.74396964       1.32054848       0.24298513
H       -1.54196761      -1.31026764      -0.02702697
H        2.48040522      -0.32501918       0.26105798
8
Frame=13 idx=005764 GeodesicLength=0.590955628728695 rxn_smarts="[o:1]1[c:2]([H:6])[c:3]([H:7])[n:4][c:5]1[H:8]>>[O-:1][C:2](=[C:3]([N+:4]#[C:5][H:8])[H:7])[H:6]"
O        0.31738398       1.38160095       0.00150981
C       -0.81736396       0.80052580      -0.01244624
C       -0.73649320      -0.60013049      -0.11084222
N        0.53675014      -1.01190131      -0.17040081
C        1.50303370      -0.25806824      -0.19825855
H       -1.73804461       1.32238710       0.25390290
H       -1.54138152      -1.31098781      -0.02571026
H        2.47611548      -0.32342599       0.26224537
8
Frame=14 idx=005764 GeodesicLength=0.6366745701901315 rxn_smarts="[o:1]1[c:2]([H:6])[c:3]([H:7])[n:4][c:5]1[H:8]>>[O-:1][C:2](=[C:3]([N+:4]#[C:5][H:8])[H:7])[H:6]"
O        0.32417772       1.37131540       0.00127993
C       -0.81889432       0.79844311      -0.01783354
C       -0.73681549      -0.60028794      -0.11685992
N        0.53736861      -1.01458950      -0.17262293
C        1.49555397      -0.24539203      -0.19035726
H       -1.73374602       1.32482323       0.25747182
H       -1.54028604      -1.31169717      -0.02133992
H        2.47264158      -0.32261512       0.26026182
8
Frame=15 idx=005764 GeodesicLength=0.6823192624645797 rxn_smarts="[o:1]1[c:2]([H:6])[c:3]([H:7])[n:4][c:5]1[H:8]>>[O-:1][C:2](=[C:3]([N+:4]#[C:5][H:8])[H:7])[H:6]"
O        0.33069103       1.36163741      -0.00399692
C       -0.82043184       0.79627487      -0.02256256
C       -0.73717459      -0.60048278      -0.12308894
N        0.53795326      -1.01757134      -0.17287321
C        1.48805984      -0.23351554      -0.18169981
H       -1.72847314       1.32685902       0.26495847
H       -1.53961212      -1.31226733      -0.01993632
H        2.46898756      -0.32093430       0.25919929
8
Frame=16 idx=005764 GeodesicLength=0.7279441066079226 rxn_smarts="[o:1]1[c:2]([H:6])[c:3]([H:7])[n:4][c:5]1[H:8]>>[O-:1][C:2](=[C:3]([N+:4]#[C:5][H:8])[H:7])[H:6]"
O        0.33704683       1.35207859      -0.00823859
C       -0.82195034       0.79411339      -0.02677135
C       -0.73745144      -0.60064983      -0.12876123
N        0.53857814      -1.02046557      -0.17322281
C        1.48059694      -0.22201554      -0.17298815
H       -1.72348216       1.32900948       0.27112905
H       -1.53886025      -1.31279100      -0.01853199
H        2.46552229      -0.31927953       0.25738507
