9
Frame=0 idx=001207 GeodesicLength=0.0 rxn_smarts="[C:1]([C:2]#[C:3][C:4](=[O:5])[H:9])([H:6])([H:7])[H:8]>>[C:1]([C+:2]=[C:3]=[C-:4][O:5][H:9])([H:6])([H:7])[H:8]"
C       -1.88844991       0.25291301      -0.13308145
C       -0.46136385       0.01388393      -0.01744240
C        0.72677345      -0.17025048       0.06952613
C        2.08384000      -0.55248419       0.17977919
O        3.03389081       0.33468234       0.15376647
H       -2.13863645       1.27978949       0.13548402
H       -2.44912983      -0.42890131       0.50768221
H       -2.20316956       0.08224625      -1.16440515
H        3.29624537      -0.81187907       0.26869095
9
Frame=1 idx=001207 GeodesicLength=0.029783261284710705 rxn_smarts="[C:1]([C:2]#[C:3][C:4](=[O:5])[H:9])([H:6])([H:7])[H:8]>>[C:1]([C+:2]=[C:3]=[C-:4][O:5][H:9])([H:6])([H:7])[H:8]"
C       -1.88835547       0.25211304      -0.13461229
C       -0.46041489       0.01388327      -0.02714750
C        0.72819878      -0.17023127       0.05253401
C        2.08069808      -0.54478946       0.23206770
O        3.03047149       0.33471071       0.14691341
H       -2.13653158       1.27801661       0.13969955
H       -2.44559065      -0.43160059       0.50710432
H       -2.20912611       0.08632168      -1.16482385
H        3.30065035      -0.81842400       0.24826464
9
Frame=2 idx=001207 GeodesicLength=0.059861932009198565 rxn_smarts="[C:1]([C:2]#[C:3][C:4](=[O:5])[H:9])([H:6])([H:7])[H:8]>>[C:1]([C+:2]=[C:3]=[C-:4][O:5][H:9])([H:6])([H:7])[H:8]"
C       -1.88695195       0.25171633      -0.13668653
C       -0.46034895       0.00522624      -0.02904420
C        0.72781410      -0.18190915       0.04997102
C        2.07924554      -0.53465474       0.28068856
O        3.02288608       0.33889456       0.13288346
H       -2.12855565       1.27781319       0.14293400
H       -2.44873334      -0.43116342       0.50191832
H       -2.20855185       0.09386649      -1.16784430
H        3.30319602      -0.81978949       0.22517968
9
Frame=3 idx=001207 GeodesicLength=0.09001102564413027 rxn_smarts="[C:1]([C:2]#[C:3][C:4](=[O:5])[H:9])([H:6])([H:7])[H:8]>>[C:1]([C+:2]=[C:3]=[C-:4][O:5][H:9])([H:6])([H:7])[H:8]"
C       -1.88571801       0.25055818      -0.13859438
C       -0.45925161       0.00343244      -0.02954022
C        0.72865301      -0.18450880       0.05117307
C        2.07780060      -0.52073101       0.32172804
O        3.01959277       0.33830470       0.11468076
H       -2.12642518       1.27519272       0.14729732
H       -2.44919254      -0.43515752       0.49543178
H       -2.20611041       0.10016797      -1.17119952
H        3.30065137      -0.82725868       0.20902316
9
Frame=4 idx=001207 GeodesicLength=0.1202876183759376 rxn_smarts="[C:1]([C:2]#[C:3][C:4](=[O:5])[H:9])([H:6])([H:7])[H:8]>>[C:1]([C+:2]=[C:3]=[C-:4][O:5][H:9])([H:6])([H:7])[H:8]"
C       -1.88410545       0.24957554      -0.14047982
C       -0.45873236      -0.00219959      -0.02685065
C        0.72864050      -0.19186950       0.05720089
C        2.07777263      -0.50510451       0.35829234
O        3.01426247       0.33871778       0.09125921
H       -2.12201909       1.27290119       0.15255274
H       -2.45256205      -0.43838842       0.48659424
H       -2.20115487       0.10897789      -1.17545155
H        3.29789821      -0.83261038       0.19688261
9
Frame=5 idx=001207 GeodesicLength=0.15058593377434293 rxn_smarts="[C:1]([C:2]#[C:3][C:4](=[O:5])[H:9])([H:6])([H:7])[H:8]>>[C:1]([C+:2]=[C:3]=[C-:4][O:5][H:9])([H:6])([H:7])[H:8]"
C       -1.88260976       0.24827780      -0.14225138
C       -0.45794884      -0.00548493      -0.02325381
C        0.72897529      -0.19585437       0.06505262
C        2.07826299      -0.48662831       0.39112804
O        3.01025985       0.33640185       0.06410961
H       -2.12001101       1.26934398       0.15916053
H       -2.45519949      -0.44385559       0.47638791
H       -2.19515161       0.11831408      -1.17993856
H        3.29342259      -0.84051450       0.18960503
9
Frame=6 idx=001207 GeodesicLength=0.18091637350156645 rxn_smarts="[C:1]([C:2]#[C:3][C:4](=[O:5])[H:9])([H:6])([H:7])[H:8]>>[C:1]([C+:2]=[C:3]=[C-:4][O:5][H:9])([H:6])([H:7])[H:8]"
C       -1.88120483       0.24669018      -0.14392558
C       -0.45696001      -0.00695657      -0.01891652
C        0.72960201      -0.19703287       0.07429122
C        2.07933609      -0.46494401       0.42129934
O        3.00721535       0.33118940       0.03299798
H       -2.12002003       1.26452431       0.16733820
H       -2.45722872      -0.45146205       0.46465118
H       -2.18823700       0.12857942      -1.18462857
H        3.28749714      -0.85058781       0.18689275
9
Frame=7 idx=001207 GeodesicLength=0.21130478538157121 rxn_smarts="[C:1]([C:2]#[C:3][C:4](=[O:5])[H:9])([H:6])([H:7])[H:8]>>[C:1]([C+:2]=[C:3]=[C-:4][O:5][H:9])([H:6])([H:7])[H:8]"
C       -1.87971521       0.24502832      -0.14549876
C       -0.45605242      -0.00891697      -0.01376092
C        0.73012417      -0.19853857       0.08466963
C        2.08116423      -0.44043555       0.44892992
O        3.00356856       0.32407908      -0.00155729
H       -2.12016889       1.25905491       0.17692228
H       -2.45961853      -0.45989494       0.45144757
H       -2.18045779       0.14039514      -1.18943406
H        3.28115588      -0.86077142       0.18828163
9
Frame=8 idx=001207 GeodesicLength=0.24173908280193943 rxn_smarts="[C:1]([C:2]#[C:3][C:4](=[O:5])[H:9])([H:6])([H:7])[H:8]>>[C:1]([C+:2]=[C:3]=[C-:4][O:5][H:9])([H:6])([H:7])[H:8]"
C       -1.87816787       0.24313826      -0.14713138
C       -0.45512256      -0.00994716      -0.00655176
C        0.73069177      -0.19804637       0.09834902
C        2.08399898      -0.41283053       0.47442522
O        2.99977469       0.31401203      -0.03946040
H       -2.12191468       1.25252993       0.18732162
H       -2.46214029      -0.46977170       0.43617940
H       -2.17077401       0.15310246      -1.19469173
H        3.27365398      -0.87218691       0.19156002
9
Frame=9 idx=001207 GeodesicLength=0.27217993019471615 rxn_smarts="[C:1]([C:2]#[C:3][C:4](=[O:5])[H:9])([H:6])([H:7])[H:8]>>[C:1]([C+:2]=[C:3]=[C-:4][O:5][H:9])([H:6])([H:7])[H:8]"
C       -1.87658672       0.24123398      -0.14850271
C       -0.45408608      -0.01137775      -0.00095630
C        0.73143280      -0.19780756       0.10964062
C        2.08696573      -0.38399653       0.49618461
O        2.99555503       0.30271619      -0.07537519
H       -2.12312584       1.24581403       0.19834058
H       -2.46389804      -0.47948228       0.42168452
H       -2.16238225       0.16603775      -1.19906749
H        3.26612536      -0.88313783       0.19805134
9
Frame=10 idx=001207 GeodesicLength=0.3026358617238978 rxn_smarts="[C:1]([C:2]#[C:3][C:4](=[O:5])[H:9])([H:6])([H:7])[H:8]>>[C:1]([C+:2]=[C:3]=[C-:4][O:5][H:9])([H:6])([H:7])[H:8]"
C       -1.87494494       0.23941103      -0.14975652
C       -0.45299134      -0.01312396       0.00382429
C        0.73225566      -0.19785817       0.11965582
C        2.08991790      -0.35700383       0.51407190
O        2.99084402       0.29274058      -0.10461329
H       -2.12356357       1.23987384       0.20751928
H       -2.46523197      -0.48750529       0.40934850
H       -2.15504124       0.17697486      -1.20264819
H        3.25875549      -0.89350906       0.20259820
9
Frame=11 idx=001207 GeodesicLength=0.33313997724216543 rxn_smarts="[C:1]([C:2]#[C:3][C:4](=[O:5])[H:9])([H:6])([H:7])[H:8]>>[C:1]([C+:2]=[C:3]=[C-:4][O:5][H:9])([H:6])([H:7])[H:8]"
C       -1.87320764       0.23766225      -0.15094948
C       -0.45191696      -0.01548334       0.00838766
C        0.73304560      -0.19853686       0.12933429
C        2.09291738      -0.33123476       0.52919691
O        2.98553471       0.28386441      -0.12989285
H       -2.12325627       1.23450212       0.21550655
H       -2.46657096      -0.49429006       0.39820928
H       -2.14809062       0.18678851      -1.20579443
H        3.25154475      -0.90327227       0.20600208
9
Frame=12 idx=001207 GeodesicLength=0.3637479516900282 rxn_smarts="[C:1]([C:2]#[C:3][C:4](=[O:5])[H:9])([H:6])([H:7])[H:8]>>[C:1]([C+:2]=[C:3]=[C-:4][O:5][H:9])([H:6])([H:7])[H:8]"
C       -1.87140035       0.23596173      -0.15208800
C       -0.45083351      -0.01829539       0.01256549
C        0.73384196      -0.19958699       0.13857293
C        2.09586848      -0.30654791       0.54210428
O        2.97987843       0.27599771      -0.15197274
H       -2.12234386       1.22957069       0.22260400
H       -2.46782527      -0.50013129       0.38811478
H       -2.14159204       0.19569467      -1.20856107
H        3.24440616      -0.91266322       0.20866033
9
Frame=13 idx=001207 GeodesicLength=0.3942036149269376 rxn_smarts="[C:1]([C:2]#[C:3][C:4](=[O:5])[H:9])([H:6])([H:7])[H:8]>>[C:1]([C+:2]=[C:3]=[C-:4][O:5][H:9])([H:6])([H:7])[H:8]"
C       -1.86955246       0.23424719      -0.15316512
C       -0.44970567      -0.02124617       0.01641867
C        0.73470491      -0.20044759       0.14753210
C        2.09884243      -0.28201141       0.55314390
O        2.97409813       0.26808516      -0.17260772
H       -2.12125535       1.22465287       0.22957422
H       -2.46888509      -0.50574584       0.37838927
H       -2.13536279       0.20437175      -1.21105260
H        3.23711589      -0.92190597       0.21176728
9
Frame=14 idx=001207 GeodesicLength=0.4247628255580846 rxn_smarts="[C:1]([C:2]#[C:3][C:4](=[O:5])[H:9])([H:6])([H:7])[H:8]>>[C:1]([C+:2]=[C:3]=[C-:4][O:5][H:9])([H:6])([H:7])[H:8]"
C       -1.86763198       0.23255254      -0.15421592
C       -0.44858272      -0.02455764       0.02023062
C        0.73556187      -0.20147016       0.15651892
C        2.10179397      -0.25818222       0.56261755
O        2.96803843       0.26085459      -0.19143702
H       -2.11979165       1.21998492       0.23599195
H       -2.46996952      -0.51078340       0.36918213
H       -2.12921896       0.21252782      -1.21334684
H        3.22980055      -0.93092645       0.21445860
9
Frame=15 idx=001207 GeodesicLength=0.4553885030625192 rxn_smarts="[C:1]([C:2]#[C:3][C:4](=[O:5])[H:9])([H:6])([H:7])[H:8]>>[C:1]([C+:2]=[C:3]=[C-:4][O:5][H:9])([H:6])([H:7])[H:8]"
C       -1.86562672       0.23085350      -0.15524891
C       -0.44748342      -0.02821919       0.02428387
C        0.73639434      -0.20253068       0.16593315
C        2.10480990      -0.23449205       0.57070082
O        2.96162011       0.25373109      -0.20967323
H       -2.11813584       1.21534235       0.24225952
H       -2.47115870      -0.51558021       0.35995704
H       -2.12283570       0.22062926      -1.21555048
H        3.22241602      -0.93973409       0.21733822
9
Frame=16 idx=001207 GeodesicLength=0.48598461542496996 rxn_smarts="[C:1]([C:2]#[C:3][C:4](=[O:5])[H:9])([H:6])([H:7])[H:8]>>[C:1]([C+:2]=[C:3]=[C-:4][O:5][H:9])([H:6])([H:7])[H:8]"
C       -1.86354685       0.22918749      -0.15626722
C       -0.44640282      -0.03232141       0.02825076
C        0.73720800      -0.20384653       0.17526499
C        2.10768869      -0.21192026       0.57756569
O        2.95494414       0.24767330      -0.22583204
H       -2.11597858       1.21109571       0.24777439
H       -2.47241954      -0.51962998       0.35145417
H       -2.11658920       0.22800938      -1.21757859
H        3.21509615      -0.94824771       0.21936787
