17
Frame=0 idx=011431 GeodesicLength=0.0 rxn_smarts="[C:1]1([H:8])([H:9])[C:2]([H:10])([H:11])[C:3]1([C@@:4]1([H:13])[C:5]([H:14])([H:15])[C:6]([H:16])([H:17])[O:7]1)[H:12]>>[C:1](=[C:2]([H:10])[H:11])([H:8])[H:9].[C:3](=[C:4]1[C:5]([H:14])([H:15])[C:6]([H:16])([H:17])[O:7]1)([H:12])[H:13]"
C       -1.74147630       0.00720613       1.09043812
C       -2.34187514       0.75255974       0.02295949
C       -0.72751383      -0.87899822       0.23240411
C        0.59799772      -0.45855341       0.00238038
C        1.49533397      -0.17167959      -1.16351037
C        2.34212270       0.54227852      -0.10316849
O        1.32874005       0.27072073       0.90208639
H       -1.13927456       0.57005503       1.80488874
H       -2.41122417      -0.66174573       1.62687753
H       -3.23870410       0.39529158      -0.46391829
H       -1.82912144       1.60020313      -0.41280890
H       -1.17113225      -1.44136120      -0.58042616
H        0.12223319      -1.66619446       0.67676837
H        1.94583562      -1.01881084      -1.67531333
H        1.00387985       0.48381107      -1.88967766
H        3.28414124       0.06055398       0.15942266
H        2.48003750       1.61466353      -0.22940258
17
Frame=1 idx=011431 GeodesicLength=0.10029687693728954 rxn_smarts="[C:1]1([H:8])([H:9])[C:2]([H:10])([H:11])[C:3]1([C@@:4]1([H:13])[C:5]([H:14])([H:15])[C:6]([H:16])([H:17])[O:7]1)[H:12]>>[C:1](=[C:2]([H:10])[H:11])([H:8])[H:9].[C:3](=[C:4]1[C:5]([H:14])([H:15])[C:6]([H:16])([H:17])[O:7]1)([H:12])[H:13]"
C       -1.74418927       0.02334343       1.10497169
C       -2.31127225       0.75715540       0.01462447
C       -0.72920199      -0.89463522       0.22588293
C        0.60067406      -0.48629428       0.00530039
C        1.48540883      -0.17354844      -1.16471128
C        2.32548957       0.54935369      -0.10517706
O        1.32903631       0.24655142       0.90702290
H       -1.14800605       0.58762678       1.82263264
H       -2.41712414      -0.64593589       1.63585521
H       -3.18968044       0.39352503      -0.50016624
H       -1.80064063       1.61917542      -0.39461753
H       -1.17218646      -1.46370015      -0.58272877
H        0.12385646      -1.69235241       0.67778757
H        1.94805939      -1.01045202      -1.68255665
H        0.98085188       0.47749488      -1.88531499
H        3.28085336       0.08675755       0.14374873
H        2.43807136       1.62593482      -0.22255402
17
Frame=2 idx=011431 GeodesicLength=0.2007207183233769 rxn_smarts="[C:1]1([H:8])([H:9])[C:2]([H:10])([H:11])[C:3]1([C@@:4]1([H:13])[C:5]([H:14])([H:15])[C:6]([H:16])([H:17])[O:7]1)[H:12]>>[C:1](=[C:2]([H:10])[H:11])([H:8])[H:9].[C:3](=[C:4]1[C:5]([H:14])([H:15])[C:6]([H:16])([H:17])[O:7]1)([H:12])[H:13]"
C       -1.74628145       0.04060754       1.11921303
C       -2.28052790       0.76113464       0.00663899
C       -0.73080071      -0.91029841       0.21829010
C        0.60329303      -0.51387636       0.00740500
C        1.47571307      -0.17528075      -1.16587478
C        2.30850275       0.55591196      -0.10636188
O        1.32915131       0.22200520       0.91170447
H       -1.15661044       0.60749316       1.83952579
H       -2.42122492      -0.62948649       1.64537658
H       -3.14141800       0.39139006      -0.53266200
H       -1.77393813       1.63641566      -0.37879697
H       -1.17317829      -1.48572997      -0.58625641
H        0.12568566      -1.71880535       0.67750223
H        1.95046660      -1.00160138      -1.68981512
H        0.95875827       0.47146475      -1.88098085
H        3.27643227       0.11260052       0.12929229
H        2.39597688       1.63605520      -0.21420048
17
Frame=3 idx=011431 GeodesicLength=0.30127439025695785 rxn_smarts="[C:1]1([H:8])([H:9])[C:2]([H:10])([H:11])[C:3]1([C@@:4]1([H:13])[C:5]([H:14])([H:15])[C:6]([H:16])([H:17])[O:7]1)[H:12]>>[C:1](=[C:2]([H:10])[H:11])([H:8])[H:9].[C:3](=[C:4]1[C:5]([H:14])([H:15])[C:6]([H:16])([H:17])[O:7]1)([H:12])[H:13]"
C       -1.74772873       0.05900830       1.13320637
C       -2.24969263       0.76448122      -0.00095458
C       -0.73232373      -0.92601335       0.20960768
C        0.60582100      -0.54127161       0.00867588
C        1.46626872      -0.17688484      -1.16700328
C        2.29118514       0.56194458      -0.10672117
O        1.32902953       0.19713651       0.91610590
H       -1.16509998       0.62972119       1.85557740
H       -2.42341854      -0.61247067       1.65552095
H       -3.09416679       0.38878422      -0.56154670
H       -1.74895411       1.65210721      -0.36526121
H       -1.17410547      -1.50746660      -0.59105207
H        0.12774965      -1.74555930       0.67587089
H        1.95308325      -0.99228810      -1.69703570
H        0.93762789       0.46571583      -1.87672110
H        3.27090557       0.13804387       0.11613881
H        2.35381923       1.64501151      -0.20440807
17
Frame=4 idx=011431 GeodesicLength=0.40195428230698577 rxn_smarts="[C:1]1([H:8])([H:9])[C:2]([H:10])([H:11])[C:3]1([C@@:4]1([H:13])[C:5]([H:14])([H:15])[C:6]([H:16])([H:17])[O:7]1)[H:12]>>[C:1](=[C:2]([H:10])[H:11])([H:8])[H:9].[C:3](=[C:4]1[C:5]([H:14])([H:15])[C:6]([H:16])([H:17])[O:7]1)([H:12])[H:13]"
C       -1.74850758       0.07856521       1.14699064
C       -2.21882946       0.76716681      -0.00812454
C       -0.73378474      -0.94180121       0.19981291
C        0.60822901      -0.56845220       0.00910048
C        1.45709772      -0.17835693      -1.16809625
C        2.27357067       0.56743215      -0.10624683
O        1.32861679       0.17199497       0.92021163
H       -1.17349470       0.65440407       1.87077275
H       -2.42357230      -0.59495191       1.66638122
H       -3.04817156       0.38560816      -0.58693817
H       -1.72568329       1.66638859      -0.35394916
H       -1.17495940      -1.52892389      -0.59716556
H        0.13007395      -1.77261895       0.67285057
H        1.95592809      -0.98252607      -1.70417650
H        0.91748939       0.46026969      -1.87256479
H        3.26430898       0.16301815       0.10437424
H        2.31168843       1.65278335      -0.19323264
17
Frame=5 idx=011431 GeodesicLength=0.5027622417493838 rxn_smarts="[C:1]1([H:8])([H:9])[C:2]([H:10])([H:11])[C:3]1([C@@:4]1([H:13])[C:5]([H:14])([H:15])[C:6]([H:16])([H:17])[O:7]1)[H:12]>>[C:1](=[C:2]([H:10])[H:11])([H:8])[H:9].[C:3](=[C:4]1[C:5]([H:14])([H:15])[C:6]([H:16])([H:17])[O:7]1)([H:12])[H:13]"
C       -1.74858952       0.09930291       1.16060221
C       -2.18797840       0.76917617      -0.01484019
C       -0.73520025      -0.95769207       0.18888032
C        0.61049225      -0.59541457       0.00867271
C        1.44821840      -0.17970214      -1.16914843
C        2.25567270       0.57236721      -0.10493125
O        1.32785887       0.14660110       0.92401717
H       -1.18181378       0.68163176       1.88509093
H       -2.42154020      -0.57698267       1.67804827
H       -3.00363037       0.38180757      -0.60895015
H       -1.70410652       1.67937079      -0.34480328
H       -1.17573560      -1.55011616      -0.60465479
H        0.13267204      -1.80000898       0.66839546
H        1.95903306      -0.97233160      -1.71118772
H        0.89835593       0.45512747      -1.86853675
H        3.25667613       0.18749445       0.09407139
H        2.26961526       1.65936876      -0.18072591
17
Frame=6 idx=011431 GeodesicLength=0.6037030111309803 rxn_smarts="[C:1]1([H:8])([H:9])[C:2]([H:10])([H:11])[C:3]1([C@@:4]1([H:13])[C:5]([H:14])([H:15])[C:6]([H:16])([H:17])[O:7]1)[H:12]>>[C:1](=[C:2]([H:10])[H:11])([H:8])[H:9].[C:3](=[C:4]1[C:5]([H:14])([H:15])[C:6]([H:16])([H:17])[O:7]1)([H:12])[H:13]"
C       -1.74794584       0.12125271       1.17407365
C       -2.15717090       0.77049472      -0.02107482
C       -0.73658713      -0.97371892       0.17678333
C        0.61258848      -0.62216425       0.00739141
C        1.43964299      -0.18092248      -1.17015139
C        2.23749709       0.57674200      -0.10276434
O        1.32669955       0.12096559       0.92752504
H       -1.19008386       0.71150179       1.89849732
H       -2.41715483      -0.55860606       1.69061679
H       -2.96070617       0.37734498      -0.62769171
H       -1.68421294       1.69113382      -0.33777570
H       -1.17642780      -1.57105992      -0.61358094
H        0.13555384      -1.82775947       0.66246131
H        1.96242593      -0.96171263      -1.71802314
H        0.88022948       0.45029535      -1.86465112
H        3.24803644       0.21144539       0.08529713
H        2.22761569       1.66476739      -0.16693281
17
Frame=7 idx=011431 GeodesicLength=0.7047841766054668 rxn_smarts="[C:1]1([H:8])([H:9])[C:2]([H:10])([H:11])[C:3]1([C@@:4]1([H:13])[C:5]([H:14])([H:15])[C:6]([H:16])([H:17])[O:7]1)[H:12]>>[C:1](=[C:2]([H:10])[H:11])([H:8])[H:9].[C:3](=[C:4]1[C:5]([H:14])([H:15])[C:6]([H:16])([H:17])[O:7]1)([H:12])[H:13]"
C       -1.74654795       0.14445278       1.18743404
C       -2.12643353       0.77110829      -0.02680210
C       -0.73796329      -0.98991504       0.16349061
C        0.61449653      -0.64871240       0.00525739
C        1.43138044      -0.18201908      -1.17109374
C        2.21904262       0.58054796      -0.09973320
O        1.32507817       0.09509300       0.93074230
H       -1.19833989       0.74411779       1.91094242
H       -2.41022046      -0.53985697       1.70418681
H       -2.91953113       0.37219526      -0.64326117
H       -1.66600540       1.70173103      -0.33282511
H       -1.17702885      -1.59177009      -0.62401255
H        0.13872505      -1.85590331       0.65500141
H        1.96613386      -0.95067296      -1.72463575
H        0.86310758       0.44578062      -1.86091570
H        3.23841326       0.23484384       0.07811851
H        2.18569298       1.66897928      -0.15189417
17
Frame=8 idx=011431 GeodesicLength=0.8060224816473108 rxn_smarts="[C:1]1([H:8])([H:9])[C:2]([H:10])([H:11])[C:3]1([C@@:4]1([H:13])[C:5]([H:14])([H:15])[C:6]([H:16])([H:17])[O:7]1)[H:12]>>[C:1](=[C:2]([H:10])[H:11])([H:8])[H:9].[C:3](=[C:4]1[C:5]([H:14])([H:15])[C:6]([H:16])([H:17])[O:7]1)([H:12])[H:13]"
C       -1.74436501       0.16894915       1.20070950
C       -2.09577904       0.77100930      -0.03199435
C       -0.73934899      -1.00631736       0.14896574
C        0.61619561      -0.67508264       0.00227253
C        1.42343551      -0.18299721      -1.17196123
C        2.20029123       0.58378121      -0.09582223
O        1.32293014       0.06897281       0.93368171
H       -1.20662134       0.77958457       1.92236446
H       -2.40050842      -0.52075863       1.71886307
H       -2.88019775       0.36635247      -0.65574891
H       -1.64948178       1.71119297      -0.32991416
H       -1.17753500      -1.61226024      -0.63602745
H        0.14218393      -1.88448323       0.64596497
H        1.97018899      -0.93921556      -1.73097372
H        0.84698053       0.44158057      -1.85733656
H        3.22781807       0.25768172       0.07260133
H        2.14381333       1.67201011      -0.13564470
17
Frame=9 idx=011431 GeodesicLength=0.9074384394624877 rxn_smarts="[C:1]1([H:8])([H:9])[C:2]([H:10])([H:11])[C:3]1([C@@:4]1([H:13])[C:5]([H:14])([H:15])[C:6]([H:16])([H:17])[O:7]1)[H:12]>>[C:1](=[C:2]([H:10])[H:11])([H:8])[H:9].[C:3](=[C:4]1[C:5]([H:14])([H:15])[C:6]([H:16])([H:17])[O:7]1)([H:12])[H:13]"
C       -1.74137089       0.19478955       1.21391931
C       -2.06518832       0.77020021      -0.03661731
C       -0.74076385      -1.02296794       0.13317616
C        0.61766462      -0.70131026      -0.00155937
C        1.41580262      -0.18386933      -1.17273545
C        2.18119583       0.58644526      -0.09102038
O        1.32018082       0.04258565       0.93635215
H       -1.21498535       0.81798600       1.93269362
H       -2.38776897      -0.50132242       1.73473236
H       -2.84273417       0.35984661      -0.66524764
H       -1.63459123       1.71952361      -0.32898648
H       -1.17794203      -1.63254395      -0.64969855
H        0.14592858      -1.91354244       0.63530501
H        1.97462393      -0.92734345      -1.73697510
H        0.83182068       0.43767112      -1.85391635
H        3.21624047       0.27998553       0.06879920
H        2.10188726       1.67386624      -0.11822117
17
Frame=10 idx=011431 GeodesicLength=1.0090452812695845 rxn_smarts="[C:1]1([H:8])([H:9])[C:2]([H:10])([H:11])[C:3]1([C@@:4]1([H:13])[C:5]([H:14])([H:15])[C:6]([H:16])([H:17])[O:7]1)[H:12]>>[C:1](=[C:2]([H:10])[H:11])([H:8])[H:9].[C:3](=[C:4]1[C:5]([H:14])([H:15])[C:6]([H:16])([H:17])[O:7]1)([H:12])[H:13]"
C       -1.73752759       0.22205865       1.22707635
C       -2.03473939       0.76863873      -0.04064884
C       -0.74223517      -1.03988190       0.11605200
C        0.61887581      -0.72740194      -0.00625003
C        1.40849449      -0.18461278      -1.17339427
C        2.16176133       0.58850173      -0.08527820
O        1.31675524       0.01590602       0.93877889
H       -1.22347890       0.85950752       1.94177812
H       -2.37161125      -0.48153083       1.75196989
H       -2.80728130       0.35260108      -0.67175808
H       -1.62146627       1.72666782      -0.33009183
H       -1.17824451      -1.65260854      -0.66514716
H        0.14994449      -1.94311511       0.62292809
H        1.97946014      -0.91502908      -1.74259879
H        0.81765024       0.43411586      -1.85063507
H        3.20369313       0.30166061       0.06682448
H        2.05994953       1.67452216      -0.09960553
17
Frame=11 idx=011431 GeodesicLength=1.1108653339678871 rxn_smarts="[C:1]1([H:8])([H:9])[C:2]([H:10])([H:11])[C:3]1([C@@:4]1([H:13])[C:5]([H:14])([H:15])[C:6]([H:16])([H:17])[O:7]1)[H:12]>>[C:1](=[C:2]([H:10])[H:11])([H:8])[H:9].[C:3](=[C:4]1[C:5]([H:14])([H:15])[C:6]([H:16])([H:17])[O:7]1)([H:12])[H:13]"
C       -1.73280051       0.25084608       1.24018413
C       -2.00448029       0.76629535      -0.04405951
C       -0.74379202      -1.05708186       0.09752430
C        0.61979832      -0.75338029      -0.01181113
C        1.40151292      -0.18521399      -1.17390910
C        2.14195863       0.58992159      -0.07854754
O        1.31256422      -0.01110767       0.94098445
H       -1.23216698       0.90431054       1.94944982
H       -2.35159058      -0.46134220       1.77073439
H       -2.77391952       0.34457261      -0.67528255
H       -1.61018700       1.73254365      -0.33325856
H       -1.17843946      -1.67244008      -0.68249523
H        0.15421414      -1.97324112       0.60873865
H        1.98472361      -0.90224598      -1.74778774
H        0.80447171       0.43095335      -1.84746913
H        3.19016599       0.32265311       0.06678308
H        2.01796681       1.67395691      -0.07977831
17
Frame=12 idx=011431 GeodesicLength=1.2129387024360538 rxn_smarts="[C:1]1([H:8])([H:9])[C:2]([H:10])([H:11])[C:3]1([C@@:4]1([H:13])[C:5]([H:14])([H:15])[C:6]([H:16])([H:17])[O:7]1)[H:12]>>[C:1](=[C:2]([H:10])[H:11])([H:8])[H:9].[C:3](=[C:4]1[C:5]([H:14])([H:15])[C:6]([H:16])([H:17])[O:7]1)([H:12])[H:13]"
C       -1.72716026       0.28124831       1.25323961
C       -1.97444291       0.76314780      -0.04681311
C       -0.74546800      -1.07459504       0.07751847
C        0.62039589      -0.77927801      -0.01825593
C        1.39485149      -0.18566449      -1.17424680
C        2.12173138       0.59068185      -0.07077666
O        1.30750241      -0.03850551       0.94299234
H       -1.24113314       0.95253890       1.95552291
H       -2.32718531      -0.44068553       1.79118042
H       -2.74268292       0.33573332      -0.67581574
H       -1.60079748       1.73704005      -0.33850571
H       -1.17852870      -1.69202029      -0.70187636
H        0.15871359      -2.00396648       0.59263509
H        1.99044355      -0.88896747      -1.75247196
H        0.79227787       0.42820788      -1.84439581
H        3.17562443       0.34293171       0.06878775
H        1.97585810       1.67215299      -0.05871850
17
Frame=13 idx=011431 GeodesicLength=1.3153281491937312 rxn_smarts="[C:1]1([H:8])([H:9])[C:2]([H:10])([H:11])[C:3]1([C@@:4]1([H:13])[C:5]([H:14])([H:15])[C:6]([H:16])([H:17])[O:7]1)[H:12]>>[C:1](=[C:2]([H:10])[H:11])([H:8])[H:9].[C:3](=[C:4]1[C:5]([H:14])([H:15])[C:6]([H:16])([H:17])[O:7]1)([H:12])[H:13]"
C       -1.72058260       0.31337162       1.26622985
C       -1.94464431       0.75917581      -0.04886633
C       -0.74730106      -1.09245179       0.05595350
C        0.62062576      -0.80513808      -0.02560173
C        1.38849362      -0.18595794      -1.17436804
C        2.10099118       0.59076148      -0.06190644
O        1.30144577      -0.06635204       0.94482642
H       -1.25048174       1.00432155       1.95978381
H       -2.29776884      -0.41944241       1.81345655
H       -2.71356053       0.32606114      -0.67333982
H       -1.59330408       1.74000870      -0.34584528
H       -1.17851791      -1.71132317      -0.72343590
H        0.16341271      -2.03534236       0.57450379
H        1.99665010      -0.87516021      -1.75656905
H        0.78105073       0.42589474      -1.84138802
H        3.16000225       0.36248414       0.07296120
H        1.93348895       1.66908881      -0.03639450
17
Frame=14 idx=011431 GeodesicLength=1.418131853095392 rxn_smarts="[C:1]1([H:8])([H:9])[C:2]([H:10])([H:11])[C:3]1([C@@:4]1([H:13])[C:5]([H:14])([H:15])[C:6]([H:16])([H:17])[O:7]1)[H:12]>>[C:1](=[C:2]([H:10])[H:11])([H:8])[H:9].[C:3](=[C:4]1[C:5]([H:14])([H:15])[C:6]([H:16])([H:17])[O:7]1)([H:12])[H:13]"
C       -1.71304234       0.34733577       1.27913090
C       -1.91509228       0.75436009      -0.05016829
C       -0.74933748      -1.11068735       0.03273575
C        0.62043720      -0.83101993      -0.03387386
C        1.38241465      -0.18609218      -1.17422576
C        2.07961056       0.59014228      -0.05186265
O        1.29425350      -0.09473935       0.94651345
H       -1.26032929       1.05977835       1.96198282
H       -2.26256659      -0.39742623       1.83770720
H       -2.68651046       0.31553366      -0.66781622
H       -1.58767774       1.74126280      -0.35528801
H       -1.17842437      -1.73031178      -0.74734172
H        0.16826928      -2.06743587       0.55420790
H        2.00338227      -0.86078408      -1.75997749
H        0.77076545       0.42401806      -1.83841821
H        3.14319525       0.38132802       0.07944841
H        1.89065241       1.66473773      -0.01275422
17
Frame=15 idx=011431 GeodesicLength=1.5214900798630009 rxn_smarts="[C:1]1([H:8])([H:9])[C:2]([H:10])([H:11])[C:3]1([C@@:4]1([H:13])[C:5]([H:14])([H:15])[C:6]([H:16])([H:17])[O:7]1)[H:12]>>[C:1](=[C:2]([H:10])[H:11])([H:8])[H:9].[C:3](=[C:4]1[C:5]([H:14])([H:15])[C:6]([H:16])([H:17])[O:7]1)([H:12])[H:13]"
C       -1.70451893       0.38327328       1.29190118
C       -1.88579275       0.74866973      -0.05066388
C       -0.75163065      -1.12934036       0.00776051
C        0.61976964      -0.85699460      -0.04310736
C        1.37657704      -0.18605894      -1.17376227
C        2.05742644       0.58879845      -0.04055025
O        1.28576086      -0.12378546       0.94808208
H       -1.27081534       1.11902179       1.96181739
H       -2.22060790      -0.37435291       1.86406342
H       -2.66146578       0.30410737      -0.65918282
H       -1.58387285       1.74056983      -0.36684529
H       -1.17827177      -1.74893807      -0.77378064
H        0.17323288      -2.10032332       0.53158545
H        2.01067432      -0.84577793      -1.76258264
H        0.76138741       0.42259125      -1.83544519
H        3.12505780       0.39948509       0.08842310
H        1.84708957       1.65905481       0.01228721
17
Frame=16 idx=011431 GeodesicLength=1.625609075054134 rxn_smarts="[C:1]1([H:8])([H:9])[C:2]([H:10])([H:11])[C:3]1([C@@:4]1([H:13])[C:5]([H:14])([H:15])[C:6]([H:16])([H:17])[O:7]1)[H:12]>>[C:1](=[C:2]([H:10])[H:11])([H:8])[H:9].[C:3](=[C:4]1[C:5]([H:14])([H:15])[C:6]([H:16])([H:17])[O:7]1)([H:12])[H:13]"
C       -1.69498729       0.42133000       1.30447697
C       -1.85675295       0.74205991      -0.05029207
C       -0.75424612      -1.14845708      -0.01909267
C        0.61855117      -0.88315728      -0.05335285
C        1.37092966      -0.18584525      -1.17290383
C        2.03422157       0.58669729      -0.02784169
O        1.27578022      -0.15366120       0.94956437
H       -1.28208636       1.18215475       1.95891412
H       -2.17065284      -0.34978975       1.89263016
H       -2.63834449       0.29171339      -0.64734542
H       -1.58182037       1.73764357      -0.38053441
H       -1.17810018      -1.76713711      -0.80296730
H        0.17823778      -2.13410510       0.50643276
H        2.01856783      -0.83005025      -1.76424484
H        0.75287039       0.42163275      -1.83241254
H        3.10538699       0.41700216       0.10010225
H        1.80244498       1.65196921       0.03886697
