11
Frame=0 idx=010680 GeodesicLength=0.0 rxn_smarts="[C:1](#[C:2][c:3]1[c:4]([H:9])[c:5]([H:10])[c:6]([H:11])[o:7]1)[H:8]>>[C-:1]#[C:2][C:3]1=[O+:7][C:6]([H:11])=[C:5]([H:10])[C:4]1([H:8])[H:9]"
C        2.22842107      -0.03033315      -0.62190441
C        2.09754554      -0.96391279       0.25858609
C        0.71821891      -0.63141472       0.30487389
C        0.20553451       0.71580994       0.36498084
C       -1.19780739       0.59125864       0.00674469
C       -1.40487405      -0.70688171      -0.23522764
O       -0.26559143      -1.46112344      -0.07067449
H        1.26261508       0.95609400      -0.55804355
H        0.58012936       1.42703935       1.08963172
H       -1.93967703       1.37131396      -0.03364434
H       -2.28451453      -1.26785011      -0.50532284
11
Frame=1 idx=010680 GeodesicLength=0.11068037879266551 rxn_smarts="[C:1](#[C:2][c:3]1[c:4]([H:9])[c:5]([H:10])[c:6]([H:11])[o:7]1)[H:8]>>[C-:1]#[C:2][C:3]1=[O+:7][C:6]([H:11])=[C:5]([H:10])[C:4]1([H:8])[H:9]"
C        2.26430448      -0.04365663      -0.61952930
C        2.08777213      -0.96344070       0.26243742
C        0.71128568      -0.62735502       0.30520087
C        0.20228236       0.72155799       0.35267163
C       -1.20388728       0.59173788       0.00375976
C       -1.41049913      -0.70683980      -0.23654169
O       -0.26934951      -1.45834927      -0.07634451
H        1.29708243       0.96889413      -0.57168557
H        0.56636238       1.42600570       1.08989063
H       -1.95561491       1.36344130      -0.01069666
H       -2.28973863      -1.27199557      -0.49916256
11
Frame=2 idx=010680 GeodesicLength=0.22134125930776666 rxn_smarts="[C:1](#[C:2][c:3]1[c:4]([H:9])[c:5]([H:10])[c:6]([H:11])[o:7]1)[H:8]>>[C-:1]#[C:2][C:3]1=[O+:7][C:6]([H:11])=[C:5]([H:10])[C:4]1([H:8])[H:9]"
C        2.30069461      -0.05753163      -0.61663377
C        2.07784234      -0.96243724       0.26521928
C        0.70413434      -0.62312198       0.30550504
C        0.19865328       0.72731783       0.34051431
C       -1.21047892       0.59208345       0.00165737
C       -1.41644815      -0.70691692      -0.23726576
O       -0.27322823      -1.45548192      -0.08203857
H        1.33255084       0.98181189      -0.58508469
H        0.55238082       1.42520308       1.08963684
H       -1.97115195       1.35528166       0.01188623
H       -2.29494899      -1.27620821      -0.49339629
11
Frame=3 idx=010680 GeodesicLength=0.3319876791429007 rxn_smarts="[C:1](#[C:2][c:3]1[c:4]([H:9])[c:5]([H:10])[c:6]([H:11])[o:7]1)[H:8]>>[C-:1]#[C:2][C:3]1=[O+:7][C:6]([H:11])=[C:5]([H:10])[C:4]1([H:8])[H:9]"
C        2.33774395      -0.07190675      -0.61300317
C        2.06775274      -0.96091950       0.26686770
C        0.69674909      -0.61873564       0.30566467
C        0.19460557       0.73306420       0.32849771
C       -1.21756603       0.59230099       0.00026084
C       -1.42269773      -0.70708650      -0.23768975
O       -0.27720240      -1.45248754      -0.08809548
H        1.36917949       0.99491444      -0.59812371
H        0.53813420       1.42455793       1.08894647
H       -1.98635723       1.34689565       0.03398656
H       -2.30034163      -1.28059728      -0.48731185
11
Frame=4 idx=010680 GeodesicLength=0.44261498636457464 rxn_smarts="[C:1](#[C:2][c:3]1[c:4]([H:9])[c:5]([H:10])[c:6]([H:11])[o:7]1)[H:8]>>[C-:1]#[C:2][C:3]1=[O+:7][C:6]([H:11])=[C:5]([H:10])[C:4]1([H:8])[H:9]"
C        2.37536917      -0.08691720      -0.60875690
C        2.05752819      -0.95882312       0.26730520
C        0.68914191      -0.61416967       0.30580880
C        0.19011420       0.73882126       0.31666297
C       -1.22519632       0.59234335      -0.00016557
C       -1.42928814      -0.70741059      -0.23746278
O       -0.28130476      -1.44939512      -0.09415324
H        1.40693786       1.00812239      -0.61096057
H        0.52376036       1.42422054       1.08771014
H       -2.00134700       1.33830419       0.05573003
H       -2.30571545      -1.28509603      -0.48171809
11
Frame=5 idx=010680 GeodesicLength=0.5532315423691977 rxn_smarts="[C:1](#[C:2][c:3]1[c:4]([H:9])[c:5]([H:10])[c:6]([H:11])[o:7]1)[H:8]>>[C-:1]#[C:2][C:3]1=[O+:7][C:6]([H:11])=[C:5]([H:10])[C:4]1([H:8])[H:9]"
C        2.41382879      -0.10246675      -0.60349759
C        2.04714036      -0.95618876       0.26645697
C        0.68127896      -0.60945093       0.30571152
C        0.18512972       0.74456276       0.30494222
C       -1.23333047       0.59225126      -0.00001711
C       -1.43619544      -0.70783381      -0.23704564
O       -0.28549839      -1.44613501      -0.10080825
H        1.44608792       1.02153557      -0.62341065
H        0.50913349       1.42405553       1.08602998
H       -2.01619316       1.32953543       0.07704250
H       -2.31138178      -1.28986529      -0.47540396
11
Frame=6 idx=010680 GeodesicLength=0.6638311017105061 rxn_smarts="[C:1](#[C:2][c:3]1[c:4]([H:9])[c:5]([H:10])[c:6]([H:11])[o:7]1)[H:8]>>[C-:1]#[C:2][C:3]1=[O+:7][C:6]([H:11])=[C:5]([H:10])[C:4]1([H:8])[H:9]"
C        2.45298903      -0.11876629      -0.59739696
C        2.03661616      -0.95291141       0.26425545
C        0.67317818      -0.60452332       0.30558529
C        0.17962315       0.75033882       0.29335717
C       -1.24203453       0.59197054       0.00105245
C       -1.44347462      -0.70844514      -0.23590083
O       -0.28983888      -1.44275441      -0.10745097
H        1.48657009       1.03500617      -0.63577100
H        0.49443181       1.42430917       1.08370925
H       -2.03103643       1.32055415       0.09826855
H       -2.31702398      -1.29477828      -0.46970840
11
Frame=7 idx=010680 GeodesicLength=0.7744214080374117 rxn_smarts="[C:1](#[C:2][c:3]1[c:4]([H:9])[c:5]([H:10])[c:6]([H:11])[o:7]1)[H:8]>>[C-:1]#[C:2][C:3]1=[O+:7][C:6]([H:11])=[C:5]([H:10])[C:4]1([H:8])[H:9]"
C        2.49314561      -0.13568135      -0.58994613
C        2.02591454      -0.94903712       0.26054028
C        0.66479935      -0.59942094       0.30513757
C        0.17353930       0.75611912       0.28183898
C       -1.25127493       0.59154988       0.00261596
C       -1.45111258      -0.70918013      -0.23452664
O       -0.29429105      -1.43916365      -0.11479935
H        1.52868775       1.04865412      -0.64782337
H        0.47950082       1.42479373       1.08089333
H       -2.04591209       1.31138902       0.11924014
H       -2.32299672      -1.30002267      -0.46317078
11
Frame=8 idx=010680 GeodesicLength=0.8850294219439869 rxn_smarts="[C:1](#[C:2][c:3]1[c:4]([H:9])[c:5]([H:10])[c:6]([H:11])[o:7]1)[H:8]>>[C-:1]#[C:2][C:3]1=[O+:7][C:6]([H:11])=[C:5]([H:10])[C:4]1([H:8])[H:9]"
C        2.53466126      -0.15295607      -0.58048675
C        2.01498299      -0.94465754       0.25498563
C        0.65608889      -0.59423737       0.30390578
C        0.16682789       0.76184907       0.27037552
C       -1.26100877       0.59104765       0.00416383
C       -1.45910454      -0.70995159      -0.23363295
O       -0.29880952      -1.43524812      -0.12398644
H        1.57283442       1.06273090      -0.65912210
H        0.46412542       1.42514272       1.07793034
H       -2.06079534       1.30217669       0.13929998
H       -2.32980270      -1.30589633      -0.45343284
11
Frame=9 idx=010680 GeodesicLength=0.9955426699238666 rxn_smarts="[C:1](#[C:2][c:3]1[c:4]([H:9])[c:5]([H:10])[c:6]([H:11])[o:7]1)[H:8]>>[C-:1]#[C:2][C:3]1=[O+:7][C:6]([H:11])=[C:5]([H:10])[C:4]1([H:8])[H:9]"
C        2.57657020      -0.17166395      -0.57043813
C        2.00397634      -0.93919474       0.24787731
C        0.64715847      -0.58865853       0.30305962
C        0.15944310       0.76773242       0.25903904
C       -1.27145607       0.59025798       0.00713612
C       -1.46742741      -0.71097681      -0.23166081
O       -0.30357385      -1.43123625      -0.13193715
H        1.61854218       1.07657818      -0.67082410
H        0.44888831       1.42638010       1.07397140
H       -2.07606060       1.29253862       0.16020139
H       -2.33606067      -1.31175704      -0.44642468
11
Frame=10 idx=010680 GeodesicLength=1.1060486754580436 rxn_smarts="[C:1](#[C:2][c:3]1[c:4]([H:9])[c:5]([H:10])[c:6]([H:11])[o:7]1)[H:8]>>[C-:1]#[C:2][C:3]1=[O+:7][C:6]([H:11])=[C:5]([H:10])[C:4]1([H:8])[H:9]"
C        2.61969599      -0.19112091      -0.55834138
C        1.99275631      -0.93295495       0.23860523
C        0.63790769      -0.58288551       0.30162864
C        0.15132585       0.77365786       0.24774684
C       -1.28250177       0.58932839       0.01042453
C       -1.47612606      -0.71210516      -0.22983733
O       -0.30849895      -1.42693634      -0.14096514
H        1.66648786       1.09066600      -0.68216529
H        0.43334227       1.42777998       1.06966291
H       -2.09156662       1.28272100       0.18077768
H       -2.34282258      -1.31815036      -0.43753668
11
Frame=11 idx=010680 GeodesicLength=1.2165295393986828 rxn_smarts="[C:1](#[C:2][c:3]1[c:4]([H:9])[c:5]([H:10])[c:6]([H:11])[o:7]1)[H:8]>>[C-:1]#[C:2][C:3]1=[O+:7][C:6]([H:11])=[C:5]([H:10])[C:4]1([H:8])[H:9]"
C        2.66411987      -0.21140049      -0.54374919
C        1.98129426      -0.92584308       0.22683510
C        0.62833140      -0.57686293       0.29956164
C        0.14241308       0.77966382       0.23642678
C       -1.29421070       0.58824205       0.01412141
C       -1.48526529      -0.71336715      -0.22791785
O       -0.31363513      -1.42230542      -0.15094811
H        1.71682721       1.10486076      -0.69339779
H        0.41752592       1.42942738       1.06486692
H       -2.10741562       1.27265668       0.20132880
H       -2.34998500      -1.32507163      -0.42712771
11
Frame=12 idx=010680 GeodesicLength=1.326951283082964 rxn_smarts="[C:1](#[C:2][c:3]1[c:4]([H:9])[c:5]([H:10])[c:6]([H:11])[o:7]1)[H:8]>>[C-:1]#[C:2][C:3]1=[O+:7][C:6]([H:11])=[C:5]([H:10])[C:4]1([H:8])[H:9]"
C        2.70906689      -0.23344185      -0.52772384
C        1.96971511      -0.91724156       0.21289212
C        0.61855304      -0.57024993       0.29801901
C        0.13260913       0.78597466       0.22504290
C       -1.30679346       0.58678182       0.01954624
C       -1.49483208      -0.71507437      -0.22422865
O       -0.31912574      -1.41770373      -0.15886501
H        1.76924599       1.11846242      -0.70597399
H        0.40192394       1.43247484       1.05868049
H       -2.12390965       1.26184053       0.22389871
H       -2.35645317      -1.33182284      -0.42128797
11
Frame=13 idx=010680 GeodesicLength=1.4373241569173234 rxn_smarts="[C:1](#[C:2][c:3]1[c:4]([H:9])[c:5]([H:10])[c:6]([H:11])[o:7]1)[H:8]>>[C-:1]#[C:2][C:3]1=[O+:7][C:6]([H:11])=[C:5]([H:10])[C:4]1([H:8])[H:9]"
C        2.75585501      -0.25595469      -0.50715630
C        1.95775845      -0.90770004       0.19510586
C        0.60843908      -0.56337442       0.29524223
C        0.12184863       0.79234405       0.21347505
C       -1.32012932       0.58515351       0.02532627
C       -1.50501005      -0.71693624      -0.22023058
O       -0.32491501      -1.41261712      -0.16839799
H        1.82457410       1.13198196      -0.71894679
H        0.38599304       1.43555663       1.05199908
H       -2.14079816       1.25078963       0.24650003
H       -2.36361578      -1.33924327      -0.41291686
11
Frame=14 idx=010680 GeodesicLength=1.5476152372793293 rxn_smarts="[C:1](#[C:2][c:3]1[c:4]([H:9])[c:5]([H:10])[c:6]([H:11])[o:7]1)[H:8]>>[C-:1]#[C:2][C:3]1=[O+:7][C:6]([H:11])=[C:5]([H:10])[C:4]1([H:8])[H:9]"
C        2.80310842      -0.28040952      -0.48398383
C        1.94563056      -0.89616864       0.17406364
C        0.59821494      -0.55572082       0.29309937
C        0.10996503       0.79909404       0.20172965
C       -1.33449080       0.58298702       0.03338965
C       -1.51570845      -0.71951154      -0.21340279
O       -0.33115155      -1.40773766      -0.17482482
H        1.88245681       1.14449544      -0.73435132
H        0.37033412       1.44042579       1.04358109
H       -2.15844155       1.23874382       0.27195816
H       -2.36991753      -1.34619792      -0.41125881
11
Frame=15 idx=010680 GeodesicLength=1.6578280551923585 rxn_smarts="[C:1](#[C:2][c:3]1[c:4]([H:9])[c:5]([H:10])[c:6]([H:11])[o:7]1)[H:8]>>[C-:1]#[C:2][C:3]1=[O+:7][C:6]([H:11])=[C:5]([H:10])[C:4]1([H:8])[H:9]"
C        2.85177229      -0.30568155      -0.45484251
C        1.93305439      -0.88293776       0.14755652
C        0.58781551      -0.54755962       0.29003345
C        0.09686799       0.80601511       0.18968892
C       -1.34980254       0.58040396       0.04279336
C       -1.52710200      -0.72261799      -0.20475203
O       -0.33787183      -1.40270961      -0.18090806
H        1.94377288       1.15630738      -0.75174829
H        0.35455619       1.44593825       1.03411980
H       -2.17663764       1.22611431       0.29882796
H       -2.37642524      -1.35327249      -0.41076911
11
Frame=16 idx=010680 GeodesicLength=1.767926976965933 rxn_smarts="[C:1](#[C:2][c:3]1[c:4]([H:9])[c:5]([H:10])[c:6]([H:11])[o:7]1)[H:8]>>[C-:1]#[C:2][C:3]1=[O+:7][C:6]([H:11])=[C:5]([H:10])[C:4]1([H:8])[H:9]"
C        2.90149238      -0.33190696      -0.41799641
C        1.91987573      -0.86748328       0.11379550
C        0.57729697      -0.53883543       0.28552717
C        0.08241123       0.81314161       0.17717891
C       -1.36610543       0.57737288       0.05335780
C       -1.53916313      -0.72625531      -0.19465948
O       -0.34513993      -1.39755971      -0.18679721
H        2.00957558       1.16746020      -0.77104976
H        0.33848333       1.45193432       1.02361800
H       -2.19540514       1.21275900       0.32724360
H       -2.38332158      -1.36062731      -0.41021813
