10
Frame=0 idx=003683 GeodesicLength=0.0 rxn_smarts="[c:1]1([H:7])[c:2]([H:8])[n:3][c:4]([H:9])[n:5][c:6]1[H:10]>>[C+:1]1=[C:2]([H:8])[N-:3][C:4]([H:7])([H:9])[N:5]=[C:6]1[H:10]"
C       -0.94210975       0.11079716       0.42591684
C       -0.49380357       1.20952763      -0.41043573
N        0.78786205       1.16448945      -0.37804413
C        1.03764772      -0.06446104       0.37910541
N        0.57151404      -1.32123145      -0.21180202
C       -0.69897631      -1.14936387      -0.25301835
H        0.21788049       0.06815592       1.29579223
H       -1.09426432       1.92761847      -0.95374571
H        2.03377853      -0.12360170       0.80667609
H       -1.41952888      -1.82193057      -0.70044462
10
Frame=1 idx=003683 GeodesicLength=0.093952080298747 rxn_smarts="[c:1]1([H:7])[c:2]([H:8])[n:3][c:4]([H:9])[n:5][c:6]1[H:10]>>[C+:1]1=[C:2]([H:8])[N-:3][C:4]([H:7])([H:9])[N:5]=[C:6]1[H:10]"
C       -0.96025030       0.11090543       0.40421601
C       -0.49180923       1.20671790      -0.42200501
N        0.79165169       1.15868608      -0.37873754
C        1.04108402      -0.06469115       0.38034061
N        0.57622725      -1.31635806      -0.21317259
C       -0.69667547      -1.14853621      -0.26479418
H        0.19061578       0.07121273       1.30600623
H       -1.08212789       1.95762978      -0.93098032
H        2.04363145      -0.12539282       0.79289471
H       -1.41234729      -1.85017368      -0.67376790
10
Frame=2 idx=003683 GeodesicLength=0.1876882862173596 rxn_smarts="[c:1]1([H:7])[c:2]([H:8])[n:3][c:4]([H:9])[n:5][c:6]1[H:10]>>[C+:1]1=[C:2]([H:8])[N-:3][C:4]([H:7])([H:9])[N:5]=[C:6]1[H:10]"
C       -0.97859489       0.11093525       0.38112331
C       -0.48980457       1.20392096      -0.43418276
N        0.79534965       1.15297464      -0.37921688
C        1.04455776      -0.06492569       0.38153900
N        0.58083837      -1.31154557      -0.21428709
C       -0.69437364      -1.14782592      -0.27712999
H        0.16169904       0.07439747       1.31579620
H       -1.06911536       1.98684931      -0.90645086
H        2.05359264      -0.12723873       0.77830541
H       -1.40414900      -1.87754172      -0.64549634
10
Frame=3 idx=003683 GeodesicLength=0.2812886116429962 rxn_smarts="[c:1]1([H:7])[c:2]([H:8])[n:3][c:4]([H:9])[n:5][c:6]1[H:10]>>[C+:1]1=[C:2]([H:8])[N-:3][C:4]([H:7])([H:9])[N:5]=[C:6]1[H:10]"
C       -0.99703085       0.11090861       0.35701727
C       -0.48784935       1.20122560      -0.44651609
N        0.79889054       1.14735357      -0.37940278
C        1.04817450      -0.06517558       0.38271781
N        0.58528399      -1.30676870      -0.21507250
C       -0.69213568      -1.14724891      -0.28957960
H        0.13129940       0.07771364       1.32533757
H       -1.05543664       2.01439881      -0.88082826
H        2.06380196      -0.12916792       0.76273383
H       -1.39499787      -1.90323912      -0.61640725
10
Frame=4 idx=003683 GeodesicLength=0.3747835698596157 rxn_smarts="[c:1]1([H:7])[c:2]([H:8])[n:3][c:4]([H:9])[n:5][c:6]1[H:10]>>[C+:1]1=[C:2]([H:8])[N-:3][C:4]([H:7])([H:9])[N:5]=[C:6]1[H:10]"
C       -1.01545297       0.11082856       0.33223196
C       -0.48596963       1.19870010      -0.45862976
N        0.80224319       1.14183305      -0.37920884
C        1.05204319      -0.06543822       0.38390201
N        0.58953553      -1.30200482      -0.21546121
C       -0.69000009      -1.14679148      -0.30177259
H        0.09957529       0.08113880       1.33479854
H       -1.04130243       2.03970186      -0.85473231
H        2.07437190      -0.13119147       0.74604109
H       -1.38504398      -1.92677639      -0.58716889
10
Frame=5 idx=003683 GeodesicLength=0.4682555309304421 rxn_smarts="[c:1]1([H:7])[c:2]([H:8])[n:3][c:4]([H:9])[n:5][c:6]1[H:10]>>[C+:1]1=[C:2]([H:8])[N-:3][C:4]([H:7])([H:9])[N:5]=[C:6]1[H:10]"
C       -1.03375840       0.11071555       0.30700693
C       -0.48416849       1.19636218      -0.47024768
N        0.80541021       1.13641758      -0.37857247
C        1.05627770      -0.06573849       0.38507663
N        0.59359214      -1.29725767      -0.21538387
C       -0.68795955      -1.14645129      -0.31343995
H        0.06663872       0.08469592       1.34431740
H       -1.02695288       2.06251748      -0.82863287
H        2.08537531      -0.13333509       0.72816431
H       -1.37445476      -1.94792618      -0.55828843
10
Frame=6 idx=003683 GeodesicLength=0.5617829711272633 rxn_smarts="[c:1]1([H:7])[c:2]([H:8])[n:3][c:4]([H:9])[n:5][c:6]1[H:10]>>[C+:1]1=[C:2]([H:8])[N-:3][C:4]([H:7])([H:9])[N:5]=[C:6]1[H:10]"
C       -1.05188641       0.11056090       0.28149777
C       -0.48241427       1.19422587      -0.48119790
N        0.80841763       1.13112831      -0.37742424
C        1.06099236      -0.06607071       0.38623238
N        0.59748088      -1.29252896      -0.21479457
C       -0.68599380      -1.14619630      -0.32442664
H        0.03251595       0.08834994       1.35398839
H       -1.01255493       2.08280242      -0.80286459
H        2.09686938      -0.13559283       0.70904830
H       -1.36342679      -1.96667864      -0.53005891
10
Frame=7 idx=003683 GeodesicLength=0.6553690589716713 rxn_smarts="[c:1]1([H:7])[c:2]([H:8])[n:3][c:4]([H:9])[n:5][c:6]1[H:10]>>[C+:1]1=[C:2]([H:8])[N-:3][C:4]([H:7])([H:9])[N:5]=[C:6]1[H:10]"
C       -1.06979191       0.11037275       0.25579813
C       -0.48067911       1.19227358      -0.49137308
N        0.81130039       1.12597747      -0.37571723
C        1.06629428      -0.06645233       0.38736355
N        0.60123150      -1.28783131      -0.21364431
C       -0.68406688      -1.14600685      -0.33462963
H       -0.00279023       0.09211740       1.36385499
H       -0.99827516       2.10062670      -0.77763577
H        2.10889601      -0.13798080       0.68866583
H       -1.35211889      -1.98309662      -0.50268246
10
Frame=8 idx=003683 GeodesicLength=0.7490776020306471 rxn_smarts="[c:1]1([H:7])[c:2]([H:8])[n:3][c:4]([H:9])[n:5][c:6]1[H:10]>>[C+:1]1=[C:2]([H:8])[N-:3][C:4]([H:7])([H:9])[N:5]=[C:6]1[H:10]"
C       -1.08743341       0.11015200       0.22983210
C       -0.47891294       1.19047941      -0.50081229
N        0.81411018       1.12097509      -0.37344754
C        1.07226226      -0.06690524       0.38841448
N        0.60488707      -1.28318226      -0.21192683
C       -0.68212356      -1.14587393      -0.34408814
H       -0.03939529       0.09603161       1.37389086
H       -0.98419415       2.11626057      -0.75286041
H        2.12143420      -0.14050813       0.66705145
H       -1.34063436      -1.99742913      -0.47605369
10
Frame=9 idx=003683 GeodesicLength=0.8431899432184196 rxn_smarts="[c:1]1([H:7])[c:2]([H:8])[n:3][c:4]([H:9])[n:5][c:6]1[H:10]>>[C+:1]1=[C:2]([H:8])[N-:3][C:4]([H:7])([H:9])[N:5]=[C:6]1[H:10]"
C       -1.10484403       0.10990680       0.20386463
C       -0.47713904       1.18883515      -0.50933229
N        0.81680939       1.11618259      -0.37033442
C        1.07901548      -0.06743032       0.38929721
N        0.60841043      -1.27860143      -0.20936233
C       -0.68019043      -1.14575555      -0.35263106
H       -0.07741645       0.10007258       1.38423705
H       -0.97027833       2.12972702      -0.72898258
H        2.13460462      -0.14319201       0.64382092
H       -1.32897165      -2.00974483      -0.45057712
10
Frame=10 idx=003683 GeodesicLength=0.9373911538614096 rxn_smarts="[c:1]1([H:7])[c:2]([H:8])[n:3][c:4]([H:9])[n:5][c:6]1[H:10]>>[C+:1]1=[C:2]([H:8])[N-:3][C:4]([H:7])([H:9])[N:5]=[C:6]1[H:10]"
C       -1.12193084       0.10960856       0.17749679
C       -0.47524112       1.18730032      -0.51714948
N        0.81951228       1.11155951      -0.36658269
C        1.08660099      -0.06803784       0.39003688
N        0.61191571      -1.27409888      -0.20614809
C       -0.67814532      -1.14566736      -0.36046778
H       -0.11702301       0.10426120       1.39467084
H       -0.95666705       2.14144478      -0.70544992
H        2.14829596      -0.14601197       0.61926775
H       -1.31731759      -2.02035833      -0.42567431
10
Frame=11 idx=003683 GeodesicLength=1.0316436648142546 rxn_smarts="[c:1]1([H:7])[c:2]([H:8])[n:3][c:4]([H:9])[n:5][c:6]1[H:10]>>[C+:1]1=[C:2]([H:8])[N-:3][C:4]([H:7])([H:9])[N:5]=[C:6]1[H:10]"
C       -1.13866045       0.10924730       0.15067533
C       -0.47319018       1.18585960      -0.52426147
N        0.82224704       1.10711636      -0.36216521
C        1.09509786      -0.06873669       0.39059061
N        0.61542690      -1.26968151      -0.20225377
C       -0.67595729      -1.14559605      -0.36759645
H       -0.15835659       0.10860324       1.40514686
H       -0.94339133       2.15154205      -0.68220932
H        2.16250887      -0.14897171       0.59334735
H       -1.30572484      -2.02938260      -0.40127394
10
Frame=12 idx=003683 GeodesicLength=1.1259291757305752 rxn_smarts="[c:1]1([H:7])[c:2]([H:8])[n:3][c:4]([H:9])[n:5][c:6]1[H:10]>>[C+:1]1=[C:2]([H:8])[N-:3][C:4]([H:7])([H:9])[N:5]=[C:6]1[H:10]"
C       -1.15500107       0.10881643       0.12331258
C       -0.47094874       1.18449496      -0.53067822
N        0.82504264       1.10286040      -0.35702831
C        1.10458539      -0.06953575       0.39093093
N        0.61897308      -1.26535791      -0.19762258
C       -0.67358696      -1.14553377      -0.37402892
H       -0.20162388       0.11311083       1.41560130
H       -0.93046319       2.16016304      -0.65916642
H        2.17724972      -0.15207795       0.56594386
H       -1.29422700      -2.03694028      -0.37726422
10
Frame=13 idx=003683 GeodesicLength=1.2201890950023886 rxn_smarts="[c:1]1([H:7])[c:2]([H:8])[n:3][c:4]([H:9])[n:5][c:6]1[H:10]>>[C+:1]1=[C:2]([H:8])[N-:3][C:4]([H:7])([H:9])[N:5]=[C:6]1[H:10]"
C       -1.17091013       0.10830597       0.09532617
C       -0.46848027       1.18318917      -0.53640617
N        0.82792694       1.09880246      -0.35111616
C        1.11514918      -0.07044343       0.39101662
N        0.62258251      -1.26113439      -0.19220881
C       -0.67099673      -1.14546872      -0.37977522
H       -0.24702393       0.11779105       1.42595268
H       -0.91789733       2.16741303      -0.63622274
H        2.19250862      -0.15533632       0.53695661
H       -1.28285887      -2.04311883      -0.35352299
10
Frame=14 idx=003683 GeodesicLength=1.3144036027461867 rxn_smarts="[c:1]1([H:7])[c:2]([H:8])[n:3][c:4]([H:9])[n:5][c:6]1[H:10]>>[C+:1]1=[C:2]([H:8])[N-:3][C:4]([H:7])([H:9])[N:5]=[C:6]1[H:10]"
C       -1.18634287       0.10770587       0.06660083
C       -0.46574196       1.18193051      -0.54143987
N        0.83092772       1.09495172      -0.34433928
C        1.12688275      -0.07147310       0.39081510
N        0.62628004      -1.25701456      -0.18591202
C       -0.66814081      -1.14539904      -0.38483281
H       -0.29483572       0.12266748       1.43609292
H       -0.90569738       2.17338543      -0.61325270
H        2.20829926      -0.15876375       0.50618947
H       -1.27163102      -2.04799057      -0.32992162
10
Frame=15 idx=003683 GeodesicLength=1.4085000902643159 rxn_smarts="[c:1]1([H:7])[c:2]([H:8])[n:3][c:4]([H:9])[n:5][c:6]1[H:10]>>[C+:1]1=[C:2]([H:8])[N-:3][C:4]([H:7])([H:9])[N:5]=[C:6]1[H:10]"
C       -1.20123920       0.10700442       0.03703704
C       -0.46268796       1.18070312      -0.54576306
N        0.83407208       1.09132088      -0.33658521
C        1.13989029      -0.07263522       0.39029706
N        0.63009208      -1.25300142      -0.17862048
C       -0.66497187      -1.14531592      -0.38918442
H       -0.34532876       0.12775432       1.44589580
H       -0.89387771       2.17814734      -0.59015252
H        2.22462030      -0.16237346       0.47342483
H       -1.26056925      -2.05160407      -0.30634903
10
Frame=16 idx=003683 GeodesicLength=1.502422941907373 rxn_smarts="[c:1]1([H:7])[c:2]([H:8])[n:3][c:4]([H:9])[n:5][c:6]1[H:10]>>[C+:1]1=[C:2]([H:8])[N-:3][C:4]([H:7])([H:9])[N:5]=[C:6]1[H:10]"
C       -1.21552097       0.10618435       0.00650158
C       -0.45926379       1.17949839      -0.54935588
N        0.83738792       1.08792210      -0.32771584
C        1.15428782      -0.07394201       0.38942931
N        0.63404494      -1.24909203      -0.17019770
C       -0.66143535      -1.14521650      -0.39280786
H       -0.39884012       0.13306947       1.45519428
H       -0.88243892       2.18175137      -0.56677677
H        2.24145911      -0.16618407       0.43838266
H       -1.24968064      -2.05399105      -0.28265378
