15
Frame=0 idx=011885 GeodesicLength=0.0 rxn_smarts="[C:1]([C:2]([n:3]1[c:4]([H:13])[c:5]([H:14])[n:6][c:7]1[H:15])([H:11])[H:12])([H:8])([H:9])[H:10]>>[C:1]([C:2](/[N:3]=[C:7](/[N:6]1[C:4]([H:13])=[C:5]1[H:14])[H:15])([H:11])[H:12])([H:8])([H:9])[H:10]"
C       -2.38279452       0.02298693       0.29177547
C       -1.24896981       0.05334768      -0.72144018
N        0.03937216      -0.06891423      -0.06687595
C        2.08206280      -1.08711851       0.86956264
C        2.96689768      -0.39803353       0.27737524
N        2.20418427       0.77477142       0.13357297
C        0.93394371       0.81421823      -0.30150877
H       -3.35323656       0.06652273      -0.20720224
H       -2.34161632      -0.89330974       0.88336495
H       -2.31006121       0.86941977       0.97730431
H       -1.31038505       0.96913306      -1.32656086
H       -1.36271741      -0.78542178      -1.41605192
H        1.36772398      -1.59975360       1.47054077
H        4.00685105      -0.47012073      -0.00921462
H        0.70874518       1.73227230      -0.85464180
15
Frame=1 idx=011885 GeodesicLength=0.0704780887913731 rxn_smarts="[C:1]([C:2]([n:3]1[c:4]([H:13])[c:5]([H:14])[n:6][c:7]1[H:15])([H:11])[H:12])([H:8])([H:9])[H:10]>>[C:1]([C:2](/[N:3]=[C:7](/[N:6]1[C:4]([H:13])=[C:5]1[H:14])[H:15])([H:11])[H:12])([H:8])([H:9])[H:10]"
C       -2.37217063       0.01844062       0.29460369
C       -1.24036571       0.04912669      -0.72087043
N        0.05030425      -0.06135383      -0.06949628
C        2.04151087      -1.08216631       0.84087340
C        2.94704354      -0.40416619       0.26190431
N        2.20107839       0.78484085       0.15924414
C        0.93467182       0.83842832      -0.28848521
H       -3.34346490       0.05495613      -0.20318664
H       -2.32587757      -0.89450073       0.89090727
H       -2.30231260       0.86881837       0.97549405
H       -1.30706498       0.96118132      -1.33061611
H       -1.34949098      -0.79443556      -1.41021125
H        1.35785687      -1.59664389       1.47584766
H        3.99045210      -0.48358837      -0.00789973
H        0.71782953       1.74106257      -0.86810887
15
Frame=2 idx=011885 GeodesicLength=0.14089624994035183 rxn_smarts="[C:1]([C:2]([n:3]1[c:4]([H:13])[c:5]([H:14])[n:6][c:7]1[H:15])([H:11])[H:12])([H:8])([H:9])[H:10]>>[C:1]([C:2](/[N:3]=[C:7](/[N:6]1[C:4]([H:13])=[C:5]1[H:14])[H:15])([H:11])[H:12])([H:8])([H:9])[H:10]"
C       -2.36191755       0.01488085       0.29721988
C       -1.23188933       0.04421557      -0.72028160
N        0.06084932      -0.05414467      -0.07175008
C        2.00285036      -1.07471123       0.81564062
C        2.92759445      -0.40869067       0.24753711
N        2.19750489       0.79408971       0.18451143
C        0.93528998       0.86116387      -0.27627828
H       -3.33389921       0.04417838      -0.19961477
H       -2.31101637      -0.89397434       0.89928683
H       -2.29479045       0.86992953       0.97247243
H       -1.30326941       0.95184433      -1.33565095
H       -1.33654327      -0.80483116      -1.40336350
H        1.34947493      -1.59726781       1.47623970
H        3.97356575      -0.49655394      -0.00750734
H        0.72619591       1.74987158      -0.87846149
15
Frame=3 idx=011885 GeodesicLength=0.21123379025514671 rxn_smarts="[C:1]([C:2]([n:3]1[c:4]([H:13])[c:5]([H:14])[n:6][c:7]1[H:15])([H:11])[H:12])([H:8])([H:9])[H:10]>>[C:1]([C:2](/[N:3]=[C:7](/[N:6]1[C:4]([H:13])=[C:5]1[H:14])[H:15])([H:11])[H:12])([H:8])([H:9])[H:10]"
C       -2.35175969       0.01193200       0.29977128
C       -1.22364640       0.03888075      -0.71992448
N        0.07114586      -0.04753315      -0.07446343
C        1.96582440      -1.06512138       0.79378470
C        2.90858161      -0.41187047       0.23460636
N        2.19351917       0.80250794       0.20906718
C        0.93599582       0.88224231      -0.26557590
H       -3.32445686       0.03419779      -0.19593596
H       -2.29657147      -0.89251092       0.90799892
H       -2.28692625       0.87189919       0.96893196
H       -1.29931378       0.94179674      -1.34126792
H       -1.32428285      -0.81586209      -1.39627805
H        1.34176738      -1.60025222       1.47326114
H        3.95628740      -0.50922151      -0.00770494
H        0.73383567       1.75891500      -0.88627085
15
Frame=4 idx=011885 GeodesicLength=0.28147150681452415 rxn_smarts="[C:1]([C:2]([n:3]1[c:4]([H:13])[c:5]([H:14])[n:6][c:7]1[H:15])([H:11])[H:12])([H:8])([H:9])[H:10]>>[C:1]([C:2](/[N:3]=[C:7](/[N:6]1[C:4]([H:13])=[C:5]1[H:14])[H:15])([H:11])[H:12])([H:8])([H:9])[H:10]"
C       -2.34171284       0.00948198       0.30222827
C       -1.21559675       0.03319510      -0.71975636
N        0.08121253      -0.04143967      -0.07754392
C        1.93035785      -1.05386076       0.77491026
C        2.89001895      -0.41396986       0.22296106
N        2.18920489       0.81015943       0.23292142
C        0.93681255       0.90185223      -0.25614106
H       -3.31513502       0.02488322      -0.19222481
H       -2.28252324      -0.89027729       0.91691860
H       -2.27883371       0.87454793       0.96492846
H       -1.29520062       0.93116597      -1.34733220
H       -1.31257463      -0.82738980      -1.38900110
H        1.33452202      -1.60501883       1.46765274
H        3.93868850      -0.52164612      -0.00868372
H        0.74075949       1.76831649      -0.89183764
15
Frame=5 idx=011885 GeodesicLength=0.3516064056687104 rxn_smarts="[C:1]([C:2]([n:3]1[c:4]([H:13])[c:5]([H:14])[n:6][c:7]1[H:15])([H:11])[H:12])([H:8])([H:9])[H:10]>>[C:1]([C:2](/[N:3]=[C:7](/[N:6]1[C:4]([H:13])=[C:5]1[H:14])[H:15])([H:11])[H:12])([H:8])([H:9])[H:10]"
C       -2.33163490       0.00731139       0.30473958
C       -1.20782984       0.02737359      -0.71986569
N        0.09111135      -0.03591460      -0.08141067
C        1.89622125      -1.04120920       0.75880196
C        2.87187969      -0.41515888       0.21275235
N        2.18454438       0.81712530       0.25602917
C        0.93779533       0.92006208      -0.24816727
H       -3.30590834       0.01620707      -0.18810413
H       -2.26857481      -0.88774369       0.92580800
H       -2.27023146       0.87738353       0.96094806
H       -1.29118386       0.92042283      -1.35354371
H       -1.30165012      -0.83892419      -1.38195175
H        1.32732134      -1.61100512       1.45994426
H        3.92091242      -0.53375327      -0.00980228
H        0.74722758       1.77782317      -0.89617787
15
Frame=6 idx=011885 GeodesicLength=0.4216402327160076 rxn_smarts="[C:1]([C:2]([n:3]1[c:4]([H:13])[c:5]([H:14])[n:6][c:7]1[H:15])([H:11])[H:12])([H:8])([H:9])[H:10]>>[C:1]([C:2](/[N:3]=[C:7](/[N:6]1[C:4]([H:13])=[C:5]1[H:14])[H:15])([H:11])[H:12])([H:8])([H:9])[H:10]"
C       -2.32164758       0.00543758       0.30719707
C       -1.20024097       0.02138327      -0.72010559
N        0.10081462      -0.03076356      -0.08561392
C        1.86339264      -1.02749514       0.74507430
C        2.85413733      -0.41564334       0.20364013
N        2.17963421       0.82347252       0.27848257
C        0.93889927       0.93715152      -0.24113350
H       -3.29679254       0.00800417      -0.18390434
H       -2.25488813      -0.88478635       0.93471871
H       -2.26148089       0.88053919       0.95675332
H       -1.28711825       0.90942523      -1.35991981
H       -1.29116403      -0.85061835      -1.37486569
H        1.32028237      -1.61801937       1.45040907
H        3.90294976      -0.54561203      -0.01149653
H        0.75322217       1.78752467      -0.89923578
15
Frame=7 idx=011885 GeodesicLength=0.4915844777738636 rxn_smarts="[C:1]([C:2]([n:3]1[c:4]([H:13])[c:5]([H:14])[n:6][c:7]1[H:15])([H:11])[H:12])([H:8])([H:9])[H:10]>>[C:1]([C:2](/[N:3]=[C:7](/[N:6]1[C:4]([H:13])=[C:5]1[H:14])[H:15])([H:11])[H:12])([H:8])([H:9])[H:10]"
C       -2.31167023       0.00373522       0.30968939
C       -1.19287245       0.01534760      -0.72051094
N        0.11035892      -0.02597772      -0.09035408
C        1.83169038      -1.01288664       0.73354332
C        2.83675116      -0.41553458       0.19568262
N        2.17445929       0.82928079       0.30028609
C        0.94014720       0.95321217      -0.23510478
H       -3.28776741       0.00023049      -0.17942167
H       -2.24128287      -0.88166395       0.94353943
H       -2.25244672       0.88375195       0.95261159
H       -1.28315149       0.89843235      -1.36629527
H       -1.28121386      -0.86221119      -1.36795445
H        1.31319319      -1.62575724       1.43927120
H        3.88487113      -0.55718750      -0.01334676
H        0.75893377       1.79722826      -0.90163569
15
Frame=8 idx=011885 GeodesicLength=0.5614471030934597 rxn_smarts="[C:1]([C:2]([n:3]1[c:4]([H:13])[c:5]([H:14])[n:6][c:7]1[H:15])([H:11])[H:12])([H:8])([H:9])[H:10]>>[C:1]([C:2](/[N:3]=[C:7](/[N:6]1[C:4]([H:13])=[C:5]1[H:14])[H:15])([H:11])[H:12])([H:8])([H:9])[H:10]"
C       -2.30179053       0.00223661       0.31214295
C       -1.18564645       0.00922305      -0.72097449
N        0.11972505      -0.02142834      -0.09530301
C        1.80107799      -0.99758983       0.72393164
C        2.81968986      -0.41496195       0.18862541
N        2.16909188       0.83460386       0.32150901
C        0.94150752       0.96843223      -0.22972834
H       -3.27884314      -0.00722049      -0.17489059
H       -2.22788721      -0.87824909       0.95234065
H       -2.24338049       0.88715693       0.94833009
H       -1.27916457       0.88730398      -1.37271006
H       -1.27155693      -0.87385137      -1.36100006
H        1.30617751      -1.63413396       1.42661949
H        3.86666697      -0.56851929      -0.01561700
H        0.76433253       1.80699766      -0.90327571
15
Frame=9 idx=011885 GeodesicLength=0.6312408002336717 rxn_smarts="[C:1]([C:2]([n:3]1[c:4]([H:13])[c:5]([H:14])[n:6][c:7]1[H:15])([H:11])[H:12])([H:8])([H:9])[H:10]>>[C:1]([C:2](/[N:3]=[C:7](/[N:6]1[C:4]([H:13])=[C:5]1[H:14])[H:15])([H:11])[H:12])([H:8])([H:9])[H:10]"
C       -2.29204726       0.00090075       0.31450571
C       -1.17851479       0.00302616      -0.72144011
N        0.12890737      -0.01703343      -0.10029172
C        1.77147797      -0.98175322       0.71603951
C        2.80289327      -0.41409477       0.18225570
N        2.16361118       0.83943578       0.34212041
C        0.94296709       0.98292817      -0.22479326
H       -3.27001590      -0.01443022      -0.17044606
H       -2.21475103      -0.87458068       0.96106419
H       -2.23442224       0.89070487       0.94386310
H       -1.27510983       0.87604576      -1.37911444
H       -1.26203880      -0.88552171      -1.35394822
H        1.29933285      -1.64276739       1.41275323
H        3.84830018      -0.57974823      -0.01845538
H        0.76940996       1.81688816      -0.90411264
15
Frame=10 idx=011885 GeodesicLength=0.7009828037708258 rxn_smarts="[C:1]([C:2]([n:3]1[c:4]([H:13])[c:5]([H:14])[n:6][c:7]1[H:15])([H:11])[H:12])([H:8])([H:9])[H:10]>>[C:1]([C:2](/[N:3]=[C:7](/[N:6]1[C:4]([H:13])=[C:5]1[H:14])[H:15])([H:11])[H:12])([H:8])([H:9])[H:10]"
C       -2.28227727      -0.00038721       0.31694938
C       -1.17157560      -0.00312376      -0.72202403
N        0.13797023      -0.01288028      -0.10577387
C        1.74268154      -0.96542200       0.70978430
C        2.78634826      -0.41290150       0.17686652
N        2.15790303       0.84390049       0.36217923
C        0.94456958       0.99669131      -0.22062749
H       -3.26124850      -0.02136502      -0.16567505
H       -2.20157145      -0.87094304       0.96964743
H       -2.22521894       0.89412730       0.93959551
H       -1.27122646       0.86495346      -1.38538364
H       -1.25294827      -0.89694490      -1.34712695
H        1.29231768      -1.65160487       1.39758052
H        3.82987218      -0.59072171      -0.02110700
H        0.77440400       1.82662174      -0.90488487
15
Frame=11 idx=011885 GeodesicLength=0.7706819091135055 rxn_smarts="[C:1]([C:2]([n:3]1[c:4]([H:13])[c:5]([H:14])[n:6][c:7]1[H:15])([H:11])[H:12])([H:8])([H:9])[H:10]>>[C:1]([C:2](/[N:3]=[C:7](/[N:6]1[C:4]([H:13])=[C:5]1[H:14])[H:15])([H:11])[H:12])([H:8])([H:9])[H:10]"
C       -2.27255654      -0.00157024       0.31939853
C       -1.16475752      -0.00929661      -0.72263741
N        0.14689768      -0.00889398      -0.11147017
C        1.71467673      -0.94873640       0.70494997
C        2.77003136      -0.41146009       0.17225391
N        2.15201477       0.84801652       0.38176481
C        0.94627966       1.00983457      -0.21694173
H       -3.25254690      -0.02808185      -0.16079219
H       -2.18848113      -0.86717111       0.97816811
H       -2.21597093       0.89758608       0.93531441
H       -1.26738580       0.85384720      -1.39158531
H       -1.24408686      -0.90829708      -1.34031617
H        1.28529133      -1.66058032       1.38110756
H        3.81135194      -0.60147733      -0.02385772
H        0.77924221       1.83628064      -0.90535661
15
Frame=12 idx=011885 GeodesicLength=0.8403490669660585 rxn_smarts="[C:1]([C:2]([n:3]1[c:4]([H:13])[c:5]([H:14])[n:6][c:7]1[H:15])([H:11])[H:12])([H:8])([H:9])[H:10]>>[C:1]([C:2](/[N:3]=[C:7](/[N:6]1[C:4]([H:13])=[C:5]1[H:14])[H:15])([H:11])[H:12])([H:8])([H:9])[H:10]"
C       -2.26292551      -0.00263157       0.32181073
C       -1.15801974      -0.01552545      -0.72323365
N        0.15568426      -0.00504203      -0.11723240
C        1.68742713      -0.93182335       0.70134025
C        2.75392084      -0.40984457       0.16826784
N        2.14598284       0.85178398       0.40092823
C        0.94807929       1.02242561      -0.21355826
H       -3.24391401      -0.03461309      -0.15591564
H       -2.17555467      -0.86320308       0.98664908
H       -2.20678291       0.90114128       0.93092090
H       -1.26351567       0.84264609      -1.39774294
H       -1.23534615      -0.91965660      -1.33341407
H        1.27834679      -1.66952005       1.36343266
H        3.79272697      -0.61205035      -0.02685225
H        0.78389054       1.84591319      -0.90540049
15
Frame=13 idx=011885 GeodesicLength=0.9100060197078967 rxn_smarts="[C:1]([C:2]([n:3]1[c:4]([H:13])[c:5]([H:14])[n:6][c:7]1[H:15])([H:11])[H:12])([H:8])([H:9])[H:10]>>[C:1]([C:2](/[N:3]=[C:7](/[N:6]1[C:4]([H:13])=[C:5]1[H:14])[H:15])([H:11])[H:12])([H:8])([H:9])[H:10]"
C       -2.25329241      -0.00365077       0.32426372
C       -1.15141067      -0.02174372      -0.72388278
N        0.16436581      -0.00137614      -0.12330730
C        1.66079446      -0.91476731       0.69878831
C        2.73799928      -0.40808439       0.16499855
N        2.13973681       0.85522584       0.41971024
C        0.94998720       1.03445499      -0.21061997
H       -3.23532337      -0.04094798      -0.15084149
H       -2.16262204      -0.85922223       0.99502386
H       -2.19746612       0.90461834       0.92662428
H       -1.25974529       0.83152238      -1.40378150
H       -1.22686944      -0.93086171      -1.32662041
H        1.27132704      -1.67816522       1.34467271
H        3.77404971      -0.62240689      -0.02970376
H        0.78846902       1.85540481      -0.90532444
15
Frame=14 idx=011885 GeodesicLength=0.9796634160324333 rxn_smarts="[C:1]([C:2]([n:3]1[c:4]([H:13])[c:5]([H:14])[n:6][c:7]1[H:15])([H:11])[H:12])([H:8])([H:9])[H:10]>>[C:1]([C:2](/[N:3]=[C:7](/[N:6]1[C:4]([H:13])=[C:5]1[H:14])[H:15])([H:11])[H:12])([H:8])([H:9])[H:10]"
C       -2.24369901      -0.00460399       0.32671079
C       -1.14489689      -0.02798852      -0.72454955
N        0.17293347       0.00211681      -0.12956561
C        1.63476241      -0.89772252       0.69704009
C        2.72226430      -0.40623907       0.16227763
N        2.13329548       0.85830721       0.43818185
C        0.95198306       1.04596345      -0.20795336
H       -3.22678220      -0.04710322      -0.14568696
H       -2.14976302      -0.85515962       1.00331270
H       -2.18811374       0.90808552       0.92232031
H       -1.25600201       0.82039419      -1.40973407
H       -1.21856971      -0.94199403      -1.31984587
H        1.26432470      -1.68630954       1.32501667
H        3.75532976      -0.63255815      -0.03257778
H        0.79293340       1.86481146      -0.90494685
15
Frame=15 idx=011885 GeodesicLength=1.0493363797212587 rxn_smarts="[C:1]([C:2]([n:3]1[c:4]([H:13])[c:5]([H:14])[n:6][c:7]1[H:15])([H:11])[H:12])([H:8])([H:9])[H:10]>>[C:1]([C:2](/[N:3]=[C:7](/[N:6]1[C:4]([H:13])=[C:5]1[H:14])[H:15])([H:11])[H:12])([H:8])([H:9])[H:10]"
C       -2.23413602      -0.00550714       0.32915035
C       -1.13848166      -0.03425416      -0.72524734
N        0.18139321       0.00541850      -0.13603621
C        1.60928000      -0.88082623       0.69584519
C        2.70672049      -0.40434827       0.16002286
N        2.12663533       0.86099338       0.45640414
C        0.95406178       1.05695887      -0.20551397
H       -3.21828739      -0.05307883      -0.14044434
H       -2.13696130      -0.85104773       1.01149439
H       -2.17870470       0.91151402       0.91802792
H       -1.25229449       0.80928619      -1.41559344
H       -1.21046065      -0.95303437      -1.31312658
H        1.25732911      -1.69371763       1.30470806
H        3.73660871      -0.64248715      -0.03544132
H        0.79729757       1.87413055      -0.90424970
15
Frame=16 idx=011885 GeodesicLength=1.1190410213566595 rxn_smarts="[C:1]([C:2]([n:3]1[c:4]([H:13])[c:5]([H:14])[n:6][c:7]1[H:15])([H:11])[H:12])([H:8])([H:9])[H:10]>>[C:1]([C:2](/[N:3]=[C:7](/[N:6]1[C:4]([H:13])=[C:5]1[H:14])[H:15])([H:11])[H:12])([H:8])([H:9])[H:10]"
C       -2.22458869      -0.00638202       0.33158418
C       -1.13217408      -0.04052642      -0.72599858
N        0.18975084       0.00851112      -0.14276832
C        1.58429740      -0.86420740       0.69494978
C        2.69137787      -0.40244558       0.15815405
N        2.11972639       0.86324306       0.47442833
C        0.95622107       1.06744423      -0.20327774
H       -3.20983512      -0.05887300      -0.13509366
H       -2.12418879      -0.84693589       1.01953809
H       -2.16920575       0.91486134       0.91378290
H       -1.24864408       0.79824213      -1.42134892
H       -1.20256834      -0.96394788      -1.30652036
H        1.25031499      -1.70017021       1.28404616
H        3.71793671      -0.65217534      -0.03825002
H        0.80157960       1.88336187      -0.90322590
