13
Frame=0 idx=005532 GeodesicLength=0.0 rxn_smarts="[O:1]=[C:2]([C:3]([C@@:4]1([H:10])[C:5]([H:11])([H:12])[N:6]1[H:13])([H:8])[H:9])[H:7]>>[C:4]1([H:10])=[C:5]([H:12])[N:6]1[H:13].[O:1]([C:2](=[C:3]([H:8])[H:9])[H:7])[H:11]"
O        0.63163343       1.48658935      -1.11998469
C        1.47372598       0.85051692      -0.34525796
C        1.44521461      -0.49021661      -0.15084008
C       -0.69605187      -0.43244639       0.72886443
C       -1.43915461       0.40670529       0.01614298
N       -1.45299971      -1.09555917      -0.29553364
H        2.14130729       1.48557596       0.23856368
H        2.15340858      -0.93816263       0.53490854
H        0.91386061      -1.14310915      -0.83065605
H       -0.37030214      -0.71550148       1.71418268
H       -0.32705006       1.07972781      -0.92126753
H       -2.23566918       1.08438768       0.28091203
H       -2.23792299      -1.57850756       0.14996559
13
Frame=1 idx=005532 GeodesicLength=0.09515941349158892 rxn_smarts="[O:1]=[C:2]([C:3]([C@@:4]1([H:10])[C:5]([H:11])([H:12])[N:6]1[H:13])([H:8])[H:9])[H:7]>>[C:4]1([H:10])=[C:5]([H:12])[N:6]1[H:13].[O:1]([C:2](=[C:3]([H:8])[H:9])[H:7])[H:11]"
O        0.63496105       1.48774391      -1.11694189
C        1.48383030       0.85316553      -0.35248045
C        1.43894079      -0.48646786      -0.13105054
C       -0.69891931      -0.43736827       0.73067076
C       -1.45245854       0.40877886       0.03218906
N       -1.45272342      -1.08194032      -0.31127799
H        2.18928848       1.48502344       0.18948854
H        2.15345427      -0.92803969       0.55261803
H        0.92857711      -1.14591682      -0.82109001
H       -0.38838625      -0.72455198       1.71961784
H       -0.34551238       1.07299836      -0.91595143
H       -2.25520109       1.07580341       0.30413167
H       -2.23585100      -1.57922856       0.12007640
13
Frame=2 idx=005532 GeodesicLength=0.19007654504365173 rxn_smarts="[O:1]=[C:2]([C:3]([C@@:4]1([H:10])[C:5]([H:11])([H:12])[N:6]1[H:13])([H:8])[H:9])[H:7]>>[C:4]1([H:10])=[C:5]([H:12])[N:6]1[H:13].[O:1]([C:2](=[C:3]([H:8])[H:9])[H:7])[H:11]"
O        0.63889460       1.49002450      -1.11295310
C        1.49416747       0.85579973      -0.35949148
C        1.43255500      -0.48212433      -0.11149281
C       -0.70182853      -0.44192192       0.73260277
C       -1.46591957       0.41036952       0.04789615
N       -1.45203347      -1.06819030      -0.32647310
H        2.23659398       1.48160233       0.13927227
H        2.15306202      -0.91769916       0.57011760
H        0.94350539      -1.14825245      -0.81107321
H       -0.40623977      -0.73303642       1.72490103
H       -0.36428899       1.06690107      -0.91014481
H       -2.27532679       1.06615435       0.32642568
H       -2.23314134      -1.57962691       0.09041302
13
Frame=3 idx=005532 GeodesicLength=0.28478347222844347 rxn_smarts="[O:1]=[C:2]([C:3]([C@@:4]1([H:10])[C:5]([H:11])([H:12])[N:6]1[H:13])([H:8])[H:9])[H:7]>>[C:4]1([H:10])=[C:5]([H:12])[N:6]1[H:13].[O:1]([C:2](=[C:3]([H:8])[H:9])[H:7])[H:11]"
O        0.64347112       1.49348546      -1.10795356
C        1.50474187       0.85845296      -0.36622366
C        1.42607876      -0.47717975      -0.09216389
C       -0.70477339      -0.44611186       0.73464513
C       -1.47957759       0.41148066       0.06326395
N       -1.45094037      -1.05432034      -0.34114975
H        2.28323029       1.47522893       0.08777146
H        2.15222700      -0.90711482       0.58747103
H        0.95863988      -1.15008378      -0.80060432
H       -0.42386209      -0.74098433       1.73002911
H       -0.38340915       1.06144993      -0.90386866
H       -2.29605890       1.05544018       0.34782288
H       -2.22976741      -1.57974323       0.06096028
13
Frame=4 idx=005532 GeodesicLength=0.3792952371799281 rxn_smarts="[O:1]=[C:2]([C:3]([C@@:4]1([H:10])[C:5]([H:11])([H:12])[N:6]1[H:13])([H:8])[H:9])[H:7]>>[C:4]1([H:10])=[C:5]([H:12])[N:6]1[H:13].[O:1]([C:2](=[C:3]([H:8])[H:9])[H:7])[H:11]"
O        0.64875180       1.49814077      -1.10195527
C        1.51559393       0.86111775      -0.37271104
C        1.41954370      -0.47166412      -0.07313181
C       -0.70770810      -0.44991244       0.73677805
C       -1.49343409       0.41212920       0.07828045
N       -1.44945501      -1.04033549      -0.35529757
H        2.32890959       1.46587283       0.03520732
H        2.15097034      -0.89629747       0.60465159
H        0.97395502      -1.15141678      -0.78973231
H       -0.44118624      -0.74836350       1.73499399
H       -0.40288375       1.05662232      -0.89720659
H       -2.31735576       1.04368948       0.36833944
H       -2.22570142      -1.57958254       0.03178373
13
Frame=5 idx=005532 GeodesicLength=0.4736286837407366 rxn_smarts="[O:1]=[C:2]([C:3]([C@@:4]1([H:10])[C:5]([H:11])([H:12])[N:6]1[H:13])([H:8])[H:9])[H:7]>>[C:4]1([H:10])=[C:5]([H:12])[N:6]1[H:13].[O:1]([C:2](=[C:3]([H:8])[H:9])[H:7])[H:11]"
O        0.65477541       1.50408986      -1.09478814
C        1.52671789       0.86387413      -0.37878277
C        1.41296203      -0.46554092      -0.05433214
C       -0.71065166      -0.45334013       0.73899109
C       -1.50754046       0.41230426       0.09295009
N       -1.44757703      -1.02624162      -0.36897459
H        2.37374375       1.45334105      -0.01888422
H        2.14927423      -0.88519084       0.62178429
H        0.98946719      -1.15217694      -0.77842818
H       -0.45825990      -0.75523694       1.73979493
H       -0.42274786       1.05245185      -0.89013373
H       -2.33925502       1.03086571       0.38799826
H       -2.22090858      -1.57919947       0.00280511
13
Frame=6 idx=005532 GeodesicLength=0.5677929133247213 rxn_smarts="[O:1]=[C:2]([C:3]([C@@:4]1([H:10])[C:5]([H:11])([H:12])[N:6]1[H:13])([H:8])[H:9])[H:7]>>[C:4]1([H:10])=[C:5]([H:12])[N:6]1[H:13].[O:1]([C:2](=[C:3]([H:8])[H:9])[H:7])[H:11]"
O        0.66162631       1.51131008      -1.08651648
C        1.53818360       0.86667505      -0.38455573
C        1.40637307      -0.45887563      -0.03587972
C       -0.71353142      -0.45634859       0.74126116
C       -1.52186642       0.41203357       0.10725588
N       -1.44532182      -1.01203596      -0.38214615
H        2.41723190       1.43769229      -0.07401528
H        2.14718453      -0.87383905       0.63877717
H        1.00513512      -1.15241299      -0.76677410
H       -0.47497415      -0.76153445       1.74442038
H       -0.44300364       1.04888742      -0.88277746
H       -2.36166974       1.01702009       0.40681038
H       -2.21536732      -1.57857182      -0.02586007
13
Frame=7 idx=005532 GeodesicLength=0.6618000412494109 rxn_smarts="[O:1]=[C:2]([C:3]([C@@:4]1([H:10])[C:5]([H:11])([H:12])[N:6]1[H:13])([H:8])[H:9])[H:7]>>[C:4]1([H:10])=[C:5]([H:12])[N:6]1[H:13].[O:1]([C:2](=[C:3]([H:8])[H:9])[H:7])[H:11]"
O        0.66936903       1.51984244      -1.07705640
C        1.55002169       0.86953692      -0.38998555
C        1.39980095      -0.45168221      -0.01778051
C       -0.71632811      -0.45892566       0.74357326
C       -1.53642493       0.41132344       0.12119438
N       -1.44269729      -0.99771785      -0.39483640
H        2.45921221       1.41887216      -0.13024824
H        2.14471820      -0.86223320       0.65565978
H        1.02095123      -1.15211506      -0.75478405
H       -0.49131334      -0.76726418       1.74886674
H       -0.46367992       1.04592841      -0.87517765
H       -2.38457883       1.00215646       0.42479247
H       -2.20905089      -1.57772166      -0.05421782
13
Frame=8 idx=005532 GeodesicLength=0.7556764204481246 rxn_smarts="[O:1]=[C:2]([C:3]([C@@:4]1([H:10])[C:5]([H:11])([H:12])[N:6]1[H:13])([H:8])[H:9])[H:7]>>[C:4]1([H:10])=[C:5]([H:12])[N:6]1[H:13].[O:1]([C:2](=[C:3]([H:8])[H:9])[H:7])[H:11]"
O        0.67809475       1.52966024      -1.06647530
C        1.56230579       0.87238507      -0.39522680
C        1.39328484      -0.44405139      -0.00015596
C       -0.71897396      -0.46102222       0.74590438
C       -1.55118484       0.41020410       0.13474445
N       -1.43973817      -0.98329439      -0.40700787
H        2.49923153       1.39707666      -0.18701872
H        2.14193661      -0.85044800       0.67232189
H        1.03686339      -1.15137328      -0.74255026
H       -0.50716738      -0.77234447       1.75312637
H       -0.48478910       1.04351107      -0.86747372
H       -2.40789635       0.98633002       0.44195399
H       -2.20196713      -1.57663341      -0.08214244
13
Frame=9 idx=005532 GeodesicLength=0.8493877027897957 rxn_smarts="[O:1]=[C:2]([C:3]([C@@:4]1([H:10])[C:5]([H:11])([H:12])[N:6]1[H:13])([H:8])[H:9])[H:7]>>[C:4]1([H:10])=[C:5]([H:12])[N:6]1[H:13].[O:1]([C:2](=[C:3]([H:8])[H:9])[H:7])[H:11]"
O        0.68789780       1.54062799      -1.05490056
C        1.57508249       0.87505830      -0.40052095
C        1.38684736      -0.43608834       0.01683553
C       -0.72139439      -0.46257946       0.74822830
C       -1.56609615       0.40870418       0.14790035
N       -1.43647068      -0.96875750      -0.41862446
H        2.53684558       1.37265512      -0.24356072
H        2.13886741      -0.83854610       0.68859753
H        1.05279551      -1.15029698      -0.73016234
H       -0.52242562      -0.77668260       1.75719025
H       -0.50636557       1.04156612      -0.85981708
H       -2.43148502       0.96961891       0.45832976
H       -2.19409872      -1.57527964      -0.10949561
13
Frame=10 idx=005532 GeodesicLength=0.9429963249083434 rxn_smarts="[O:1]=[C:2]([C:3]([C@@:4]1([H:10])[C:5]([H:11])([H:12])[N:6]1[H:13])([H:8])[H:9])[H:7]>>[C:4]1([H:10])=[C:5]([H:12])[N:6]1[H:13].[O:1]([C:2](=[C:3]([H:8])[H:9])[H:7])[H:11]"
O        0.69886005       1.55280094      -1.04226809
C        1.58838724       0.87753695      -0.40589559
C        1.38051468      -0.42785790       0.03314948
C       -0.72357547      -0.46356832       0.75053262
C       -1.58117758       0.40683372       0.16063648
N       -1.43294505      -0.95414400      -0.42967930
H        2.57199048       1.34578793      -0.29971061
H        2.13556455      -0.82660107       0.70445264
H        1.06870643      -1.14894789      -0.71768809
H       -0.53704547      -0.78022241       1.76106785
H       -0.52845134       1.04005388      -0.85229088
H       -2.45534555       0.95202902       0.47390924
H       -2.18548295      -1.57370085      -0.13621576
13
Frame=11 idx=005532 GeodesicLength=1.0365066014513913 rxn_smarts="[O:1]=[C:2]([C:3]([C@@:4]1([H:10])[C:5]([H:11])([H:12])[N:6]1[H:13])([H:8])[H:9])[H:7]>>[C:4]1([H:10])=[C:5]([H:12])[N:6]1[H:13].[O:1]([C:2](=[C:3]([H:8])[H:9])[H:7])[H:11]"
O        0.71106874       1.56620435      -1.02843259
C        1.60222801       0.87979608      -0.41132241
C        1.37429173      -0.41938411       0.04879172
C       -0.72552329      -0.46396689       0.75280849
C       -1.59645181       0.40458564       0.17294858
N       -1.42917533      -0.93945921      -0.44020241
H        2.60468016       1.31655747      -0.35557542
H        2.13203201      -0.81461915       0.71989921
H        1.08457408      -1.14733505      -0.70513677
H       -0.55104549      -0.78295201       1.76476665
H       -0.55110398       1.03896918      -0.84492544
H       -2.47947485       0.93353836       0.48869766
H       -2.17609998      -1.57193466      -0.16231728
13
Frame=12 idx=005532 GeodesicLength=1.1299375614668445 rxn_smarts="[O:1]=[C:2]([C:3]([C@@:4]1([H:10])[C:5]([H:11])([H:12])[N:6]1[H:13])([H:8])[H:9])[H:7]>>[C:4]1([H:10])=[C:5]([H:12])[N:6]1[H:13].[O:1]([C:2](=[C:3]([H:8])[H:9])[H:7])[H:11]"
O        0.72463180       1.58079790      -1.01338678
C        1.61662173       0.88174273      -0.41691450
C        1.36819467      -0.41075449       0.06367476
C       -0.72721265      -0.46372553       0.75504121
C       -1.61191801       0.40197247       0.18481917
N       -1.42520796      -0.92472726      -0.45017562
H        2.63480026       1.28528652      -0.41076465
H        2.12830930      -0.80268408       0.73483493
H        1.10033484      -1.14554908      -0.69258775
H       -0.56436872      -0.78478212       1.76829505
H       -0.57438462       1.03825624      -0.83783279
H       -2.50382987       0.91417028       0.50270194
H       -2.16597078      -1.57000356      -0.18770498
13
Frame=13 idx=005532 GeodesicLength=1.2232897117953963 rxn_smarts="[O:1]=[C:2]([C:3]([C@@:4]1([H:10])[C:5]([H:11])([H:12])[N:6]1[H:13])([H:8])[H:9])[H:7]>>[C:4]1([H:10])=[C:5]([H:12])[N:6]1[H:13].[O:1]([C:2](=[C:3]([H:8])[H:9])[H:7])[H:11]"
O        0.73966389       1.59657095      -0.99700579
C        1.63156793       0.88331856      -0.42268961
C        1.36222908      -0.40202038       0.07777606
C       -0.72864415      -0.46280282       0.75722152
C       -1.62759366       0.39899110       0.19623673
N       -1.42106802      -0.90996187      -0.45961334
H        2.66234231       1.25217600      -0.46523431
H        2.12441198      -0.79084238       0.74922427
H        1.11594724      -1.14363336      -0.68007610
H       -0.57701349      -0.78565650       1.77166489
H       -0.59836470       1.03788921      -0.83107435
H       -2.52839449       0.89391786       0.51592408
H       -2.15508392      -1.56794639      -0.21235406
13
Frame=14 idx=005532 GeodesicLength=1.3165831254529081 rxn_smarts="[O:1]=[C:2]([C:3]([C@@:4]1([H:10])[C:5]([H:11])([H:12])[N:6]1[H:13])([H:8])[H:9])[H:7]>>[C:4]1([H:10])=[C:5]([H:12])[N:6]1[H:13].[O:1]([C:2](=[C:3]([H:8])[H:9])[H:7])[H:11]"
O        0.75630049       1.61346985      -0.97927621
C        1.64705806       0.88445502      -0.42870806
C        1.35640634      -0.39326924       0.09101430
C       -0.72980581      -0.46114205       0.75933864
C       -1.64348921       0.39564894       0.20717950
N       -1.41681367      -0.89520335      -0.46849337
H        2.68729383       1.21758150      -0.51863529
H        2.12038023      -0.77920618       0.76295213
H        1.13134338      -1.14166353      -0.66770422
H       -0.58893085      -0.78546207       1.77489437
H       -0.62312541       1.03779875      -0.82477352
H       -2.55314116       0.87279520       0.52836855
H       -2.14347623      -1.56580283      -0.23615682
13
Frame=15 idx=005532 GeodesicLength=1.4098270041473582 rxn_smarts="[O:1]=[C:2]([C:3]([C@@:4]1([H:10])[C:5]([H:11])([H:12])[N:6]1[H:13])([H:8])[H:9])[H:7]>>[C:4]1([H:10])=[C:5]([H:12])[N:6]1[H:13].[O:1]([C:2](=[C:3]([H:8])[H:9])[H:7])[H:11]"
O        0.77469008       1.63145372      -0.96010215
C        1.66307551       0.88510234      -0.43497610
C        1.35072814      -0.38456592       0.10334723
C       -0.73070177      -0.45868540       0.76138571
C       -1.65962845       0.39194233       0.21763037
N       -1.41248754      -0.88048444      -0.47681309
H        2.70971058       1.18178277      -0.57083544
H        2.11623283      -0.76786762       0.77594249
H        1.14646731      -1.13968190      -0.65555115
H       -0.60010802      -0.78409739       1.77800546
H       -0.64876262       1.03793216      -0.81902356
H       -2.57806101       0.85079525       0.54003603
H       -2.13115503      -1.56362588      -0.25904579
13
Frame=16 idx=005532 GeodesicLength=1.5030227364274946 rxn_smarts="[O:1]=[C:2]([C:3]([C@@:4]1([H:10])[C:5]([H:11])([H:12])[N:6]1[H:13])([H:8])[H:9])[H:7]>>[C:4]1([H:10])=[C:5]([H:12])[N:6]1[H:13].[O:1]([C:2](=[C:3]([H:8])[H:9])[H:7])[H:11]"
O        0.79500131       1.65045722      -0.93941562
C        1.67959181       0.88523322      -0.44146525
C        1.34518865      -0.37597676       0.11472319
C       -0.73133502      -0.45536151       0.76335601
C       -1.67603481       0.38786783       0.22757193
N       -1.40813395      -0.86584748      -0.48455843
H        2.72967090       1.14506985      -0.62166664
H        2.11197827      -0.75694765       0.78809525
H        1.16125372      -1.13771409      -0.64372815
H       -0.61052222      -0.78143003       1.78102119
H       -0.67538500       1.03822372      -0.81392646
H       -2.60314808       0.82790251       0.55092390
H       -2.11812559      -1.56147684      -0.28093091
