16
Frame=0 idx=008939 GeodesicLength=0.0 rxn_smarts="[C:1]([C@@:2]1([H:11])[C:3]([H:12])([H:13])[N:4]([C:5]([H:14])([H:15])[H:16])[C:6]1=[O:7])([H:8])([H:9])[H:10]>>[C:1]([O:7][C:6]1=[C:2]([H:11])[C:3]([H:12])([H:13])[N:4]1[C:5]([H:14])([H:15])[H:16])([H:8])([H:9])[H:10]"
C        2.33901707      -0.34957707       1.07958983
C        0.90145648       0.33027123      -0.83947996
C       -0.44681286       0.09435033      -1.55225981
N       -1.08767262       0.40434221      -0.25645503
C       -2.28484385      -0.16626758       0.30422864
C        0.13952019       0.49282488       0.34072730
O        0.46292397       0.52539849       1.54514179
H        1.97993380      -1.36552003       1.12323833
H        2.52390903       0.15294499       2.01410227
H        3.00807501      -0.11767492       0.26727362
H        1.61671494       1.06533708      -1.19006747
H       -0.72050070       0.79494574      -2.34441093
H       -0.63793666      -0.93221651      -1.87762176
H       -2.30107219       0.05373962       1.37145768
H       -3.17320023       0.27106739      -0.15431872
H       -2.31951135      -1.25396581       0.16885422
16
Frame=1 idx=008939 GeodesicLength=0.046318240256682304 rxn_smarts="[C:1]([C@@:2]1([H:11])[C:3]([H:12])([H:13])[N:4]([C:5]([H:14])([H:15])[H:16])[C:6]1=[O:7])([H:8])([H:9])[H:10]>>[C:1]([O:7][C:6]1=[C:2]([H:11])[C:3]([H:12])([H:13])[N:4]1[C:5]([H:14])([H:15])[H:16])([H:8])([H:9])[H:10]"
C        2.32011702      -0.34834691       1.06120679
C        0.90406265       0.34013489      -0.82722387
C       -0.43906384       0.08992890      -1.54352747
N       -1.08909295       0.40999892      -0.25505603
C       -2.28388295      -0.16604361       0.30461715
C        0.13421777       0.51903915       0.34737290
O        0.45839354       0.52792376       1.55312748
H        1.96490998      -1.36682881       1.09490289
H        2.52725880       0.12917511       2.00499998
H        3.01049913      -0.11652298       0.26569422
H        1.61691276       1.07304057      -1.18718670
H       -0.71278917       0.78088047      -2.34411329
H       -0.62162720      -0.94086780      -1.86018686
H       -2.31051073       0.06691179       1.36888873
H       -3.17239817       0.25726216      -0.16674213
H       -2.30700665      -1.25568560       0.18322622
16
Frame=2 idx=008939 GeodesicLength=0.09266846800314482 rxn_smarts="[C:1]([C@@:2]1([H:11])[C:3]([H:12])([H:13])[N:4]([C:5]([H:14])([H:15])[H:16])[C:6]1=[O:7])([H:8])([H:9])[H:10]>>[C:1]([O:7][C:6]1=[C:2]([H:11])[C:3]([H:12])([H:13])[N:4]1[C:5]([H:14])([H:15])[H:16])([H:8])([H:9])[H:10]"
C        2.30160384      -0.34652330       1.04342776
C        0.90659120       0.34966706      -0.81532526
C       -0.43146727       0.08577390      -1.53488568
N       -1.09033286       0.41530596      -0.25360959
C       -2.28283635      -0.16596386       0.30501226
C        0.12905556       0.54375739       0.35374418
O        0.45409555       0.53084328       1.56043146
H        1.95010952      -1.36738184       1.06771766
H        2.53036871       0.10610576       1.99535665
H        3.01245408      -0.11633179       0.26437664
H        1.61712484       1.08036074      -1.18432063
H       -0.70512334       0.76749296      -2.34339264
H       -0.60579239      -0.94891565      -1.84325009
H       -2.31965859       0.07918399       1.36624110
H       -3.17118535       0.24381100      -0.17858802
H       -2.29500715      -1.25718559       0.19706421
16
Frame=3 idx=008939 GeodesicLength=0.13912907054692475 rxn_smarts="[C:1]([C@@:2]1([H:11])[C:3]([H:12])([H:13])[N:4]([C:5]([H:14])([H:15])[H:16])[C:6]1=[O:7])([H:8])([H:9])[H:10]>>[C:1]([O:7][C:6]1=[C:2]([H:11])[C:3]([H:12])([H:13])[N:4]1[C:5]([H:14])([H:15])[H:16])([H:8])([H:9])[H:10]"
C        2.28338200      -0.34424894       1.02617662
C        0.90905477       0.35909108      -0.80376922
C       -0.42397709       0.08185243      -1.52631347
N       -1.09140833       0.42035753      -0.25213522
C       -2.28165888      -0.16602354       0.30544123
C        0.12401911       0.56731165       0.35985944
O        0.45002688       0.53420510       1.56715232
H        1.93532778      -1.36730558       1.04138577
H        2.53317001       0.08339763       1.98525599
H        3.01389465      -0.11706578       0.26326610
H        1.61735188       1.08753602      -1.18146557
H       -0.69752497       0.75460684      -2.34235139
H       -0.59025313      -0.95647720      -1.82664612
H       -2.32857977       0.09085632       1.36349659
H       -3.16958496       0.23043022      -0.19001946
H       -2.28323994      -1.25852377       0.21066638
16
Frame=4 idx=008939 GeodesicLength=0.18559498134232183 rxn_smarts="[C:1]([C@@:2]1([H:11])[C:3]([H:12])([H:13])[N:4]([C:5]([H:14])([H:15])[H:16])[C:6]1=[O:7])([H:8])([H:9])[H:10]>>[C:1]([O:7][C:6]1=[C:2]([H:11])[C:3]([H:12])([H:13])[N:4]1[C:5]([H:14])([H:15])[H:16])([H:8])([H:9])[H:10]"
C        2.26558636      -0.34144091       1.00951392
C        0.91144931       0.36816215      -0.79254843
C       -0.41664460       0.07814641      -1.51784810
N       -1.09234802       0.42512752      -0.25063751
C       -2.28042590      -0.16618373       0.30586811
C        0.11911207       0.58958004       0.36574094
O        0.44616990       0.53782468       1.57338354
H        1.92085663      -1.36658194       1.01600432
H        2.53574019       0.06126131       1.97477611
H        3.01492306      -0.11849490       0.26236756
H        1.61759159       1.09431650      -1.17865433
H       -0.68997512       0.74230843      -2.34098667
H       -0.57518313      -0.96353847      -1.81050842
H       -2.33726054       0.10179208       1.36068606
H       -3.16765857       0.21739105      -0.20096430
H       -2.27193323      -1.25967021       0.22380719
16
Frame=5 idx=008939 GeodesicLength=0.23215781131455476 rxn_smarts="[C:1]([C@@:2]1([H:11])[C:3]([H:12])([H:13])[N:4]([C:5]([H:14])([H:15])[H:16])[C:6]1=[O:7])([H:8])([H:9])[H:10]>>[C:1]([O:7][C:6]1=[C:2]([H:11])[C:3]([H:12])([H:13])[N:4]1[C:5]([H:14])([H:15])[H:16])([H:8])([H:9])[H:10]"
C        2.24808087      -0.33824987       0.99336348
C        0.91378694       0.37712633      -0.78165136
C       -0.40941848       0.07464940      -1.50946683
N       -1.09315732       0.42970431      -0.24913350
C       -2.27906389      -0.16646735       0.30633061
C        0.11432161       0.61091653       0.37139051
O        0.44252699       0.54182888       1.57917530
H        1.90640187      -1.36531841       0.99132098
H        2.53798334       0.03936305       1.96396204
H        3.01546150      -0.12067350       0.26163139
H        1.61786542       1.10093516      -1.17588987
H       -0.68249847       0.73045152      -2.33938267
H       -0.56038823      -0.97018074      -1.79467751
H       -2.34573508       0.11224357       1.35779147
H       -3.16539950       0.20436193      -0.21155543
H       -2.26076758      -1.26069083       0.23679139
16
Frame=6 idx=008939 GeodesicLength=0.2789110156515371 rxn_smarts="[C:1]([C@@:2]1([H:11])[C:3]([H:12])([H:13])[N:4]([C:5]([H:14])([H:15])[H:16])[C:6]1=[O:7])([H:8])([H:9])[H:10]>>[C:1]([O:7][C:6]1=[C:2]([H:11])[C:3]([H:12])([H:13])[N:4]1[C:5]([H:14])([H:15])[H:16])([H:8])([H:9])[H:10]"
C        2.23075329      -0.33479204       0.97764972
C        0.91608086       0.38620093      -0.77106306
C       -0.40224187       0.07134340      -1.50114057
N       -1.09383813       0.43415511      -0.24763358
C       -2.27751997      -0.16688530       0.30685896
C        0.10963101       0.63159600       0.37681902
O        0.43909173       0.54629599       1.58457484
H        1.89172741      -1.36359799       0.96710185
H        2.53980502       0.01742404       1.95283175
H        3.01544672      -0.12364379       0.26099867
H        1.61818524       1.10761547      -1.17316087
H       -0.67509514       0.71889206      -2.33760410
H       -0.54568337      -0.97648542      -1.77899603
H       -2.35404999       0.12241823       1.35478859
H       -3.16279008       0.19108247      -0.22190083
H       -2.24950274      -1.26161917       0.24987562
16
Frame=7 idx=008939 GeodesicLength=0.3259635500150192 rxn_smarts="[C:1]([C@@:2]1([H:11])[C:3]([H:12])([H:13])[N:4]([C:5]([H:14])([H:15])[H:16])[C:6]1=[O:7])([H:8])([H:9])[H:10]>>[C:1]([O:7][C:6]1=[C:2]([H:11])[C:3]([H:12])([H:13])[N:4]1[C:5]([H:14])([H:15])[H:16])([H:8])([H:9])[H:10]"
C        2.21347783      -0.33117951       0.96229593
C        0.91834348       0.39560577      -0.76077010
C       -0.39505415       0.06822335      -1.49283745
N       -1.09438658       0.43854262      -0.24614502
C       -2.27572974      -0.16745927       0.30748791
C        0.10502326       0.65188217       0.38203399
O        0.43586407       0.55133304       1.58961567
H        1.87656632      -1.36148956       0.94313382
H        2.54109358      -0.00482537       1.94137840
H        3.01479802      -0.12748915       0.26040618
H        1.61857144       1.11457548      -1.17045244
H       -0.66776116       0.70750187      -2.33570265
H       -0.53088103      -0.98251012      -1.76331200
H       -2.36225003       0.13250663       1.35164524
H       -3.15979050       0.17726366      -0.23209743
H       -2.23788482      -1.26248161       0.26331995
16
Frame=8 idx=008939 GeodesicLength=0.3734352875899899 rxn_smarts="[C:1]([C@@:2]1([H:11])[C:3]([H:12])([H:13])[N:4]([C:5]([H:14])([H:15])[H:16])[C:6]1=[O:7])([H:8])([H:9])[H:10]>>[C:1]([O:7][C:6]1=[C:2]([H:11])[C:3]([H:12])([H:13])[N:4]1[C:5]([H:14])([H:15])[H:16])([H:8])([H:9])[H:10]"
C        2.19613886      -0.32749981       0.94722491
C        0.92058581       0.40553643      -0.75076278
C       -0.38779340       0.06527060      -1.48452065
N       -1.09479536       0.44291743      -0.24467645
C       -2.27363256      -0.16820172       0.30824918
C        0.10048036       0.67199706       0.38703789
O        0.43284589       0.55704564       1.59431640
H        1.86068331      -1.35903802       0.91918414
H        2.54170433      -0.02768136       1.92960281
H        3.01344231      -0.13222964       0.25981440
H        1.61903745       1.12200955      -1.16775602
H       -0.66048223       0.69613681      -2.33372095
H       -0.51579773      -0.98831691      -1.74746455
H       -2.37036473       0.14265095       1.34832876
H       -3.15634975       0.16267964      -0.24220009
H       -2.22570256      -1.26327666       0.27734301
16
Frame=9 idx=008939 GeodesicLength=0.4212378871940323 rxn_smarts="[C:1]([C@@:2]1([H:11])[C:3]([H:12])([H:13])[N:4]([C:5]([H:14])([H:15])[H:16])[C:6]1=[O:7])([H:8])([H:9])[H:10]>>[C:1]([O:7][C:6]1=[C:2]([H:11])[C:3]([H:12])([H:13])[N:4]1[C:5]([H:14])([H:15])[H:16])([H:8])([H:9])[H:10]"
C        2.17882195      -0.32367485       0.93251216
C        0.92280395       0.41573984      -0.74103384
C       -0.38051172       0.06252819      -1.47623238
N       -1.09507879       0.44723582      -0.24322407
C       -2.27126345      -0.16912546       0.30911636
C        0.09600891       0.69181260       0.39182594
O        0.43002935       0.56336241       1.59870449
H        1.84425296      -1.35619379       0.89553322
H        2.54172047      -0.05077552       1.91748133
H        3.01142329      -0.13788358       0.25919408
H        1.61960878       1.12963118      -1.16508895
H       -0.65323698       0.68499225      -2.33160955
H       -0.50062610      -0.99379872      -1.73164836
H       -2.37833651       0.15262081       1.34486871
H       -3.15248687       0.14752363      -0.25209704
H       -2.21312923      -1.26399483       0.29169790
16
Frame=10 idx=008939 GeodesicLength=0.46950449921101867 rxn_smarts="[C:1]([C@@:2]1([H:11])[C:3]([H:12])([H:13])[N:4]([C:5]([H:14])([H:15])[H:16])[C:6]1=[O:7])([H:8])([H:9])[H:10]>>[C:1]([O:7][C:6]1=[C:2]([H:11])[C:3]([H:12])([H:13])[N:4]1[C:5]([H:14])([H:15])[H:16])([H:8])([H:9])[H:10]"
C        2.16142239      -0.31978893       0.91806876
C        0.92501144       0.42642904      -0.73157319
C       -0.37313899       0.05996389      -1.46793271
N       -1.09522592       0.45154444      -0.24179199
C       -2.26857507      -0.17022963       0.31012423
C        0.09159140       0.71152596       0.39641279
O        0.42741251       0.57033951       1.60280804
H        1.82706908      -1.35300640       0.87190503
H        2.54098019      -0.07442716       1.90501868
H        3.00867534      -0.14442716       0.25850593
H        1.62029798       1.13766508      -1.16243868
H       -0.64600423       0.67389748      -2.32941899
H       -0.48516642      -0.99903812      -1.71568686
H       -2.38622573       0.16259575       1.34122872
H       -3.14814652       0.13157581      -0.26185808
H       -2.19997743      -1.26461954       0.30662832
16
Frame=11 idx=008939 GeodesicLength=0.5184272724373831 rxn_smarts="[C:1]([C@@:2]1([H:11])[C:3]([H:12])([H:13])[N:4]([C:5]([H:14])([H:15])[H:16])[C:6]1=[O:7])([H:8])([H:9])[H:10]>>[C:1]([O:7][C:6]1=[C:2]([H:11])[C:3]([H:12])([H:13])[N:4]1[C:5]([H:14])([H:15])[H:16])([H:8])([H:9])[H:10]"
C        2.14374662      -0.31595309       0.90381659
C        0.92722329       0.43784355      -0.72238059
C       -0.36559782       0.05761148      -1.45959060
N       -1.09521669       0.45589972      -0.24038748
C       -2.26545057      -0.17157849       0.31132741
C        0.08720898       0.73141438       0.40077665
O        0.42501233       0.57822455       1.60661400
H        1.80872595      -1.34950640       0.84812924
H        2.53928095      -0.09892167       1.89216288
H        3.00504222      -0.15206914       0.25767813
H        1.62115956       1.14631623      -1.15979536
H       -0.63875778       0.66277408      -2.32717507
H       -0.46920930      -1.00403058      -1.69944466
H       -2.39403649       0.17268708       1.33737077
H       -3.14322000       0.11446011      -0.27151869
H       -2.18591126      -1.26517180       0.32241678
16
Frame=12 idx=008939 GeodesicLength=0.5679531543463494 rxn_smarts="[C:1]([C@@:2]1([H:11])[C:3]([H:12])([H:13])[N:4]([C:5]([H:14])([H:15])[H:16])[C:6]1=[O:7])([H:8])([H:9])[H:10]>>[C:1]([O:7][C:6]1=[C:2]([H:11])[C:3]([H:12])([H:13])[N:4]1[C:5]([H:14])([H:15])[H:16])([H:8])([H:9])[H:10]"
C        2.12588704      -0.31209428       0.88979847
C        0.92943748       0.44978490      -0.71344321
C       -0.35791954       0.05546657      -1.45122577
N       -1.09506007       0.46026007      -0.23900654
C       -2.26193767      -0.17315007       0.31269956
C        0.08286411       0.75134182       0.40492555
O        0.42281807       0.58688063       1.61015086
H        1.78943109      -1.34565200       0.82435574
H        2.53666509      -0.12400994       1.87890929
H        3.00057357      -0.16071071       0.25669822
H        1.62219281       1.15538518      -1.15716196
H       -0.63147320       0.65170858      -2.32484631
H       -0.45288704      -1.00873708      -1.68303117
H       -2.40174254       0.18272991       1.33331180
H       -3.13772082       0.09640032      -0.28098567
H       -2.17112837      -1.26560389       0.33885112
16
Frame=13 idx=008939 GeodesicLength=0.61801910540151 rxn_smarts="[C:1]([C@@:2]1([H:11])[C:3]([H:12])([H:13])[N:4]([C:5]([H:14])([H:15])[H:16])[C:6]1=[O:7])([H:8])([H:9])[H:10]>>[C:1]([O:7][C:6]1=[C:2]([H:11])[C:3]([H:12])([H:13])[N:4]1[C:5]([H:14])([H:15])[H:16])([H:8])([H:9])[H:10]"
C        2.10796813      -0.30813707       0.87603880
C        0.93165044       0.46206895      -0.70474226
C       -0.35013279       0.05348397      -1.44284474
N       -1.09476641       0.46458406      -0.23764252
C       -2.25811330      -0.17488670       0.31420769
C        0.07856079       0.77114845       0.40888812
O        0.42080935       0.59608230       1.61346151
H        1.76947582      -1.34141515       0.80063499
H        2.53317485      -0.14951115       1.86528440
H        2.99536132      -0.17011960       0.25557585
H        1.62336874       1.16471339      -1.15453759
H       -0.62412835       0.64071283      -2.32241480
H       -0.43631730      -1.01317670      -1.66650649
H       -2.40934958       0.19262416       1.32906615
H       -3.13168231       0.07767848      -0.29020190
H       -2.15587939      -1.26585022       0.35573277
16
Frame=14 idx=008939 GeodesicLength=0.6685604756295905 rxn_smarts="[C:1]([C@@:2]1([H:11])[C:3]([H:12])([H:13])[N:4]([C:5]([H:14])([H:15])[H:16])[C:6]1=[O:7])([H:8])([H:9])[H:10]>>[C:1]([O:7][C:6]1=[C:2]([H:11])[C:3]([H:12])([H:13])[N:4]1[C:5]([H:14])([H:15])[H:16])([H:8])([H:9])[H:10]"
C        2.09006277      -0.30403537       0.86258066
C        0.93386279       0.47452467      -0.69626941
C       -0.34227324       0.05167113      -1.43447699
N       -1.09434534       0.46884222      -0.23629339
C       -2.25401273      -0.17678032       0.31583270
C        0.07430659       0.79074515       0.41266451
O        0.41897788       0.60574181       1.61656442
H        1.74901570      -1.33677561       0.77712295
H        2.52886694      -0.17519492       1.85130410
H        2.98945027      -0.18023298       0.25430399
H        1.62469614       1.17411959      -1.15193310
H       -0.61671525       0.62988582      -2.31986262
H       -0.41962922      -1.01731128      -1.64999248
H       -2.41682165       0.20223414       1.32466661
H       -3.12513277       0.05846852      -0.29909569
H       -2.14030888      -1.26590257       0.37288373
16
Frame=15 idx=008939 GeodesicLength=0.7194976157451688 rxn_smarts="[C:1]([C@@:2]1([H:11])[C:3]([H:12])([H:13])[N:4]([C:5]([H:14])([H:15])[H:16])[C:6]1=[O:7])([H:8])([H:9])[H:10]>>[C:1]([O:7][C:6]1=[C:2]([H:11])[C:3]([H:12])([H:13])[N:4]1[C:5]([H:14])([H:15])[H:16])([H:8])([H:9])[H:10]"
C        2.07226980      -0.29974297       0.84945488
C        0.93607263       0.48699164      -0.68801118
C       -0.33437677       0.05000598      -1.42614112
N       -1.09380894       0.47300515      -0.23495620
C       -2.24969389      -0.17879584       0.31754781
C        0.07010912       0.81002127       0.41626906
O        0.41730864       0.61570475       1.61948657
H        1.72827260      -1.33172634       0.75391042
H        2.52380865      -0.20087360       1.83700385
H        2.98291893      -0.19089461       0.25289416
H        1.62615856       1.18345450      -1.14935450
H       -0.60923226       0.61927216      -2.31718072
H       -0.40294135      -1.02114466      -1.63357233
H       -2.42414461       0.21147052       1.32014195
H       -3.11811990       0.03899247      -0.30762347
H       -2.12460120      -1.26574044       0.39013082
16
Frame=16 idx=008939 GeodesicLength=0.7707522764784122 rxn_smarts="[C:1]([C@@:2]1([H:11])[C:3]([H:12])([H:13])[N:4]([C:5]([H:14])([H:15])[H:16])[C:6]1=[O:7])([H:8])([H:9])[H:10]>>[C:1]([O:7][C:6]1=[C:2]([H:11])[C:3]([H:12])([H:13])[N:4]1[C:5]([H:14])([H:15])[H:16])([H:8])([H:9])[H:10]"
C        2.05467828      -0.29522797       0.83668628
C        0.93827846       0.49933654      -0.67995321
C       -0.32647572       0.04846513      -1.41785221
N       -1.09316949       0.47704884      -0.23362838
C       -2.24521205      -0.18089964       0.31932722
C        0.06597524       0.82888520       0.41971719
O        0.41578680       0.62583006       1.62225265
H        1.70744467      -1.32627177       0.73107420
H        2.51807747      -0.22638050       1.82241874
H        2.97584362      -0.20196333       0.25135552
H        1.62773624       1.19260034      -1.14680307
H       -0.60168357       0.60890257      -2.31436436
H       -0.38635395      -1.02468967      -1.61731309
H       -2.43130773       0.22026907       1.31551978
H       -3.11069787       0.01944928      -0.31575907
H       -2.10892041      -1.26535416       0.40732183
