14
Frame=0 idx=011228 GeodesicLength=0.0 rxn_smarts="[N:1](=[C:2]1\[O:3][C@@:4]2([H:9])[C:5]([H:10])([H:11])[C:6]([H:12])([H:13])[C@@:7]12[H:14])\[H:8]>>[N:1](=[C:2]1\[O:3][C@:4]([C:5]([C:6][H:12])([H:10])[H:11])([H:9])[C:7]1([H:13])[H:14])\[H:8]"
N        2.57533401       0.39379841       0.32333527
C        1.43489054       0.07876619      -0.07025363
O        0.82622162      -1.15335043      -0.17506574
C       -0.38730300      -0.56955656      -0.72161950
C       -1.53483507      -0.53798973       0.26296297
C       -1.21711429       0.74868329       1.01480295
C        0.25552185       0.82228799      -0.60685171
H        3.11392274      -0.41942065       0.61111387
H       -0.59652668      -0.98712256      -1.70570417
H       -1.53750641      -1.42763840       0.89642435
H       -2.49163299      -0.47599283      -0.26041238
H       -0.43152696       0.53665155       1.75708619
H       -0.39762244       1.50090242       0.12876686
H        0.38817713       1.48998128      -1.45458539
14
Frame=1 idx=011228 GeodesicLength=0.05398414119686055 rxn_smarts="[N:1](=[C:2]1\[O:3][C@@:4]2([H:9])[C:5]([H:10])([H:11])[C:6]([H:12])([H:13])[C@@:7]12[H:14])\[H:8]>>[N:1](=[C:2]1\[O:3][C@:4]([C:5]([C:6][H:12])([H:10])[H:11])([H:9])[C:7]1([H:13])[H:14])\[H:8]"
N        2.57880244       0.39289490       0.31628173
C        1.43658020       0.07836237      -0.07257353
O        0.82757939      -1.15394145      -0.17254123
C       -0.38448772      -0.57152887      -0.72329353
C       -1.53516048      -0.53706544       0.25840329
C       -1.21293668       0.74034232       1.01891422
C        0.25401129       0.82226659      -0.60394754
H        3.11422390      -0.41946453       0.61236554
H       -0.59225549      -0.98959885      -1.70736858
H       -1.54047024      -1.42100194       0.90127292
H       -2.49196010      -0.47231310      -0.26424416
H       -0.43291396       0.52823510       1.76630240
H       -0.41096960       1.51874218       0.12639947
H        0.38995705       1.48407072      -1.45597101
14
Frame=2 idx=011228 GeodesicLength=0.10795999043977306 rxn_smarts="[N:1](=[C:2]1\[O:3][C@@:4]2([H:9])[C:5]([H:10])([H:11])[C:6]([H:12])([H:13])[C@@:7]12[H:14])\[H:8]>>[N:1](=[C:2]1\[O:3][C@:4]([C:5]([C:6][H:12])([H:10])[H:11])([H:9])[C:7]1([H:13])[H:14])\[H:8]"
N        2.58224858       0.39188937       0.30932508
C        1.43835033       0.07786540      -0.07503979
O        0.82897918      -1.15459113      -0.17012826
C       -0.38164627      -0.57352680      -0.72497661
C       -1.53535539      -0.53610381       0.25397332
C       -1.20856311       0.73214010       1.02284749
C        0.25256541       0.82221062      -0.60103697
H        3.11450746      -0.41950043       0.61373982
H       -0.58806211      -0.99204692      -1.70903831
H       -1.54338769      -1.41434268       0.90604966
H       -2.49218188      -0.46856138      -0.26789361
H       -0.43437722       0.51981532       1.77552241
H       -0.42476122       1.53644721       0.12381172
H        0.39168394       1.47830514      -1.45715598
14
Frame=3 idx=011228 GeodesicLength=0.1619316705515435 rxn_smarts="[N:1](=[C:2]1\[O:3][C@@:4]2([H:9])[C:5]([H:10])([H:11])[C:6]([H:12])([H:13])[C@@:7]12[H:14])\[H:8]>>[N:1](=[C:2]1\[O:3][C@:4]([C:5]([C:6][H:12])([H:10])[H:11])([H:9])[C:7]1([H:13])[H:14])\[H:8]"
N        2.58567667       0.39078448       0.30249608
C        1.44019763       0.07727747      -0.07760744
O        0.83041804      -1.15529703      -0.16778219
C       -0.37877046      -0.57555000      -0.72665359
C       -1.53543268      -0.53510173       0.24966300
C       -1.20402662       0.72408513       1.02659897
C        0.25119393       0.82211756      -0.59810543
H        3.11483994      -0.41955063       0.61509209
H       -0.58391773      -0.99447546      -1.71069941
H       -1.54627709      -1.40765345       0.91075728
H       -2.49230041      -0.46474471      -0.27139093
H       -0.43596577       0.51140888       1.78475015
H       -0.43901234       1.55401627       0.12101179
H        0.39337692       1.47268321      -1.45813038
14
Frame=4 idx=011228 GeodesicLength=0.2159051330632929 rxn_smarts="[N:1](=[C:2]1\[O:3][C@@:4]2([H:9])[C:5]([H:10])([H:11])[C:6]([H:12])([H:13])[C@@:7]12[H:14])\[H:8]>>[N:1](=[C:2]1\[O:3][C@:4]([C:5]([C:6][H:12])([H:10])[H:11])([H:9])[C:7]1([H:13])[H:14])\[H:8]"
N        2.58910558       0.38957415       0.29575198
C        1.44212457       0.07659772      -0.08028301
O        0.83189559      -1.15605842      -0.16550749
C       -0.37586121      -0.57759392      -0.72832646
C       -1.53539237      -0.53405903       0.24547100
C       -1.19932868       0.71617589       1.03017739
C        0.24990153       0.82198749      -0.59515743
H        3.11520158      -0.41961585       0.61646937
H       -0.57982506      -0.99688012      -1.71235388
H       -1.54913135      -1.40093504       0.91539931
H       -2.49231642      -0.46086655      -0.27473560
H       -0.43768052       0.50301548       1.79398304
H       -0.45372605       1.57144592       0.11801264
H        0.39503281       1.46721228      -1.45890086
14
Frame=5 idx=011228 GeodesicLength=0.26987692744075537 rxn_smarts="[N:1](=[C:2]1\[O:3][C@@:4]2([H:9])[C:5]([H:10])([H:11])[C:6]([H:12])([H:13])[C@@:7]12[H:14])\[H:8]>>[N:1](=[C:2]1\[O:3][C@:4]([C:5]([C:6][H:12])([H:10])[H:11])([H:9])[C:7]1([H:13])[H:14])\[H:8]"
N        2.59255721       0.38824730       0.28903219
C        1.44413541       0.07582342      -0.08308762
O        0.83341175      -1.15687558      -0.16332263
C       -0.37292230      -0.57965271      -0.73000200
C       -1.53523098      -0.53297611       0.24139895
C       -1.19446207       0.70840666       1.03359502
C        0.24869137       0.82182178      -0.59220082
H        3.11554885      -0.41968746       0.61797050
H       -0.57579597      -0.99925172      -1.71400866
H       -1.55193631      -1.39419134       0.91997939
H       -2.49223042      -0.45692941      -0.27791788
H       -0.43950864       0.49463183       1.80321641
H       -0.46890059       1.58873137       0.11482490
H        0.39664269       1.46190198      -1.45947775
14
Frame=6 idx=011228 GeodesicLength=0.32385090235279934 rxn_smarts="[N:1](=[C:2]1\[O:3][C@@:4]2([H:9])[C:5]([H:10])([H:11])[C:6]([H:12])([H:13])[C@@:7]12[H:14])\[H:8]>>[N:1](=[C:2]1\[O:3][C@:4]([C:5]([C:6][H:12])([H:10])[H:11])([H:9])[C:7]1([H:13])[H:14])\[H:8]"
N        2.59603276       0.38680811       0.28237295
C        1.44622619       0.07495807      -0.08597362
O        0.83496391      -1.15774530      -0.16118091
C       -0.36994483      -0.58172696      -0.73166432
C       -1.53496141      -0.53185074       0.23743592
C       -1.18946058       0.70078529       1.03684810
C        0.24757207       0.82161810      -0.58921991
H        3.11595386      -0.41979069       0.61943919
H       -0.57179968      -1.00160015      -1.71564888
H       -1.55471241      -1.38741460       0.92449911
H       -2.49204431      -0.45293975      -0.28096964
H       -0.44150059       0.48627757       1.81245358
H       -0.48455213       1.60587318       0.11145902
H        0.39822714       1.45674787      -1.45985059
14
Frame=7 idx=011228 GeodesicLength=0.37783536845812904 rxn_smarts="[N:1](=[C:2]1\[O:3][C@@:4]2([H:9])[C:5]([H:10])([H:11])[C:6]([H:12])([H:13])[C@@:7]12[H:14])\[H:8]>>[N:1](=[C:2]1\[O:3][C@:4]([C:5]([C:6][H:12])([H:10])[H:11])([H:9])[C:7]1([H:13])[H:14])\[H:8]"
N        2.59954409       0.38525202       0.27575458
C        1.44839826       0.07400097      -0.08893577
O        0.83655129      -1.15866679      -0.15907527
C       -0.36692727      -0.58381426      -0.73331163
C       -1.53458588      -0.53068225       0.23357820
C       -1.18433248       0.69331235       1.03994163
C        0.24654911       0.82137530      -0.58621457
H        3.11642001      -0.41993162       0.62087239
H       -0.56783116      -1.00392517      -1.71727303
H       -1.55745947      -1.38060266       0.92896122
H       -2.49175829      -0.44890176      -0.28389803
H       -0.44366706       0.47795930       1.82169231
H       -0.50068955       1.62287043       0.10792987
H        0.39978839       1.45175415      -1.46002191
14
Frame=8 idx=011228 GeodesicLength=0.4318283448699489 rxn_smarts="[N:1](=[C:2]1\[O:3][C@@:4]2([H:9])[C:5]([H:10])([H:11])[C:6]([H:12])([H:13])[C@@:7]12[H:14])\[H:8]>>[N:1](=[C:2]1\[O:3][C@:4]([C:5]([C:6][H:12])([H:10])[H:11])([H:9])[C:7]1([H:13])[H:14])\[H:8]"
N        2.60309825       0.38357911       0.26917986
C        1.45065058       0.07295429      -0.09195221
O        0.83817263      -1.15963743      -0.15698362
C       -0.36386523      -0.58591322      -0.73493649
C       -1.53411060      -0.52947013       0.22981940
C       -1.17909620       0.68598952       1.04287922
C        0.24562781       0.82109283      -0.58317728
H        3.11697740      -0.42012659       0.62220697
H       -0.56387522      -1.00622957      -1.71887426
H       -1.56018542      -1.37375278       0.93336717
H       -2.49137327      -0.44482108      -0.28671959
H       -0.44603404       0.46969132       1.83093199
H       -0.51732199       1.63972336       0.10424738
H        0.40133531       1.44692038      -1.45998853
14
Frame=9 idx=011228 GeodesicLength=0.48584875480364376 rxn_smarts="[N:1](=[C:2]1\[O:3][C@@:4]2([H:9])[C:5]([H:10])([H:11])[C:6]([H:12])([H:13])[C@@:7]12[H:14])\[H:8]>>[N:1](=[C:2]1\[O:3][C@:4]([C:5]([C:6][H:12])([H:10])[H:11])([H:9])[C:7]1([H:13])[H:14])\[H:8]"
N        2.60670746       0.38178884       0.26264049
C        1.45299048       0.07181269      -0.09502877
O        0.83983071      -1.16066121      -0.15490980
C       -0.36075459      -0.58802567      -0.73654073
C       -1.53353200      -0.52822377       0.22615315
C       -1.17373769       0.67882309       1.04565733
C        0.24481489       0.82076779      -0.58010224
H        3.11762622      -0.42038413       0.62344187
H       -0.55992948      -1.00850814      -1.72045518
H       -1.56288467      -1.36686365       0.93773820
H       -2.49089845      -0.44068972      -0.28944769
H       -0.44862104       0.46148836       1.84016851
H       -0.53448115       1.65642906       0.10043504
H        0.40286932       1.44224646      -1.45975018
14
Frame=10 idx=011228 GeodesicLength=0.5398931834991222 rxn_smarts="[N:1](=[C:2]1\[O:3][C@@:4]2([H:9])[C:5]([H:10])([H:11])[C:6]([H:12])([H:13])[C@@:7]12[H:14])\[H:8]>>[N:1](=[C:2]1\[O:3][C@:4]([C:5]([C:6][H:12])([H:10])[H:11])([H:9])[C:7]1([H:13])[H:14])\[H:8]"
N        2.61038005       0.37989114       0.25613256
C        1.45541182       0.07058451      -0.09814940
O        0.84152163      -1.16173055      -0.15283983
C       -0.35759874      -0.59014825      -0.73811578
C       -1.53285617      -0.52693492       0.22258201
C       -1.16828702       0.67180861       1.04828484
C        0.24410782       0.82039532      -0.57699676
H        3.11837087      -0.42071717       0.62455091
H       -0.55598611      -1.01077124      -1.72200832
H       -1.56556517      -1.35993732       0.94207672
H       -2.49032903      -0.43651527      -0.29210610
H       -0.45141578       0.45333932       1.84940279
H       -0.55214521       1.67300028       0.09649118
H        0.40439103       1.43773555      -1.45930481
14
Frame=11 idx=011228 GeodesicLength=0.5940568584290558 rxn_smarts="[N:1](=[C:2]1\[O:3][C@@:4]2([H:9])[C:5]([H:10])([H:11])[C:6]([H:12])([H:13])[C@@:7]12[H:14])\[H:8]>>[N:1](=[C:2]1\[O:3][C@:4]([C:5]([C:6][H:12])([H:10])[H:11])([H:9])[C:7]1([H:13])[H:14])\[H:8]"
N        2.61417607       0.37768048       0.24893793
C        1.45795075       0.06920354      -0.10192072
O        0.84324210      -1.16289089      -0.15135081
C       -0.35453714      -0.59222562      -0.73989685
C       -1.53198427      -0.52559269       0.21918118
C       -1.16241261       0.66474998       1.05094481
C        0.24345663       0.82001628      -0.57413563
H        3.11818175      -0.42066830       0.62779818
H       -0.55244863      -1.01288915      -1.72375080
H       -1.56791186      -1.35307007       0.94632477
H       -2.48964120      -0.43229334      -0.29425519
H       -0.45372806       0.44504697       1.85855421
H       -0.57003090       1.68948310       0.09253284
H        0.40568738       1.43344970      -1.45896392
14
Frame=12 idx=011228 GeodesicLength=0.6478482887201963 rxn_smarts="[N:1](=[C:2]1\[O:3][C@@:4]2([H:9])[C:5]([H:10])([H:11])[C:6]([H:12])([H:13])[C@@:7]12[H:14])\[H:8]>>[N:1](=[C:2]1\[O:3][C@:4]([C:5]([C:6][H:12])([H:10])[H:11])([H:9])[C:7]1([H:13])[H:14])\[H:8]"
N        2.61810795       0.37535743       0.24200777
C        1.46057644       0.06774160      -0.10530397
O        0.84499964      -1.16407999      -0.14942085
C       -0.35130749      -0.59432611      -0.74146595
C       -1.53107319      -0.52419410       0.21584614
C       -1.15666484       0.65803017       1.05332630
C        0.24301096       0.81956581      -0.57098055
H        3.11882794      -0.42093816       0.62940488
H       -0.54860535      -1.01502670      -1.72530316
H       -1.57047592      -1.34605657       0.95050558
H       -2.48884327      -0.42802856      -0.29658555
H       -0.45690349       0.43700095       1.86775310
H       -0.58878538       1.70559931       0.08833398
H        0.40713600       1.42935492      -1.45811771
14
Frame=13 idx=011228 GeodesicLength=0.7018886994698611 rxn_smarts="[N:1](=[C:2]1\[O:3][C@@:4]2([H:9])[C:5]([H:10])([H:11])[C:6]([H:12])([H:13])[C@@:7]12[H:14])\[H:8]>>[N:1](=[C:2]1\[O:3][C@:4]([C:5]([C:6][H:12])([H:10])[H:11])([H:9])[C:7]1([H:13])[H:14])\[H:8]"
N        2.62203971       0.37298132       0.23528951
C        1.46326157       0.06621764      -0.10863031
O        0.84678315      -1.16529967      -0.14740940
C       -0.34802192      -0.59644668      -0.74299153
C       -1.53010467      -0.52275706       0.21254844
C       -1.15090694       0.65142010       1.05558398
C        0.24266477       0.81907595      -0.56779457
H        3.11972845      -0.42138707       0.63054704
H       -0.54470634      -1.01719126      -1.72680881
H       -1.57304936      -1.33900451       0.95466230
H       -2.48796519      -0.42374986      -0.29890993
H       -0.46030350       0.42906980       1.87695329
H       -0.60804175       1.72170698       0.08407955
H        0.40862202       1.42536431      -1.45711956
14
Frame=14 idx=011228 GeodesicLength=0.7559306274127031 rxn_smarts="[N:1](=[C:2]1\[O:3][C@@:4]2([H:9])[C:5]([H:10])([H:11])[C:6]([H:12])([H:13])[C@@:7]12[H:14])\[H:8]>>[N:1](=[C:2]1\[O:3][C@:4]([C:5]([C:6][H:12])([H:10])[H:11])([H:9])[C:7]1([H:13])[H:14])\[H:8]"
N        2.62607443       0.37044881       0.22849257
C        1.46603599       0.06459734      -0.11199898
O        0.84859755      -1.16656641      -0.14539010
C       -0.34468574      -0.59856769      -0.74449069
C       -1.52904461      -0.52127379       0.20933031
C       -1.14506805       0.64494721       1.05772114
C        0.24244704       0.81854199      -0.56457394
H        3.12071794      -0.42190039       0.63162557
H       -0.54080021      -1.01932949      -1.72828982
H       -1.57559923      -1.33190687       0.95877053
H       -2.48699081      -0.41943797      -0.30115811
H       -0.46394011       0.42123826       1.88613567
H       -0.62785049       1.73766391       0.07975967
H        0.41010629       1.42154508      -1.45593384
14
Frame=15 idx=011228 GeodesicLength=0.809972864265745 rxn_smarts="[N:1](=[C:2]1\[O:3][C@@:4]2([H:9])[C:5]([H:10])([H:11])[C:6]([H:12])([H:13])[C@@:7]12[H:14])\[H:8]>>[N:1](=[C:2]1\[O:3][C@:4]([C:5]([C:6][H:12])([H:10])[H:11])([H:9])[C:7]1([H:13])[H:14])\[H:8]"
N        2.63021076       0.36776994       0.22165584
C        1.46889647       0.06288697      -0.11536046
O        0.85044204      -1.16787434      -0.14331455
C       -0.34128801      -0.60069092      -0.74594607
C       -1.52790340      -0.51974306       0.20618051
C       -1.13918240       0.63861828       1.05973516
C        0.24236363       0.81796296      -0.56130024
H        3.12187699      -0.42252057       0.63247502
H       -0.53685313      -1.02145216      -1.72972980
H       -1.57814818      -1.32475522       0.96282832
H       -2.48591942      -0.41509963      -0.30336382
H       -0.46786383       0.41353376       1.89530281
H       -0.64823902       1.75347344       0.07538399
H        0.41160749       1.41789055      -1.45454670
14
Frame=16 idx=011228 GeodesicLength=0.8640100474686866 rxn_smarts="[N:1](=[C:2]1\[O:3][C@@:4]2([H:9])[C:5]([H:10])([H:11])[C:6]([H:12])([H:13])[C@@:7]12[H:14])\[H:8]>>[N:1](=[C:2]1\[O:3][C@:4]([C:5]([C:6][H:12])([H:10])[H:11])([H:9])[C:7]1([H:13])[H:14])\[H:8]"
N        2.63445384       0.36494922       0.21478997
C        1.47184158       0.06109132      -0.11867963
O        0.85231639      -1.16921854      -0.14114817
C       -0.33782035      -0.60281681      -0.74734509
C       -1.52668829      -0.51816407       0.20309049
C       -1.13327452       0.63243663       1.06162652
C        0.24241923       0.81733883      -0.55795962
H        3.12326062      -0.42328019       0.63299047
H       -0.53283993      -1.02356593      -1.73111702
H       -1.58071229      -1.31754364       0.96683358
H       -2.48475043      -0.41073958      -0.30555178
H       -0.47211198       0.40597809       1.90445611
H       -0.66923140       1.76913685       0.07096217
H        0.41313753       1.41439784      -1.45294800
