10
Frame=0 idx=006019 GeodesicLength=0.0 rxn_smarts="[C:1]([O:2][C:3]([C:4]#[N:5])([H:9])[H:10])([H:6])([H:7])[H:8]>>[C:1]([O:2][C:3]([N+:5]#[C-:4])([H:9])[H:10])([H:6])([H:7])[H:8]"
C       -1.14363004       0.66009033       0.35118501
O       -0.35306092       0.35618044      -0.79114610
C        0.51909805      -0.63504720      -0.63852578
C        2.17225895       0.06676252      -0.11813459
N        1.70637929      -0.26225284       0.91490510
H       -1.83093275       1.44613965       0.05068741
H       -0.50294019       1.00486117       1.16492480
H       -1.70478715      -0.22123349       0.67383088
H        0.94252460      -0.94524323      -1.58537830
H        0.19509015      -1.47025734      -0.02234844
10
Frame=1 idx=006019 GeodesicLength=0.07059144231862585 rxn_smarts="[C:1]([O:2][C:3]([C:4]#[N:5])([H:9])[H:10])([H:6])([H:7])[H:8]>>[C:1]([O:2][C:3]([N+:5]#[C-:4])([H:9])[H:10])([H:6])([H:7])[H:8]"
C       -1.15615429       0.65726162       0.35220414
O       -0.34364990       0.37236613      -0.77891478
C        0.53055636      -0.62153281      -0.62763303
C        2.22503492      -0.00522198      -0.13189773
N        1.71579148      -0.19921097       0.91134336
H       -1.83924867       1.44711918       0.05229822
H       -0.52641570       0.98972954       1.17991059
H       -1.71936217      -0.23082765       0.65240149
H        0.91526255      -0.94705907      -1.58681874
H        0.19818542      -1.46262398      -0.02289352
10
Frame=2 idx=006019 GeodesicLength=0.13913053946131076 rxn_smarts="[C:1]([O:2][C:3]([C:4]#[N:5])([H:9])[H:10])([H:6])([H:7])[H:8]>>[C:1]([O:2][C:3]([N+:5]#[C-:4])([H:9])[H:10])([H:6])([H:7])[H:8]"
C       -1.16837559       0.65405651       0.35312928
O       -0.33540761       0.38795287      -0.76698642
C        0.54190954      -0.60786174      -0.61727575
C        2.27304584      -0.08480941      -0.13892155
N        1.72850698      -0.12910378       0.90024237
H       -1.84693756       1.44836070       0.05487485
H       -0.54993188       0.97274565       1.19504489
H       -1.73370307      -0.24033977       0.63028138
H        0.88950934      -0.94667256      -1.58702872
H        0.20138404      -1.45432846      -0.02336033
10
Frame=3 idx=006019 GeodesicLength=0.20623151367210912 rxn_smarts="[C:1]([O:2][C:3]([C:4]#[N:5])([H:9])[H:10])([H:6])([H:7])[H:8]>>[C:1]([O:2][C:3]([N+:5]#[C-:4])([H:9])[H:10])([H:6])([H:7])[H:8]"
C       -1.18010194       0.65038589       0.35412488
O       -0.32890361       0.40253119      -0.75582640
C        0.55300297      -0.59405492      -0.60762242
C        2.31472087      -0.17231145      -0.13653463
N        1.74495960      -0.05094103       0.87946045
H       -1.85387747       1.44985669       0.05902215
H       -0.57264036       0.95358768       1.21001742
H       -1.74774662      -0.24970479       0.60778714
H        0.86627292      -0.94379863      -1.58621809
H        0.20431364      -1.44555063      -0.02421048
10
Frame=4 idx=006019 GeodesicLength=0.2698210722240324 rxn_smarts="[C:1]([O:2][C:3]([C:4]#[N:5])([H:9])[H:10])([H:6])([H:7])[H:8]>>[C:1]([O:2][C:3]([N+:5]#[C-:4])([H:9])[H:10])([H:6])([H:7])[H:8]"
C       -1.19046511       0.64645168       0.35544054
O       -0.32563261       0.41409613      -0.74669702
C        0.56333999      -0.58114430      -0.59927523
C        2.34648469      -0.26178410      -0.12136289
N        1.76414617       0.03095894       0.84832985
H       -1.85955897       1.45145291       0.06489839
H       -0.59207883       0.93429589       1.22330180
H       -1.76022601      -0.25820799       0.58802043
H        0.84822714      -0.93802147      -1.58498889
H        0.20576354      -1.43809767      -0.02766698
10
Frame=5 idx=006019 GeodesicLength=0.3304725750775263 rxn_smarts="[C:1]([O:2][C:3]([C:4]#[N:5])([H:9])[H:10])([H:6])([H:7])[H:8]>>[C:1]([O:2][C:3]([N+:5]#[C-:4])([H:9])[H:10])([H:6])([H:7])[H:8]"
C       -1.19899046       0.64240285       0.35742878
O       -0.32607810       0.42216947      -0.74021622
C        0.57259717      -0.56940789      -0.59282739
C        2.36678743      -0.35153013      -0.09022987
N        1.78503896       0.11429670       0.80614198
H       -1.86497526       1.45187796       0.07232772
H       -0.60662668       0.91751957       1.23385101
H       -1.76949562      -0.26596923       0.57406173
H        0.83713375      -0.92839159      -1.58442715
H        0.20460881      -1.43296771      -0.03611059
10
Frame=6 idx=006019 GeodesicLength=0.38908028374659753 rxn_smarts="[C:1]([O:2][C:3]([C:4]#[N:5])([H:9])[H:10])([H:6])([H:7])[H:8]>>[C:1]([O:2][C:3]([N+:5]#[C-:4])([H:9])[H:10])([H:6])([H:7])[H:8]"
C       -1.20536839       0.63818985       0.36039042
O       -0.33031107       0.42645772      -0.73662319
C        0.58040037      -0.55929875      -0.58837467
C        2.37383679      -0.43896901      -0.04091688
N        1.80800636       0.19767800       0.75125581
H       -1.86979377       1.45110841       0.08155993
H       -0.61541396       0.90346596       1.24179030
H       -1.77562967      -0.27300246       0.56657355
H        0.83411188      -0.91477031      -1.58497482
H        0.20016145      -1.43085942      -0.05068044
10
Frame=7 idx=006019 GeodesicLength=0.4460487894586933 rxn_smarts="[C:1]([O:2][C:3]([C:4]#[N:5])([H:9])[H:10])([H:6])([H:7])[H:8]>>[C:1]([O:2][C:3]([N+:5]#[C-:4])([H:9])[H:10])([H:6])([H:7])[H:8]"
C       -1.20900682       0.63393709       0.36454791
O       -0.33827374       0.42658272      -0.73614174
C        0.58636300      -0.55149202      -0.58628846
C        2.36561134      -0.51877537       0.02785232
N        1.83245604       0.27677135       0.68386348
H       -1.87381607       1.44885320       0.09250835
H       -0.61743963       0.89347042       1.24689386
H       -1.77781807      -0.27922243       0.56709215
H        0.84007715      -0.89729865      -1.58708297
H        0.19184678      -1.43282632      -0.07324490
10
Frame=8 idx=006019 GeodesicLength=0.503265219006104 rxn_smarts="[C:1]([O:2][C:3]([C:4]#[N:5])([H:9])[H:10])([H:6])([H:7])[H:8]>>[C:1]([O:2][C:3]([N+:5]#[C-:4])([H:9])[H:10])([H:6])([H:7])[H:8]"
C       -1.20948411       0.62966071       0.37000927
O       -0.34912948       0.42327734      -0.73842182
C        0.59022554      -0.54620733      -0.58674159
C        2.33997796      -0.58672216       0.11628908
N        1.85915634       0.34764313       0.60438137
H       -1.87730581       1.44446854       0.10498571
H       -0.61248256       0.88810427       1.24930604
H       -1.77529869      -0.28491561       0.57570305
H        0.85463427      -0.87629926      -1.59072879
H        0.17970654      -1.43900962      -0.10478232
10
Frame=9 idx=006019 GeodesicLength=0.5617592738902936 rxn_smarts="[C:1]([O:2][C:3]([C:4]#[N:5])([H:9])[H:10])([H:6])([H:7])[H:8]>>[C:1]([O:2][C:3]([N+:5]#[C-:4])([H:9])[H:10])([H:6])([H:7])[H:8]"
C       -1.20663230       0.62555881       0.37644183
O       -0.36144436       0.41764670      -0.74273500
C        0.59209421      -0.54364892      -0.58994697
C        2.29753282      -0.63593539       0.21853265
N        1.88690192       0.40276922       0.51911205
H       -1.88044391       1.43764814       0.11806178
H       -0.60147694       0.88863892       1.24903069
H       -1.76714275      -0.29027996       0.59195397
H        0.87519445      -0.85335189      -1.59584771
H        0.16541686      -1.44904562      -0.14460328
10
Frame=10 idx=006019 GeodesicLength=0.6236892577322101 rxn_smarts="[C:1]([O:2][C:3]([C:4]#[N:5])([H:9])[H:10])([H:6])([H:7])[H:8]>>[C:1]([O:2][C:3]([N+:5]#[C-:4])([H:9])[H:10])([H:6])([H:7])[H:8]"
C       -1.20093387       0.62158272       0.38332508
O       -0.37358556       0.41142461      -0.74807973
C        0.59256495      -0.54321907      -0.59571310
C        2.24082378      -0.66404308       0.32708441
N        1.91577324       0.43902870       0.43377214
H       -1.88319152       1.42877130       0.13141323
H       -0.58668029       0.89377216       1.24695489
H       -1.75408776      -0.29565126       0.61259138
H        0.89776837      -0.83058646      -1.60217799
H        0.15154866      -1.46107962      -0.18917031
10
Frame=11 idx=006019 GeodesicLength=0.6890584886909961 rxn_smarts="[C:1]([O:2][C:3]([C:4]#[N:5])([H:9])[H:10])([H:6])([H:7])[H:8]>>[C:1]([O:2][C:3]([N+:5]#[C-:4])([H:9])[H:10])([H:6])([H:7])[H:8]"
C       -1.19331024       0.61794166       0.39013259
O       -0.38388397       0.40690977      -0.75332578
C        0.59251663      -0.54348926      -0.60354569
C        2.17439507      -0.67349090       0.43270699
N        1.94606773       0.45440580       0.35612898
H       -1.88805711       1.41616743       0.14330905
H       -0.57055943       0.90482894       1.24303358
H       -1.73559862      -0.30167922       0.63618933
H        0.91853905      -0.80891070      -1.60984985
H        0.13989088      -1.47268353      -0.23477922
10
Frame=12 idx=006019 GeodesicLength=0.7550331315831572 rxn_smarts="[C:1]([O:2][C:3]([C:4]#[N:5])([H:9])[H:10])([H:6])([H:7])[H:8]>>[C:1]([O:2][C:3]([N+:5]#[C-:4])([H:9])[H:10])([H:6])([H:7])[H:8]"
C       -1.18527991       0.61458495       0.39620080
O       -0.39210529       0.40347235      -0.75780933
C        0.59263627      -0.54467958      -0.61180642
C        2.10758650      -0.66577194       0.52640833
N        1.97497093       0.45353858       0.28918998
H       -1.89125160       1.40471112       0.15456411
H       -0.55627297       0.91525633       1.23988443
H       -1.71744937      -0.30728966       0.65647486
H        0.93470900      -0.79060315      -1.61809301
H        0.13245643      -1.48321901      -0.27501376
10
Frame=13 idx=006019 GeodesicLength=0.8259475241894685 rxn_smarts="[C:1]([O:2][C:3]([C:4]#[N:5])([H:9])[H:10])([H:6])([H:7])[H:8]>>[C:1]([O:2][C:3]([N+:5]#[C-:4])([H:9])[H:10])([H:6])([H:7])[H:8]"
C       -1.17629434       0.61148410       0.40205530
O       -0.39858400       0.40228195      -0.76194307
C        0.59303101      -0.54523809      -0.62181045
C        2.03487235      -0.64747154       0.61390587
N        2.00571818       0.43716676       0.23157008
H       -1.89786637       1.38882418       0.16435306
H       -0.54253071       0.93151013       1.23509384
H       -1.69400988      -0.31388486       0.67933693
H        0.94834353      -0.77267758      -1.62819363
H        0.12732024      -1.49199504      -0.31436793
10
Frame=14 idx=006019 GeodesicLength=0.8982715932059293 rxn_smarts="[C:1]([O:2][C:3]([C:4]#[N:5])([H:9])[H:10])([H:6])([H:7])[H:8]>>[C:1]([O:2][C:3]([N+:5]#[C-:4])([H:9])[H:10])([H:6])([H:7])[H:8]"
C       -1.16753431       0.60858727       0.40734572
O       -0.40356473       0.40210634      -0.76531043
C        0.59380946      -0.54600161      -0.63175485
C        1.96429265      -0.61909246       0.68998527
N        2.03544107       0.40975313       0.18321367
H       -1.90391168       1.37336217       0.17353582
H       -0.53126104       0.94753140       1.23104058
H       -1.67098304      -0.32027989       0.69960576
H        0.95859299      -0.75626263      -1.63888607
H        0.12511864      -1.49970373      -0.34877546
10
Frame=15 idx=006019 GeodesicLength=0.97212195525027 rxn_smarts="[C:1]([O:2][C:3]([C:4]#[N:5])([H:9])[H:10])([H:6])([H:7])[H:8]>>[C:1]([O:2][C:3]([N+:5]#[C-:4])([H:9])[H:10])([H:6])([H:7])[H:8]"
C       -1.15908235       0.60594386       0.41221995
O       -0.40731113       0.40340206      -0.76803498
C        0.59504694      -0.54606147      -0.64183686
C        1.89538337      -0.58365527       0.75535865
N        2.06544640       0.37252754       0.14366539
H       -1.91090818       1.35686372       0.18185260
H       -0.52233382       0.96436602       1.22732399
H       -1.64752935      -0.32668132       0.71840061
H        0.96599456      -0.74101759      -1.65020329
H        0.12529356      -1.50568754      -0.37874606
10
Frame=16 idx=006019 GeodesicLength=1.0443846018502765 rxn_smarts="[C:1]([O:2][C:3]([C:4]#[N:5])([H:9])[H:10])([H:6])([H:7])[H:8]>>[C:1]([O:2][C:3]([N+:5]#[C-:4])([H:9])[H:10])([H:6])([H:7])[H:8]"
C       -1.15158863       0.60360464       0.41661555
O       -0.41023442       0.40524519      -0.76995290
C        0.59649600      -0.54614813      -0.65100526
C        1.83300962      -0.54345768       0.80912403
N        2.09298220       0.32888867       0.11213557
H       -1.91743320       1.34141376       0.18922690
H       -0.51603188       0.98032672       1.22443584
H       -1.62578973      -0.33260601       0.73470516
H        0.97137195      -0.72629552      -1.66115500
H        0.12721808      -1.51097164      -0.40412988
