14
Frame=0 idx=008251 GeodesicLength=0.0 rxn_smarts="[C:1]([C@:2]12[N:3]([H:11])[C@@:4]1([H:12])[C:5]([H:13])([H:14])[C:6]2=[O:7])([H:8])([H:9])[H:10]>>[C:1]([C:2][C@@:4]1([H:12])[N:3]([H:11])[C:6](=[O:7])[C:5]1([H:13])[H:14])([H:8])([H:9])[H:10]"
C       -2.00327060       0.11064063       0.27553263
C       -0.59457660       0.25187938      -0.20758837
N        0.30388808      -0.94070588       0.09144872
C        0.56411826       0.38191523       0.69880136
C        1.68757981       0.66331667      -0.28508998
C        1.02594737      -0.42712157      -1.14299973
O        1.18880604      -0.96541231      -2.18905042
H       -2.47245781       1.09508636       0.29877413
H       -2.08812858      -0.32670651       1.28285913
H       -2.58643957      -0.50535403      -0.41130182
H        0.02098939      -1.82098865       0.49765338
H        0.56641890       0.47889901       1.77669118
H        2.68652116       0.34449868       0.03131055
H        1.70060409       1.66005298      -0.71704079
14
Frame=1 idx=008251 GeodesicLength=0.05790059774580202 rxn_smarts="[C:1]([C@:2]12[N:3]([H:11])[C@@:4]1([H:12])[C:5]([H:13])([H:14])[C:6]2=[O:7])([H:8])([H:9])[H:10]>>[C:1]([C:2][C@@:4]1([H:12])[N:3]([H:11])[C:6](=[O:7])[C:5]1([H:13])[H:14])([H:8])([H:9])[H:10]"
C       -2.00538014       0.11181983       0.27576274
C       -0.59764110       0.24645528      -0.20656675
N        0.31171858      -0.94866874       0.11020628
C        0.56208874       0.38051151       0.69958379
C        1.68687403       0.66100155      -0.28446516
C        1.02286371      -0.42671262      -1.14426560
O        1.18806351      -0.95574104      -2.19521305
H       -2.46529752       1.10133650       0.29204934
H       -2.09103441      -0.31779141       1.28586352
H       -2.59317568      -0.50308886      -0.40793129
H        0.03567429      -1.84405080       0.48328150
H        0.56013229       0.49160685       1.77619488
H        2.68610525       0.34623731       0.03385494
H        1.69900844       1.65708464      -0.71835513
14
Frame=2 idx=008251 GeodesicLength=0.11579307090555468 rxn_smarts="[C:1]([C@:2]12[N:3]([H:11])[C@@:4]1([H:12])[C:5]([H:13])([H:14])[C:6]2=[O:7])([H:8])([H:9])[H:10]>>[C:1]([C:2][C@@:4]1([H:12])[N:3]([H:11])[C:6](=[O:7])[C:5]1([H:13])[H:14])([H:8])([H:9])[H:10]"
C       -2.00757507       0.11305604       0.27599437
C       -0.60077948       0.24097750      -0.20547193
N        0.31948074      -0.95663017       0.12940306
C        0.55997964       0.37903217       0.70042890
C        1.68611211       0.65847689      -0.28378831
C        1.01963497      -0.42654121      -1.14536462
O        1.18704462      -0.94602008      -2.20127185
H       -2.45814099       1.10752209       0.28531428
H       -2.09405118      -0.30884095       1.28879299
H       -2.60002069      -0.50064215      -0.40460561
H        0.05155964      -1.86651479       0.46818237
H        0.55373007       0.50447229       1.77553526
H        2.68560060       0.34775880       0.03648739
H        1.69742501       1.65389355      -0.71963630
14
Frame=3 idx=008251 GeodesicLength=0.17366946865778793 rxn_smarts="[C:1]([C@:2]12[N:3]([H:11])[C@@:4]1([H:12])[C:5]([H:13])([H:14])[C:6]2=[O:7])([H:8])([H:9])[H:10]>>[C:1]([C:2][C@@:4]1([H:12])[N:3]([H:11])[C:6](=[O:7])[C:5]1([H:13])[H:14])([H:8])([H:9])[H:10]"
C       -2.00986432       0.11435196       0.27621481
C       -0.60400115       0.23544685      -0.20431337
N        0.32714946      -0.96460939       0.14899829
C        0.55778579       0.37743400       0.70132806
C        1.68528835       0.65572538      -0.28306010
C        1.01624737      -0.42658866      -1.14633494
O        1.18574913      -0.93623551      -2.20725301
H       -2.45099249       1.11364661       0.27857217
H       -2.09719209      -0.29986209       1.29163149
H       -2.60698346      -0.49800174      -0.40134536
H        0.06873941      -1.88823192       0.45252136
H        0.54721982       0.51741931       1.77469770
H        2.68499985       0.34902847       0.03919489
H        1.69585434       1.65047674      -0.72085197
14
Frame=4 idx=008251 GeodesicLength=0.23152498743442532 rxn_smarts="[C:1]([C@:2]12[N:3]([H:11])[C@@:4]1([H:12])[C:5]([H:13])([H:14])[C:6]2=[O:7])([H:8])([H:9])[H:10]>>[C:1]([C:2][C@@:4]1([H:12])[N:3]([H:11])[C:6](=[O:7])[C:5]1([H:13])[H:14])([H:8])([H:9])[H:10]"
C       -2.01225670       0.11571073       0.27640984
C       -0.60731562       0.22986724      -0.20310342
N        0.33470174      -0.97262529       0.16894193
C        0.55550329       0.37567272       0.70227125
C        1.68439779       0.65273247      -0.28228325
C        1.01268733      -0.42683014      -1.14722095
O        1.18417828      -0.92637351      -2.21318595
H       -2.44385640       1.11971482       0.27183135
H       -2.10046854      -0.29086810       1.29435971
H       -2.61407320      -0.49515165      -0.39817594
H        0.08729541      -1.90906164       0.43649453
H        0.54061184       0.53036380       1.77366924
H        2.68429733       0.35001266       0.04196135
H        1.69429746       1.64683589      -0.72196969
14
Frame=5 idx=008251 GeodesicLength=0.28940412570957447 rxn_smarts="[C:1]([C@:2]12[N:3]([H:11])[C@@:4]1([H:12])[C:5]([H:13])([H:14])[C:6]2=[O:7])([H:8])([H:9])[H:10]>>[C:1]([C:2][C@@:4]1([H:12])[N:3]([H:11])[C:6](=[O:7])[C:5]1([H:13])[H:14])([H:8])([H:9])[H:10]"
C       -2.01476935       0.11713219       0.27656053
C       -0.61073500       0.22424329      -0.20185912
N        0.34212306      -0.98071139       0.18919213
C        0.55314614       0.37371003       0.70325543
C        1.68345063       0.64950093      -0.28146011
C        1.00893814      -0.42724137      -1.14806951
O        1.18232097      -0.91643009      -2.21910532
H       -2.43674311       1.12574175       0.26509226
H       -2.10389114      -0.28188347       1.29696289
H       -2.62132211      -0.49208911      -0.39513106
H        0.10725581      -1.92890396       0.42029725
H        0.53394429       0.54322984       1.77245300
H        2.68351455       0.35069714       0.04477824
H        1.69276714       1.64300423      -0.72296661
14
Frame=6 idx=008251 GeodesicLength=0.3471649557910165 rxn_smarts="[C:1]([C@:2]12[N:3]([H:11])[C@@:4]1([H:12])[C:5]([H:13])([H:14])[C:6]2=[O:7])([H:8])([H:9])[H:10]>>[C:1]([C:2][C@@:4]1([H:12])[N:3]([H:11])[C:6](=[O:7])[C:5]1([H:13])[H:14])([H:8])([H:9])[H:10]"
C       -2.01738668       0.11862930       0.27666410
C       -0.61426059       0.21858896      -0.20058874
N        0.34938029      -0.98883049       0.20965525
C        0.55066388       0.37149908       0.70424006
C        1.68240439       0.64598648      -0.28060868
C        1.00499920      -0.42777403      -1.14892802
O        1.18022675      -0.90637915      -2.22501664
H       -2.42963100       1.13171067       0.25843911
H       -2.10746972      -0.27294294       1.29938778
H       -2.62868295      -0.48871999      -0.39224170
H        0.12878420      -1.94759741       0.40421388
H        0.52715700       0.55590298       1.77099044
H        2.68257708       0.35101223       0.04759379
H        1.69123817       1.63891431      -0.72380063
14
Frame=7 idx=008251 GeodesicLength=0.4049536037255081 rxn_smarts="[C:1]([C@:2]12[N:3]([H:11])[C@@:4]1([H:12])[C:5]([H:13])([H:14])[C:6]2=[O:7])([H:8])([H:9])[H:10]>>[C:1]([C:2][C@@:4]1([H:12])[N:3]([H:11])[C:6](=[O:7])[C:5]1([H:13])[H:14])([H:8])([H:9])[H:10]"
C       -2.02011484       0.12019241       0.27669525
C       -0.61789586       0.21288329      -0.19931206
N        0.35649996      -0.99706582       0.23032737
C        0.54811441       0.36900475       0.70525754
C        1.68128538       0.64222760      -0.27971432
C        1.00084951      -0.42842518      -1.14983764
O        1.17783899      -0.89622026      -2.23098135
H       -2.42251573       1.13764998       0.25177530
H       -2.11117827      -0.26401092       1.30166753
H       -2.63619841      -0.48513507      -0.38951214
H        0.15171629      -1.96511747       0.38831390
H        0.52034313       0.56834984       1.76934143
H        2.68154704       0.35100659       0.05043529
H        1.68970841       1.63466027      -0.72445610
14
Frame=8 idx=008251 GeodesicLength=0.46263431092871005 rxn_smarts="[C:1]([C@:2]12[N:3]([H:11])[C@@:4]1([H:12])[C:5]([H:13])([H:14])[C:6]2=[O:7])([H:8])([H:9])[H:10]>>[C:1]([C:2][C@@:4]1([H:12])[N:3]([H:11])[C:6](=[O:7])[C:5]1([H:13])[H:14])([H:8])([H:9])[H:10]"
C       -2.02295419       0.12183879       0.27665643
C       -0.62164655       0.20715604      -0.19803884
N        0.36344107      -1.00536424       0.25110943
C        0.54544405       0.36618843       0.70625881
C        1.68006600       0.63818291      -0.27880338
C        0.99649752      -0.42913174      -1.15084287
O        1.17521337      -0.88591278      -2.23699758
H       -2.41540106       1.14354257       0.24517987
H       -2.11504540      -0.25511974       1.30375436
H       -2.64383876      -0.48123655      -0.38695615
H        0.17623711      -1.98136442       0.37289895
H        0.51343834       0.58044051       1.76744212
H        2.68036639       0.35060322       0.05324051
H        1.68818212       1.63017698      -0.72490167
14
Frame=9 idx=008251 GeodesicLength=0.5203665968720804 rxn_smarts="[C:1]([C@:2]12[N:3]([H:11])[C@@:4]1([H:12])[C:5]([H:13])([H:14])[C:6]2=[O:7])([H:8])([H:9])[H:10]>>[C:1]([C:2][C@@:4]1([H:12])[N:3]([H:11])[C:6](=[O:7])[C:5]1([H:13])[H:14])([H:8])([H:9])[H:10]"
C       -2.02593441       0.12356590       0.27652651
C       -0.62552867       0.20139473      -0.19679026
N        0.37023336      -1.01379987       0.27199907
C        0.54270343       0.36303229       0.70726638
C        1.67878016       0.63389426      -0.27786869
C        0.99192835      -0.42989033      -1.15198054
O        1.17230552      -0.87547367      -2.24311301
H       -2.40830024       1.14943748       0.23860198
H       -2.11906708      -0.24627369       1.30566507
H       -2.65168245      -0.47706539      -0.38459989
H        0.20225290      -1.99638683       0.35805346
H        0.50653053       0.59215879       1.76534135
H        2.67910991       0.34984254       0.05603165
H        1.68666869       1.62556380      -0.72513308
14
Frame=10 idx=008251 GeodesicLength=0.5780665960526027 rxn_smarts="[C:1]([C@:2]12[N:3]([H:11])[C@@:4]1([H:12])[C:5]([H:13])([H:14])[C:6]2=[O:7])([H:8])([H:9])[H:10]>>[C:1]([C:2][C@@:4]1([H:12])[N:3]([H:11])[C:6](=[O:7])[C:5]1([H:13])[H:14])([H:8])([H:9])[H:10]"
C       -2.02900217       0.12537039       0.27631767
C       -0.62951628       0.19556650      -0.19556118
N        0.37690042      -1.02236575       0.29297858
C        0.53986861       0.35949757       0.70827381
C        1.67738599       0.62934242      -0.27691670
C        0.98716122      -0.43068647      -1.15326148
O        1.16916354      -0.86487475      -2.24932298
H       -2.40114549       1.15529953       0.23202961
H       -2.12320643      -0.23742193       1.30741379
H       -2.65964165      -0.47263066      -0.38239865
H        0.22964142      -2.01006850       0.34377877
H        0.49956912       0.60346891       1.76302236
H        2.67771325       0.34873127       0.05878383
H        1.68510844       1.62077146      -0.72513744
14
Frame=11 idx=008251 GeodesicLength=0.6356964635186038 rxn_smarts="[C:1]([C@:2]12[N:3]([H:11])[C@@:4]1([H:12])[C:5]([H:13])([H:14])[C:6]2=[O:7])([H:8])([H:9])[H:10]>>[C:1]([C:2][C@@:4]1([H:12])[N:3]([H:11])[C:6](=[O:7])[C:5]1([H:13])[H:14])([H:8])([H:9])[H:10]"
C       -2.03218483       0.12726305       0.27601774
C       -0.63363153       0.18971743      -0.19437243
N        0.38340222      -1.03103215       0.31397905
C        0.53692525       0.35558097       0.70924872
C        1.67589048       0.62451976      -0.27596684
C        0.98217589      -0.43146910      -1.15472634
O        1.16577741      -0.85411583      -2.25563610
H       -2.39396521       1.16114069       0.22554485
H       -2.12748943      -0.22864488       1.30895236
H       -2.66775250      -0.46784372      -0.38041579
H        0.25857207      -2.02242700       0.33034708
H        0.49255781       0.61429482       1.76045935
H        2.67617711       0.34721337       0.06146790
H        1.68354528       1.61580259      -0.72489955
14
Frame=12 idx=008251 GeodesicLength=0.693332975238279 rxn_smarts="[C:1]([C@:2]12[N:3]([H:11])[C@@:4]1([H:12])[C:5]([H:13])([H:14])[C:6]2=[O:7])([H:8])([H:9])[H:10]>>[C:1]([C:2][C@@:4]1([H:12])[N:3]([H:11])[C:6](=[O:7])[C:5]1([H:13])[H:14])([H:8])([H:9])[H:10]"
C       -2.03547284       0.12923452       0.27562579
C       -0.63786511       0.18381985      -0.19322636
N        0.38979556      -1.03984976       0.33502449
C        0.53390688       0.35126752       0.71021188
C        1.67430224       0.61945672      -0.27501783
C        0.97698626      -0.43224739      -1.15638286
O        1.16216748      -0.84322764      -2.26205373
H       -2.38674658       1.16696947       0.21911114
H       -2.13188924      -0.21992120       1.31030894
H       -2.67601501      -0.46276078      -0.37863288
H        0.28880541      -2.03343830       0.31768592
H        0.48554390       0.62463945       1.75768694
H        2.67453504       0.34535205       0.06409211
H        1.68194601       1.61070549      -0.72443356
14
Frame=13 idx=008251 GeodesicLength=0.7509705360958657 rxn_smarts="[C:1]([C@:2]12[N:3]([H:11])[C@@:4]1([H:12])[C:5]([H:13])([H:14])[C:6]2=[O:7])([H:8])([H:9])[H:10]>>[C:1]([C:2][C@@:4]1([H:12])[N:3]([H:11])[C:6](=[O:7])[C:5]1([H:13])[H:14])([H:8])([H:9])[H:10]"
C       -2.03886421       0.13129576       0.27513916
C       -0.64222175       0.17786350      -0.19213468
N        0.39607872      -1.04882143       0.35609539
C        0.53080028       0.34654040       0.71115425
C        1.67260789       0.61415074      -0.27407670
C        0.97159191      -0.43300950      -1.15824695
O        1.15832888      -0.83219583      -2.26859177
H       -2.37946221       1.17280153       0.21273500
H       -2.13640590      -0.21125229       1.31147790
H       -2.68444009      -0.45733887      -0.37705853
H        0.32040386      -2.04311373       0.30589134
H        0.47851869       0.63446011       1.75470355
H        2.67276987       0.34314217       0.06664823
H        1.68029405       1.60547743      -0.72373621
14
Frame=14 idx=008251 GeodesicLength=0.8086114963541926 rxn_smarts="[C:1]([C@:2]12[N:3]([H:11])[C@@:4]1([H:12])[C:5]([H:13])([H:14])[C:6]2=[O:7])([H:8])([H:9])[H:10]>>[C:1]([C:2][C@@:4]1([H:12])[N:3]([H:11])[C:6](=[O:7])[C:5]1([H:13])[H:14])([H:8])([H:9])[H:10]"
C       -2.04234875       0.13344594       0.27456249
C       -0.64669616       0.17182643      -0.19109843
N        0.40227954      -1.05796304       0.37719156
C        0.52760756       0.34138008       0.71207498
C        1.67080216       0.60860644      -0.27314750
C        0.96600465      -0.43374888      -1.16032371
O        1.15428365      -0.82101828      -2.27524489
H       -2.37209297       1.17863231       0.20639656
H       -2.14102837      -0.20260997       1.31247352
H       -2.69301817      -0.45159231      -0.37566498
H        0.35327619      -2.05142107       0.29494983
H        0.47148171       0.64374017       1.75150892
H        2.67088065       0.34059942       0.06912564
H        1.67856830       1.60012276      -0.72280399
14
Frame=15 idx=008251 GeodesicLength=0.8662677834403233 rxn_smarts="[C:1]([C@:2]12[N:3]([H:11])[C@@:4]1([H:12])[C:5]([H:13])([H:14])[C:6]2=[O:7])([H:8])([H:9])[H:10]>>[C:1]([C:2][C@@:4]1([H:12])[N:3]([H:11])[C:6](=[O:7])[C:5]1([H:13])[H:14])([H:8])([H:9])[H:10]"
C       -2.04591949       0.13568647       0.27389532
C       -0.65128570       0.16569136      -0.19012039
N        0.40841845      -1.06729007       0.39831502
C        0.52433030       0.33577081       0.71297524
C        1.66887924       0.60282927      -0.27223431
C        0.96023141      -0.43446334      -1.16261853
O        1.15003310      -0.80968987      -2.28201831
H       -2.36461714       1.18446480       0.20008106
H       -2.14574760      -0.19398369       1.31330190
H       -2.70174948      -0.44551633      -0.37444460
H        0.38737268      -2.05834419       0.28487906
H        0.46443822       0.65245840       1.74811028
H        2.66886571       0.33773808       0.07151785
H        1.67675029       1.59464828      -0.72163958
14
Frame=16 idx=008251 GeodesicLength=0.9239474084157105 rxn_smarts="[C:1]([C@:2]12[N:3]([H:11])[C@@:4]1([H:12])[C:5]([H:13])([H:14])[C:6]2=[O:7])([H:8])([H:9])[H:10]>>[C:1]([C:2][C@@:4]1([H:12])[N:3]([H:11])[C:6](=[O:7])[C:5]1([H:13])[H:14])([H:8])([H:9])[H:10]"
C       -2.04957174       0.13801963       0.27313839
C       -0.65599045       0.15943943      -0.18920509
N        0.41451561      -1.07681660       0.41946618
C        0.52096806       0.32969768       0.71385170
C        1.66683293       0.59682329      -0.27134332
C        0.95427865      -0.43515268      -1.16513531
O        1.14558383      -0.79821223      -2.28891071
H       -2.35701267       1.19030285       0.19379130
H       -2.15055679      -0.18537303       1.31396440
H       -2.71063813      -0.43909124      -0.37339699
H        0.42265901      -2.06385813       0.27569928
H        0.45739001       0.66059348       1.74450908
H        2.66672222       0.33457038       0.07381925
H        1.67481945       1.58905717      -0.72024816
