11
Frame=0 idx=001611 GeodesicLength=0.0 rxn_smarts="[N:1]([C:2](=[O:3])[C:4]([C:5](=[O:6])[H:11])([H:9])[H:10])([H:7])[H:8]>>[C:2](=[O:3])=[C:4]([H:9])[H:10].[N:1]([C:5](=[O:6])[H:11])([H:7])[H:8]"
N       -0.85980734      -0.37745764      -0.51207796
C       -0.61992761       0.69661701       0.57833747
O       -1.26283725       1.70377707       0.50891816
C        0.62479187       0.29408935       1.08835327
C        0.68303268      -0.37084040      -0.86598128
O        1.22846278      -1.43010486      -1.03849968
H       -1.10803170      -1.30255558      -0.17264334
H       -1.49998108      -0.06750161      -1.23695763
H        0.74435801      -0.73778015       1.39218003
H        1.19143645       1.02284567       1.65473865
H        0.87850318       0.56891117      -1.39636774
11
Frame=1 idx=001611 GeodesicLength=0.1131472374398389 rxn_smarts="[N:1]([C:2](=[O:3])[C:4]([C:5](=[O:6])[H:11])([H:9])[H:10])([H:7])[H:8]>>[C:2](=[O:3])=[C:4]([H:9])[H:10].[N:1]([C:5](=[O:6])[H:11])([H:7])[H:8]"
N       -0.87284615      -0.38151100      -0.52167181
C       -0.62315677       0.70904842       0.58693993
O       -1.25431087       1.72308517       0.52105152
C        0.62223904       0.29548448       1.08815000
C        0.69139281      -0.37291953      -0.87820816
O        1.25505126      -1.42578211      -1.03050046
H       -1.11596826      -1.29883747      -0.16006323
H       -1.52004421      -0.07928495      -1.24256689
H        0.75696127      -0.73782591       1.38033250
H        1.17630067       1.01100639       1.68353680
H        0.88438120       0.55753652      -1.42700018
11
Frame=2 idx=001611 GeodesicLength=0.22625344525284935 rxn_smarts="[N:1]([C:2](=[O:3])[C:4]([C:5](=[O:6])[H:11])([H:9])[H:10])([H:7])[H:8]>>[C:2](=[O:3])=[C:4]([H:9])[H:10].[N:1]([C:5](=[O:6])[H:11])([H:7])[H:8]"
N       -0.88612822      -0.38580594      -0.53133114
C       -0.62645007       0.72178957       0.59599967
O       -1.24533992       1.74279531       0.53330483
C        0.61960463       0.29702566       1.08798648
C        0.70007597      -0.37497648      -0.89054908
O        1.28234868      -1.42051184      -1.02245103
H       -1.12400733      -1.29467959      -0.14731406
H       -1.54043854      -0.09162697      -1.24813077
H        0.76940091      -0.73742178       1.36845073
H        1.16073493       0.99799290       1.71242303
H        0.89019897       0.54541915      -1.45838867
11
Frame=3 idx=001611 GeodesicLength=0.33931968676092494 rxn_smarts="[N:1]([C:2](=[O:3])[C:4]([C:5](=[O:6])[H:11])([H:9])[H:10])([H:7])[H:8]>>[C:2](=[O:3])=[C:4]([H:9])[H:10].[N:1]([C:5](=[O:6])[H:11])([H:7])[H:8]"
N       -0.89966003      -0.39035129      -0.54105736
C       -0.62981854       0.73484928       0.60555920
O       -1.23590771       1.76291647       0.54570933
C        0.61687042       0.29871342       1.08788310
C        0.70910682      -0.37699749      -0.90299319
O        1.31037784      -1.41423482      -1.01433551
H       -1.13216544      -1.29005550      -0.13441716
H       -1.56115569      -0.10454741      -1.25365350
H        0.78164511      -0.73657361       1.35654358
H        1.14474349       0.98377826       1.74129492
H        0.89596373       0.53250270      -1.49053339
11
Frame=4 idx=001611 GeodesicLength=0.4523459711912766 rxn_smarts="[N:1]([C:2](=[O:3])[C:4]([C:5](=[O:6])[H:11])([H:9])[H:10])([H:7])[H:8]>>[C:2](=[O:3])=[C:4]([H:9])[H:10].[N:1]([C:5](=[O:6])[H:11])([H:7])[H:8]"
N       -0.91345008      -0.39515177      -0.55085568
C       -0.63327655       0.74823470       0.61566552
O       -1.22599591       1.78345595       0.55830663
C        0.61401629       0.30054142       1.08785923
C        0.71850854      -0.37897183      -0.91552980
O        1.33916612      -1.40688325      -1.00612993
H       -1.14046217      -1.28493839      -0.12139854
H       -1.58218840      -0.11806775      -1.25914337
H        0.79365497      -0.73529289       1.34461933
H        1.12834245       0.96834970       1.77004354
H        0.90168473       0.51872409      -1.52343695
11
Frame=5 idx=001611 GeodesicLength=0.5653463509579207 rxn_smarts="[N:1]([C:2](=[O:3])[C:4]([C:5](=[O:6])[H:11])([H:9])[H:10])([H:7])[H:8]>>[C:2](=[O:3])=[C:4]([H:9])[H:10].[N:1]([C:5](=[O:6])[H:11])([H:7])[H:8]"
N       -0.92750780      -0.40022266      -0.56072959
C       -0.63683518       0.76195741       0.62637155
O       -1.21559517       1.80441822       0.57114724
C        0.61101712       0.30251160       1.08794957
C        0.72830888      -0.38088607      -0.92814324
O        1.36873990      -1.39839267      -0.99780832
H       -1.14891333      -1.27929903      -0.10828545
H       -1.60352827      -0.13219859      -1.26460774
H        0.80538888      -0.73358912       1.33269348
H        1.11154167       0.95167474       1.79849035
H        0.90738330       0.50402617      -1.55707784
11
Frame=6 idx=001611 GeodesicLength=0.6783193765050392 rxn_smarts="[N:1]([C:2](=[O:3])[C:4]([C:5](=[O:6])[H:11])([H:9])[H:10])([H:7])[H:8]>>[C:2](=[O:3])=[C:4]([H:9])[H:10].[N:1]([C:5](=[O:6])[H:11])([H:7])[H:8]"
N       -0.94184530      -0.40557032      -0.57069157
C       -0.64051074       0.77602723       0.63772439
O       -1.20469419       1.82580292       0.58429142
C        0.60784435       0.30460830       1.08816510
C        0.73853236      -0.38272527      -0.94082204
O        1.39912529      -1.38866938      -0.98934523
H       -1.15755290      -1.27310666      -0.09511190
H       -1.62516771      -0.14696179      -1.27006391
H        0.81680549      -0.73148155       1.32076836
H        1.09438961       0.93377316       1.82655494
H        0.91307374       0.48830335      -1.59146957
11
Frame=7 idx=001611 GeodesicLength=0.7912736948890928 rxn_smarts="[N:1]([C:2](=[O:3])[C:4]([C:5](=[O:6])[H:11])([H:9])[H:10])([H:7])[H:8]>>[C:2](=[O:3])=[C:4]([H:9])[H:10].[N:1]([C:5](=[O:6])[H:11])([H:7])[H:8]"
N       -0.95647682      -0.41119654      -0.58074979
C       -0.64431513       0.79045345       0.64978961
O       -1.19328966       1.84760456       0.59781070
C        0.60446528       0.30682511       1.08854012
C        0.74920924      -0.38447496      -0.95355084
O        1.43034219      -1.37763274      -0.98071792
H       -1.16640372      -1.26632586      -0.08191427
H       -1.64709609      -0.16237372      -1.27553166
H        0.82786108      -0.72898620       1.30885739
H        1.07691672       0.91464520       1.85406110
H        0.91878691       0.47146171      -1.62659444
11
Frame=8 idx=001611 GeodesicLength=0.9042234485048042 rxn_smarts="[N:1]([C:2](=[O:3])[C:4]([C:5](=[O:6])[H:11])([H:9])[H:10])([H:7])[H:8]>>[C:2](=[O:3])=[C:4]([H:9])[H:10].[N:1]([C:5](=[O:6])[H:11])([H:7])[H:8]"
N       -0.97141882      -0.41711964      -0.59092509
C       -0.64826900       0.80524594       0.66262459
O       -1.18138176       1.86981297       0.61179143
C        0.60083874       0.30913880       1.08909099
C        0.76036745      -0.38611856      -0.96631443
O        1.46241112      -1.36517661      -0.97189935
H       -1.17551132      -1.25892015      -0.06873860
H       -1.66930540      -0.17844760      -1.28103954
H        0.83850956      -0.72612808       1.29696278
H        1.05920379       0.89433939       1.88089592
H        0.92455564       0.45337354      -1.66244871
11
Frame=9 idx=001611 GeodesicLength=1.0173259088541347 rxn_smarts="[N:1]([C:2](=[O:3])[C:4]([C:5](=[O:6])[H:11])([H:9])[H:10])([H:7])[H:8]>>[C:2](=[O:3])=[C:4]([H:9])[H:10].[N:1]([C:5](=[O:6])[H:11])([H:7])[H:8]"
N       -0.98667922      -0.42333545      -0.60128265
C       -0.65235169       0.82042000       0.67636754
O       -1.16890388       1.89243322       0.62631967
C        0.59699495       0.31154387       1.08978512
C        0.77207943      -0.38758127      -0.97915766
O        1.49528519      -1.35120327      -0.96285741
H       -1.18485604      -1.25082181      -0.05557322
H       -1.69179955      -0.19522567      -1.28665124
H        0.84876284      -0.72293078       1.28502899
H        1.04113166       0.87290541       1.90717222
H        0.93033632       0.43379574      -1.69915136
11
Frame=10 idx=001611 GeodesicLength=1.1304265784626213 rxn_smarts="[N:1]([C:2](=[O:3])[C:4]([C:5](=[O:6])[H:11])([H:9])[H:10])([H:7])[H:8]>>[C:2](=[O:3])=[C:4]([H:9])[H:10].[N:1]([C:5](=[O:6])[H:11])([H:7])[H:8]"
N       -1.00228592      -0.42986410      -0.61180441
C       -0.65660807       0.83598158       0.69101709
O       -1.15592499       1.91543501       0.64150639
C        0.59282723       0.31400770       1.09068881
C        0.78433292      -0.38889333      -0.99201571
O        1.52903879      -1.33558213      -0.95357577
H       -1.19453829      -1.24200607      -0.04252501
H       -1.71456222      -0.21270060      -1.29236961
H        0.85853055      -0.71941288       1.27310770
H        1.02294854       0.85038000       1.93254171
H        0.93624145       0.41265483      -1.73657117
11
Frame=11 idx=001611 GeodesicLength=1.2435121208921682 rxn_smarts="[N:1]([C:2](=[O:3])[C:4]([C:5](=[O:6])[H:11])([H:9])[H:10])([H:7])[H:8]>>[C:2](=[O:3])=[C:4]([H:9])[H:10].[N:1]([C:5](=[O:6])[H:11])([H:7])[H:8]"
N       -1.01825865      -0.43670143      -0.62251750
C       -0.66104485       0.85193078       0.70664794
O       -1.14245495       1.93879217       0.65746284
C        0.58829596       0.31650266       1.09182091
C        0.79716572      -0.39003826      -1.00488620
O        1.56366658      -1.31821981      -0.94402680
H       -1.20460252      -1.23243261      -0.02964328
H       -1.73758567      -0.23088289      -1.29823834
H        0.86777629      -0.71560344       1.26119874
H        1.00472948       0.82684278       1.95686049
H        0.94231260       0.38981007      -1.77467881
11
Frame=12 idx=001611 GeodesicLength=1.356582524779102 rxn_smarts="[N:1]([C:2](=[O:3])[C:4]([C:5](=[O:6])[H:11])([H:9])[H:10])([H:7])[H:8]>>[C:2](=[O:3])=[C:4]([H:9])[H:10].[N:1]([C:5](=[O:6])[H:11])([H:7])[H:8]"
N       -1.03461836      -0.44386155      -0.63347017
C       -0.66567444       0.86827319       0.72333545
O       -1.12850290       1.96248055       0.67430993
C        0.58335756       0.31899499       1.09317141
C        0.81061068      -0.39098942      -1.01777211
O        1.59915877      -1.29900007      -0.93417948
H       -1.21510468      -1.22205250      -0.01698854
H       -1.76086851      -0.24978990      -1.30431460
H        0.87646775      -0.71153210       1.24927872
H        0.98659235       0.80240353       1.98008976
H        0.94858178       0.36507328      -1.81346037
11
Frame=13 idx=001611 GeodesicLength=1.4696094517405163 rxn_smarts="[N:1]([C:2](=[O:3])[C:4]([C:5](=[O:6])[H:11])([H:9])[H:10])([H:7])[H:8]>>[C:2](=[O:3])=[C:4]([H:9])[H:10].[N:1]([C:5](=[O:6])[H:11])([H:7])[H:8]"
N       -1.05138678      -0.45134282      -0.64469966
C       -0.67050371       0.88500762       0.74116047
O       -1.11409480       1.98646381       0.69217301
C        0.57797171       0.32146337       1.09473554
C        0.82470974      -0.39173096      -1.03068115
O        1.63547603      -1.27782618      -0.92402798
H       -1.22609120      -1.21081387      -0.00461713
H       -1.78440547      -0.26943605      -1.31065018
H        0.88457950      -0.70721350       1.23732756
H        0.96863510       0.77716276       2.00213858
H        0.95510989       0.33826580      -1.85285907
11
Frame=14 idx=001611 GeodesicLength=1.5826094387811291 rxn_smarts="[N:1]([C:2](=[O:3])[C:4]([C:5](=[O:6])[H:11])([H:9])[H:10])([H:7])[H:8]>>[C:2](=[O:3])=[C:4]([H:9])[H:10].[N:1]([C:5](=[O:6])[H:11])([H:7])[H:8]"
N       -1.06860055      -0.45914844      -0.65625674
C       -0.67554024       0.90213796       0.76022587
O       -1.09921985       2.01072157       0.71120245
C        0.57209576       0.32387354       1.09650053
C        0.83948903      -0.39222626      -1.04362531
O        1.67263075      -1.25449497      -0.91355175
H       -1.23763179      -1.19864603       0.00740053
H       -1.80820996      -0.28985033      -1.31731105
H        0.89207998      -0.70267182       1.22530940
H        0.95095840       0.75121731       2.02297912
H        0.96194847       0.30908746      -1.89287305
11
Frame=15 idx=001611 GeodesicLength=1.6955651757849322 rxn_smarts="[N:1]([C:2](=[O:3])[C:4]([C:5](=[O:6])[H:11])([H:9])[H:10])([H:7])[H:8]>>[C:2](=[O:3])=[C:4]([H:9])[H:10].[N:1]([C:5](=[O:6])[H:11])([H:7])[H:8]"
N       -1.08629073      -0.46727570      -0.66818889
C       -0.68079230       0.91966355       0.78064074
O       -1.08390997       2.03521392       0.73155949
C        0.56568701       0.32620489       1.09845133
C        0.85498342      -0.39243803      -1.05662216
O        1.71058118      -1.22882800      -0.90275990
H       -1.24978801      -1.18547075       0.01899156
H       -1.83228632      -0.31104831      -1.32435662
H        0.89895075      -0.69791307       1.21318494
H        0.93367084       0.72466216       2.04253536
H        0.96919414       0.27722935      -1.93343586
11
Frame=16 idx=001611 GeodesicLength=1.8085055033015802 rxn_smarts="[N:1]([C:2](=[O:3])[C:4]([C:5](=[O:6])[H:11])([H:9])[H:10])([H:7])[H:8]>>[C:2](=[O:3])=[C:4]([H:9])[H:10].[N:1]([C:5](=[O:6])[H:11])([H:7])[H:8]"
N       -1.10450088      -0.47573025      -0.68055678
C       -0.68626103       0.93759337       0.80253079
O       -1.06816673       2.05991774       0.75341883
C        0.55870813       0.32843062       1.10056997
C        0.87122149      -0.39230766      -1.06970272
O        1.74931114      -1.20056532      -0.89166562
H       -1.26263266      -1.17119144       0.03006501
H       -1.85665412      -0.33305909      -1.33185867
H        0.90518024      -0.69294696       1.20090356
H        0.91686889       0.69758206       2.06081079
H        0.97692554       0.24227693      -1.97451516
