14
Frame=0 idx=002450 GeodesicLength=0.0 rxn_smarts="[C:1]([C:2]([N:3]([C:4]([C:5]#[N:6])([H:13])[H:14])[H:12])([H:10])[H:11])([H:7])([H:8])[H:9]>>[C:1]([C-:2]([N+:3]([C:4]([C:5]#[N:6])([H:13])[H:14])([H:11])[H:12])[H:10])([H:7])([H:8])[H:9]"
C        1.99986417       0.04280374       0.41276518
C        0.72394009       0.80391683       0.17396799
N       -0.19743686      -0.13774895      -0.77300860
C       -1.61795738       0.04082061      -0.58484046
C       -2.09047760      -0.56607413       0.66642288
N       -2.46192317      -1.06860976       1.62730285
H        2.55918899      -0.13492419      -0.51164204
H        1.86904457      -0.92775155       0.91994029
H        2.64665298       0.65344633       1.04546325
H        0.14685669       0.92676031       1.09315481
H        0.29878918       0.72663466      -1.23159892
H        0.11612242      -1.09754086      -0.87759214
H       -2.18667745      -0.37947183      -1.41620917
H       -1.80598661       1.11773880      -0.54412594
14
Frame=1 idx=002450 GeodesicLength=0.054141184650462644 rxn_smarts="[C:1]([C:2]([N:3]([C:4]([C:5]#[N:6])([H:13])[H:14])[H:12])([H:10])[H:11])([H:7])([H:8])[H:9]>>[C:1]([C-:2]([N+:3]([C:4]([C:5]#[N:6])([H:13])[H:14])([H:11])[H:12])[H:10])([H:7])([H:8])[H:9]"
C        2.00449968       0.04578211       0.40714947
C        0.71750880       0.79249180       0.18004117
N       -0.19612730      -0.14141122      -0.76548503
C       -1.61832328       0.04003220      -0.58652245
C       -2.09906408      -0.56067733       0.66466634
N       -2.47958508      -1.05416555       1.62671547
H        2.56206280      -0.11797967      -0.52082303
H        1.88591184      -0.93089827       0.90530424
H        2.64661511       0.65781721       1.04315531
H        0.14784871       0.90702160       1.10518578
H        0.30657657       0.73460104      -1.22738155
H        0.11016157      -1.10496508      -0.86026662
H       -2.18162712      -0.38469062      -1.41929302
H       -1.80645821       1.11704177      -0.55244608
14
Frame=2 idx=002450 GeodesicLength=0.10819934728522915 rxn_smarts="[C:1]([C:2]([N:3]([C:4]([C:5]#[N:6])([H:13])[H:14])[H:12])([H:10])[H:11])([H:7])([H:8])[H:9]>>[C:1]([C-:2]([N+:3]([C:4]([C:5]#[N:6])([H:13])[H:14])([H:11])[H:12])[H:10])([H:7])([H:8])[H:9]"
C        2.00885157       0.04868897       0.40162847
C        0.71124298       0.78107325       0.18585501
N       -0.19480939      -0.14512400      -0.75818356
C       -1.61858986       0.03914825      -0.58817596
C       -2.10727826      -0.55527891       0.66300943
N       -2.49660972      -1.03972681       1.62616026
H        2.56463957      -0.10122136      -0.52967232
H        1.90219525      -0.93387845       0.89062792
H        2.64631736       0.66186158       1.04110903
H        0.14895405       0.88748014       1.11673808
H        0.31432727       0.74313556      -1.22300594
H        0.10420028      -1.11227703      -0.84315942
H       -2.17662176      -0.39009261      -1.42214483
H       -1.80681935       1.11621143      -0.56078618
14
Frame=3 idx=002450 GeodesicLength=0.16216948203769146 rxn_smarts="[C:1]([C:2]([N:3]([C:4]([C:5]#[N:6])([H:13])[H:14])[H:12])([H:10])[H:11])([H:7])([H:8])[H:9]>>[C:1]([C-:2]([N+:3]([C:4]([C:5]#[N:6])([H:13])[H:14])([H:11])[H:12])[H:10])([H:7])([H:8])[H:9]"
C        2.01290318       0.05150155       0.39622385
C        0.70514815       0.76969922       0.19136371
N       -0.19348353      -0.14886823      -0.75112463
C       -1.61876102       0.03817875      -0.58979809
C       -2.11509360      -0.54988325       0.66146483
N       -2.51288701      -1.02540630       1.62563866
H        2.56692256      -0.08475543      -0.53815138
H        1.91781466      -0.93668765       0.87600026
H        2.64576421       0.66556198       1.03931924
H        0.15016270       0.86825463       1.12775827
H        0.32203716       0.75226829      -1.21849497
H        0.09824027      -1.11945638      -0.82631466
H       -2.17168139      -0.39566132      -1.42475648
H       -1.80708634       1.11525414      -0.56912863
14
Frame=4 idx=002450 GeodesicLength=0.21604895177677022 rxn_smarts="[C:1]([C:2]([N:3]([C:4]([C:5]#[N:6])([H:13])[H:14])[H:12])([H:10])[H:11])([H:7])([H:8])[H:9]>>[C:1]([C-:2]([N+:3]([C:4]([C:5]#[N:6])([H:13])[H:14])([H:11])[H:12])[H:10])([H:7])([H:8])[H:9]"
C        2.01664138       0.05419750       0.39095590
C        0.69923017       0.75841001       0.19652229
N       -0.19215182      -0.15262516      -0.74432553
C       -1.61884289       0.03713754      -0.59138581
C       -2.12248972      -0.54449186       0.66004544
N       -2.52831578      -1.01133934       1.62514600
H        2.56891691      -0.06869943      -0.54622749
H        1.93269462      -0.93931934       0.86152289
H        2.64496648       0.66891046       1.03776802
H        0.15146509       0.84947140       1.13819623
H        0.32970770       0.76202418      -1.21387071
H        0.09228158      -1.12648428      -0.80977024
H       -2.16682833      -0.40137286      -1.42712297
H       -1.80727539       1.11418117      -0.57745401
14
Frame=5 idx=002450 GeodesicLength=0.2697926715178832 rxn_smarts="[C:1]([C:2]([N:3]([C:4]([C:5]#[N:6])([H:13])[H:14])[H:12])([H:10])[H:11])([H:7])([H:8])[H:9]>>[C:1]([C-:2]([N+:3]([C:4]([C:5]#[N:6])([H:13])[H:14])([H:11])[H:12])[H:10])([H:7])([H:8])[H:9]"
C        2.02006636       0.05676401       0.38583203
C        0.69348544       0.74723876       0.20130295
N       -0.19081384      -0.15638427      -0.73778977
C       -1.61883750       0.03604481      -0.59293642
C       -2.12946142      -0.53909330       0.65875446
N       -2.54284381      -0.99766215       1.62465410
H        2.57063190      -0.05315973      -0.55389424
H        1.94679632      -0.94176319       0.84729664
H        2.64395135       0.67192554       1.03640869
H        0.15284470       0.83122133       1.14802690
H        0.33732884       0.77240352      -1.20914009
H        0.08631643      -1.13335765      -0.79352787
H       -2.16207164      -0.40718919      -1.42924445
H       -1.80739312       1.11301150      -0.58574292
14
Frame=6 idx=002450 GeodesicLength=0.3234888428014961 rxn_smarts="[C:1]([C:2]([N:3]([C:4]([C:5]#[N:6])([H:13])[H:14])[H:12])([H:10])[H:11])([H:7])([H:8])[H:9]>>[C:1]([C-:2]([N+:3]([C:4]([C:5]#[N:6])([H:13])[H:14])([H:11])[H:12])[H:10])([H:7])([H:8])[H:9]"
C        2.02321747       0.05921616       0.38082731
C        0.68790236       0.73615615       0.20575116
N       -0.18946829      -0.16018285      -0.73148502
C       -1.61875362       0.03487524      -0.59446489
C       -2.13607026      -0.53369040       0.65757492
N       -2.55661870      -0.98422141       1.62419981
H        2.57210212      -0.03800320      -0.56120565
H        1.96023116      -0.94406279       0.83321480
H        2.64273155       0.67461394       1.03525086
H        0.15430438       0.81340964       1.15732272
H        0.34490486       0.78342808      -1.20424333
H        0.08035205      -1.14011035      -0.77755032
H       -2.15739842      -0.41314994      -1.43115310
H       -1.80743666       1.11172173      -0.59403927
14
Frame=7 idx=002450 GeodesicLength=0.3771007719517173 rxn_smarts="[C:1]([C:2]([N:3]([C:4]([C:5]#[N:6])([H:13])[H:14])[H:12])([H:10])[H:11])([H:7])([H:8])[H:9]>>[C:1]([C-:2]([N+:3]([C:4]([C:5]#[N:6])([H:13])[H:14])([H:11])[H:12])[H:10])([H:7])([H:8])[H:9]"
C        2.02608947       0.06154464       0.37594947
C        0.68246756       0.72518958       0.20983974
N       -0.18812272      -0.16400523      -0.72541095
C       -1.61859751       0.03365890      -0.59596875
C       -2.14231531      -0.52825887       0.65650427
N       -2.56955296      -0.97116508       1.62375591
H        2.57333491      -0.02332725      -0.56815348
H        1.97296409      -0.94620508       0.81937779
H        2.64132367       0.67699603       1.03425381
H        0.15582223       0.79610671       1.16605659
H        0.35244961       0.79507261      -1.19920529
H        0.07437051      -1.14673981      -0.76182723
H       -2.15281779      -0.41920673      -1.43284446
H       -1.80741574       1.11033959      -0.60232741
14
Frame=8 idx=002450 GeodesicLength=0.43061844929074045 rxn_smarts="[C:1]([C:2]([N:3]([C:4]([C:5]#[N:6])([H:13])[H:14])[H:12])([H:10])[H:11])([H:7])([H:8])[H:9]>>[C:1]([C-:2]([N+:3]([C:4]([C:5]#[N:6])([H:13])[H:14])([H:11])[H:12])[H:10])([H:7])([H:8])[H:9]"
C        2.02872298       0.06376314       0.37117021
C        0.67717157       0.71431958       0.21361508
N       -0.18676917      -0.16788281      -0.71954586
C       -1.61837223       0.03236918      -0.59746541
C       -2.14824727      -0.52280512       0.65552474
N       -2.58180168      -0.95834887       1.62334760
H        2.57436234      -0.00902751      -0.57479536
H        1.98509940      -0.94822487       0.80569488
H        2.63975284       0.67908046       1.03340917
H        0.15739702       0.77922957       1.17430503
H        0.35994268       0.80735761      -1.19393730
H        0.06838116      -1.15326931      -0.74632313
H       -2.14831351      -0.42540235      -1.43435140
H       -1.80732612       1.10884131      -0.61064826
14
Frame=9 idx=002450 GeodesicLength=0.4841151858469242 rxn_smarts="[C:1]([C:2]([N:3]([C:4]([C:5]#[N:6])([H:13])[H:14])[H:12])([H:10])[H:11])([H:7])([H:8])[H:9]>>[C:1]([C-:2]([N+:3]([C:4]([C:5]#[N:6])([H:13])[H:14])([H:11])[H:12])[H:10])([H:7])([H:8])[H:9]"
C        2.03116050       0.06589799       0.36645632
C        0.67199916       0.70350312       0.21712973
N       -0.18540462      -0.17185572      -0.71384552
C       -1.61807844       0.03098429      -0.59896315
C       -2.15391889      -0.51732321       0.65461561
N       -2.59355426      -0.94561405       1.62297008
H        2.57520380       0.00503327      -0.58119406
H        1.99676926      -0.95014265       0.79205663
H        2.63804455       0.68088780       1.03270675
H        0.15903461       0.76264373       1.18214105
H        0.36738035       0.82029276      -1.18837563
H        0.06238520      -1.15974777      -0.73096894
H       -2.14386202      -0.43176376      -1.43569307
H       -1.80715918       1.10720420      -0.61903578
14
Frame=10 idx=002450 GeodesicLength=0.5375826936008532 rxn_smarts="[C:1]([C:2]([N:3]([C:4]([C:5]#[N:6])([H:13])[H:14])[H:12])([H:10])[H:11])([H:7])([H:8])[H:9]>>[C:1]([C-:2]([N+:3]([C:4]([C:5]#[N:6])([H:13])[H:14])([H:11])[H:12])[H:10])([H:7])([H:8])[H:9]"
C        2.03343842       0.06797196       0.36177439
C        0.66693077       0.69270066       0.22043800
N       -0.18402403      -0.17596069      -0.70828182
C       -1.61771513       0.02948152      -0.60047793
C       -2.15938211      -0.51181181       0.65374923
N       -2.60496333      -0.93278466       1.62263358
H        2.57587568       0.01899405      -0.58740954
H        2.00809993      -0.95197943       0.77835339
H        2.63621652       0.68243099       1.03213656
H        0.16073286       0.74621002       1.18964508
H        0.37475140       0.83387671      -1.18243006
H        0.05638122      -1.16621102      -0.71570234
H       -2.13943896      -0.43832399      -1.43689394
H       -1.80690323       1.10540569      -0.62753461
14
Frame=11 idx=002450 GeodesicLength=0.5910110597520353 rxn_smarts="[C:1]([C:2]([N:3]([C:4]([C:5]#[N:6])([H:13])[H:14])[H:12])([H:10])[H:11])([H:7])([H:8])[H:9]>>[C:1]([C-:2]([N+:3]([C:4]([C:5]#[N:6])([H:13])[H:14])([H:11])[H:12])[H:10])([H:7])([H:8])[H:9]"
C        2.03554928       0.06997086       0.35713578
C        0.66197598       0.68194519       0.22350047
N       -0.18263025      -0.18018810      -0.70285857
C       -1.61728379       0.02788369      -0.60199988
C       -2.16462081      -0.50625566       0.65293974
N       -2.61597374      -0.92003588       1.62229000
H        2.57637036       0.03271911      -0.59342759
H        2.01903250      -0.95371216       0.76469770
H        2.63429056       0.68373454       1.03164781
H        0.16249185       0.73004254       1.19677238
H        0.38205662       0.84811916      -1.17611122
H        0.05036246      -1.17265011      -0.70052816
H       -2.13506342      -0.44504149      -1.43794434
H       -1.80655761       1.10346831      -0.63611413
14
Frame=12 idx=002450 GeodesicLength=0.6444167422761066 rxn_smarts="[C:1]([C:2]([N:3]([C:4]([C:5]#[N:6])([H:13])[H:14])[H:12])([H:10])[H:11])([H:7])([H:8])[H:9]>>[C:1]([C-:2]([N+:3]([C:4]([C:5]#[N:6])([H:13])[H:14])([H:11])[H:12])[H:10])([H:7])([H:8])[H:9]"
C        2.03752360       0.07191375       0.35251214
C        0.65712152       0.67120107       0.22636280
N       -0.18121834      -0.18457074      -0.69755136
C       -1.61678355       0.02616243      -0.60354270
C       -2.16967317      -0.50066123       0.65216483
N       -2.62672245      -0.90718585       1.62195515
H        2.57670185       0.04633920      -0.59929626
H        2.02966988      -0.95536255       0.75097917
H        2.63227972       0.68479794       1.03124638
H        0.16431527       0.71402148       1.20358800
H        0.38928207       0.86303783      -1.16933383
H        0.04433385      -1.17909689      -0.68540572
H       -2.13071466      -0.45195879      -1.43886288
H       -1.80611559       1.10136236      -0.64481572
14
Frame=13 idx=002450 GeodesicLength=0.6978088477609727 rxn_smarts="[C:1]([C:2]([N:3]([C:4]([C:5]#[N:6])([H:13])[H:14])[H:12])([H:10])[H:11])([H:7])([H:8])[H:9]>>[C:1]([C-:2]([N+:3]([C:4]([C:5]#[N:6])([H:13])[H:14])([H:11])[H:12])[H:10])([H:7])([H:8])[H:9]"
C        2.03938565       0.07381867       0.34787708
C        0.65235416       0.66043151       0.22906523
N       -0.17978243      -0.18914114      -0.69233626
C       -1.61621092       0.02429095      -0.60512074
C       -2.17457385      -0.49501970       0.65140454
N       -2.63731960      -0.89405629       1.62164262
H        2.57687837       0.05999370      -0.60505257
H        2.04010704      -0.95694973       0.73707493
H        2.63018816       0.68560760       1.03094828
H        0.16620770       0.69802589       1.21014741
H        0.39640572       0.87864869      -1.16200953
H        0.03829599      -1.18558382      -0.67028878
H       -2.12636915      -0.45912427      -1.43966248
H       -1.80556686       1.09905793      -0.65368974
14
Frame=14 idx=002450 GeodesicLength=0.7512010886984245 rxn_smarts="[C:1]([C:2]([N:3]([C:4]([C:5]#[N:6])([H:13])[H:14])[H:12])([H:10])[H:11])([H:7])([H:8])[H:9]>>[C:1]([C-:2]([N+:3]([C:4]([C:5]#[N:6])([H:13])[H:14])([H:11])[H:12])[H:10])([H:7])([H:8])[H:9]"
C        2.04115231       0.07569848       0.34320901
C        0.64765947       0.64960184       0.23164841
N       -0.17831693      -0.19392863      -0.68719913
C       -1.61556350       0.02224145      -0.60675372
C       -2.17935637      -0.48932639       0.65063466
N       -2.64782730      -0.88046698       1.62137929
H        2.57690234       0.07380567      -0.61072682
H        2.05042079      -0.95849301       0.72287497
H        2.62801596       0.68614799       1.03076996
H        0.16816872       0.68194047       1.21650417
H        0.40340524       0.89498239      -1.15404392
H        0.03224896      -1.19213736      -0.65514346
H       -2.12200624      -0.46658998      -1.44036022
H       -1.80490345       1.09652407      -0.66279320
14
Frame=15 idx=002450 GeodesicLength=0.8046021625943729 rxn_smarts="[C:1]([C:2]([N:3]([C:4]([C:5]#[N:6])([H:13])[H:14])[H:12])([H:10])[H:11])([H:7])([H:8])[H:9]>>[C:1]([C-:2]([N+:3]([C:4]([C:5]#[N:6])([H:13])[H:14])([H:11])[H:12])[H:10])([H:7])([H:8])[H:9]"
C        2.04284196       0.07757027       0.33848236
C        0.64303064       0.63868347       0.23414083
N       -0.17681500      -0.19896592      -0.68211461
C       -1.61483350       0.01999163      -0.60844786
C       -2.18404410      -0.48356034       0.64984664
N       -2.65835107      -0.86628533       1.62115005
H        2.57676938       0.08788210      -0.61634908
H        2.06068232      -0.95999561       0.70827545
H        2.62577300       0.68640746       1.03071430
H        0.17020898       0.66566959       1.22269819
H        0.41025304       0.91205464      -1.14534653
H        0.02619199      -1.19878796      -0.63992392
H       -2.11760115      -0.47439755      -1.44095628
H       -1.80410648       1.09373354      -0.67216953
14
Frame=16 idx=002450 GeodesicLength=0.8580017153841198 rxn_smarts="[C:1]([C:2]([N:3]([C:4]([C:5]#[N:6])([H:13])[H:14])[H:12])([H:10])[H:11])([H:7])([H:8])[H:9]>>[C:1]([C-:2]([N+:3]([C:4]([C:5]#[N:6])([H:13])[H:14])([H:11])[H:12])[H:10])([H:7])([H:8])[H:9]"
C        2.04443837       0.07941362       0.33371227
C        0.63847687       0.62771002       0.23649768
N       -0.17528198      -0.20423999      -0.67709824
C       -1.61402466       0.01756094      -0.61020062
C       -2.18861571      -0.47771199       0.64904777
N       -2.66878306      -0.85167118       1.62092482
H        2.57646622       0.10208752      -0.62189452
H        2.07081474      -0.96143627       0.69338964
H        2.62347247       0.68639512       1.03074080
H        0.17232689       0.64933631       1.22867630
H        0.41695184       0.92988563      -1.13590636
H        0.02011742      -1.20551960      -0.62464796
H       -2.11317984      -0.48251351      -1.44144298
H       -1.80317957       1.09070338      -0.68179861
