13
Frame=0 idx=006171 GeodesicLength=0.0 rxn_smarts="[C:1]([C@@:2]1([H:10])[C:3]([H:11])([H:12])[C@:4]1([C:5]#[N:6])[H:13])([H:7])([H:8])[H:9]>>[C:1]([C@@:2]1([H:10])[C:3]([H:11])([H:12])[C:4]1=[C:5]=[N:6][H:13])([H:7])([H:8])[H:9]"
C        1.75422255       0.46606915       0.14496050
C        0.50900803      -0.31800235      -0.19061735
C       -0.41434870      -0.81141282       0.90553178
C       -0.81484515       0.29659576       0.02062416
C       -1.89923359       0.73186195      -0.68880952
N       -2.84789948       1.19387955      -1.27779954
H        2.04878162       1.10314818      -0.69068041
H        2.58422490      -0.20657048       0.37215403
H        1.58192362       1.10790443       1.01035326
H        0.61641040      -0.99433242      -1.03565493
H       -0.16794232      -0.55720118       1.93264742
H       -0.86851185      -1.79018549       0.78874310
H       -2.08179009      -0.22175431      -1.29145255
13
Frame=1 idx=006171 GeodesicLength=0.09433502825109061 rxn_smarts="[C:1]([C@@:2]1([H:10])[C:3]([H:11])([H:12])[C@:4]1([C:5]#[N:6])[H:13])([H:7])([H:8])[H:9]>>[C:1]([C@@:2]1([H:10])[C:3]([H:11])([H:12])[C:4]1=[C:5]=[N:6][H:13])([H:7])([H:8])[H:9]"
C        1.74996360       0.46732469       0.14395933
C        0.51658165      -0.33517342      -0.19078599
C       -0.41372535      -0.82024704       0.90239184
C       -0.81401005       0.27060928      -0.00166776
C       -1.87197357       0.77305283      -0.69922319
N       -2.87560154       1.19055833      -1.22378931
H        2.04764668       1.09217516      -0.69979357
H        2.58413280      -0.19222795       0.39295499
H        1.56156624       1.12361163       0.99509411
H        0.63548501      -1.01972802      -1.02733361
H       -0.18111256      -0.54705051       1.92766625
H       -0.86585321      -1.80062314       0.79335356
H       -2.07309969      -0.20228185      -1.31282665
13
Frame=2 idx=006171 GeodesicLength=0.1888282528575957 rxn_smarts="[C:1]([C@@:2]1([H:10])[C:3]([H:11])([H:12])[C@:4]1([C:5]#[N:6])[H:13])([H:7])([H:8])[H:9]>>[C:1]([C@@:2]1([H:10])[C:3]([H:11])([H:12])[C:4]1=[C:5]=[N:6][H:13])([H:7])([H:8])[H:9]"
C        1.74400850       0.46936288       0.14214568
C        0.52339807      -0.35271567      -0.19093486
C       -0.41327927      -0.82983527       0.89948624
C       -0.81480687       0.24198782      -0.02497351
C       -1.84489574       0.81285137      -0.70576364
N       -2.89198991       1.18996788      -1.16999940
H        2.04427138       1.08195058      -0.70970459
H        2.58263863      -0.17579750       0.41282678
H        1.53901581       1.13963122       0.97847494
H        0.65454143      -1.04568312      -1.01840733
H       -0.19505858      -0.53664899       1.92223838
H       -0.86176604      -1.81257897       0.79917137
H       -2.06607741      -0.18249223      -1.33456007
13
Frame=3 idx=006171 GeodesicLength=0.2836146992673686 rxn_smarts="[C:1]([C@@:2]1([H:10])[C:3]([H:11])([H:12])[C@:4]1([C:5]#[N:6])[H:13])([H:7])([H:8])[H:9]>>[C:1]([C@@:2]1([H:10])[C:3]([H:11])([H:12])[C:4]1=[C:5]=[N:6][H:13])([H:7])([H:8])[H:9]"
C        1.73599326       0.47233392       0.13934116
C        0.52918872      -0.37051132      -0.19094803
C       -0.41256178      -0.84063854       0.89712612
C       -0.81733532       0.21036749      -0.04828031
C       -1.81905209       0.84993362      -0.70511050
N       -2.89552139       1.19504380      -1.12238370
H        2.03779995       1.07295347      -0.72041511
H        2.57948285      -0.15702204       0.43093749
H        1.51422184       1.15578322       0.96059325
H        0.67309727      -1.07182910      -1.00890765
H       -0.20878778      -0.52688833       1.91652509
H       -0.85532354      -1.82669420       0.80651769
H       -2.06120199      -0.16283198      -1.35499550
13
Frame=4 idx=006171 GeodesicLength=0.37852579695959904 rxn_smarts="[C:1]([C@@:2]1([H:10])[C:3]([H:11])([H:12])[C@:4]1([C:5]#[N:6])[H:13])([H:7])([H:8])[H:9]>>[C:1]([C@@:2]1([H:10])[C:3]([H:11])([H:12])[C:4]1=[C:5]=[N:6][H:13])([H:7])([H:8])[H:9]"
C        1.72663924       0.47591678       0.13578231
C        0.53430343      -0.38829842      -0.19094973
C       -0.41183763      -0.85211287       0.89518503
C       -0.82135275       0.17640772      -0.07207765
C       -1.79381964       0.88463184      -0.69825160
N       -2.89059829       1.20431342      -1.07952263
H        2.02935564       1.06496219      -0.73173346
H        2.57526224      -0.13666045       0.44758609
H        1.48789824       1.17160437       0.94192545
H        0.69176964      -1.09807140      -0.99882278
H       -0.22274927      -0.51744861       1.91059793
H       -0.84694629      -1.84230740       0.81534493
H       -2.05792456      -0.14293718      -1.37506390
13
Frame=5 idx=006171 GeodesicLength=0.47383468422476255 rxn_smarts="[C:1]([C@@:2]1([H:10])[C:3]([H:11])([H:12])[C@:4]1([C:5]#[N:6])[H:13])([H:7])([H:8])[H:9]>>[C:1]([C@@:2]1([H:10])[C:3]([H:11])([H:12])[C:4]1=[C:5]=[N:6][H:13])([H:7])([H:8])[H:9]"
C        1.71599794       0.47988403       0.13162962
C        0.53871547      -0.40583091      -0.19103683
C       -0.41131417      -0.86360251       0.89316681
C       -0.82639199       0.14068112      -0.09670433
C       -1.76802213       0.91699640      -0.68592882
N       -2.87896499       1.21606910      -1.03946526
H        2.01923817       1.05760194      -0.74325844
H        2.56955382      -0.11517439       0.46297360
H        1.46035713       1.18688139       0.92262318
H        0.71050968      -1.12431969      -0.98797262
H       -0.23720538      -0.50781277       1.90387401
H       -0.83700654      -1.85855992       0.82512512
H       -2.05546698      -0.12281378      -1.39502604
13
Frame=6 idx=006171 GeodesicLength=0.5692679057550869 rxn_smarts="[C:1]([C@@:2]1([H:10])[C:3]([H:11])([H:12])[C@:4]1([C:5]#[N:6])[H:13])([H:7])([H:8])[H:9]>>[C:1]([C@@:2]1([H:10])[C:3]([H:11])([H:12])[C:4]1=[C:5]=[N:6][H:13])([H:7])([H:8])[H:9]"
C        1.70443556       0.48406441       0.12696920
C        0.54225664      -0.42255212      -0.19128142
C       -0.41110714      -0.87474621       0.89110938
C       -0.83239070       0.10432772      -0.12150034
C       -1.74233311       0.94632159      -0.66736247
N       -2.86178841       1.22991155      -1.00426745
H        2.00780709       1.05114283      -0.75475736
H        2.56268732      -0.09337694       0.47650775
H        1.43245760       1.20111598       0.90333824
H        0.72882233      -1.14978973      -0.97665045
H       -0.25171548      -0.49834692       1.89656726
H       -0.82585827      -1.87489543       0.83566076
H       -2.05327342      -0.10317673      -1.41433310
13
Frame=7 idx=006171 GeodesicLength=0.6647549672061897 rxn_smarts="[C:1]([C@@:2]1([H:10])[C:3]([H:11])([H:12])[C@:4]1([C:5]#[N:6])[H:13])([H:7])([H:8])[H:9]>>[C:1]([C@@:2]1([H:10])[C:3]([H:11])([H:12])[C:4]1=[C:5]=[N:6][H:13])([H:7])([H:8])[H:9]"
C        1.69251786       0.48833037       0.12192631
C        0.54499784      -0.43810693      -0.19176189
C       -0.41147965      -0.88525247       0.88894159
C       -0.83923643       0.06847105      -0.14620329
C       -1.71682766       0.97278548      -0.64371954
N       -2.84085838       1.24467919      -0.97334310
H        1.99592857       1.04558057      -0.76616074
H        2.55513615      -0.07193698       0.48839028
H        1.40492794       1.21423059       0.88439239
H        0.74665281      -1.17401454      -0.96507628
H       -0.26634962      -0.48930368       1.88886046
H       -0.81412334      -1.89086660       0.84665877
H       -2.05128608      -0.08459603      -1.43290495
13
Frame=8 idx=006171 GeodesicLength=0.760514678635142 rxn_smarts="[C:1]([C@@:2]1([H:10])[C:3]([H:11])([H:12])[C@:4]1([C:5]#[N:6])[H:13])([H:7])([H:8])[H:9]>>[C:1]([C@@:2]1([H:10])[C:3]([H:11])([H:12])[C:4]1=[C:5]=[N:6][H:13])([H:7])([H:8])[H:9]"
C        1.68015934       0.49250027       0.11669706
C        0.54662119      -0.45208344      -0.19251365
C       -0.41237346      -0.89461508       0.88641664
C       -0.84651054       0.03425829      -0.17006934
C       -1.69122310       0.99623769      -0.61570906
N       -2.81612505       1.25919279      -0.94699070
H        1.98333703       1.04072949      -0.77699179
H        2.54650245      -0.05134359       0.49841377
H        1.37835890       1.22591780       0.86636939
H        0.76300986      -1.19625807      -0.95366759
H       -0.28040574      -0.48079574       1.88074311
H       -0.80216517      -1.90552957       0.85729960
H       -2.04918571      -0.06821084      -1.44999744
13
Frame=9 idx=006171 GeodesicLength=0.8562870668122754 rxn_smarts="[C:1]([C@@:2]1([H:10])[C:3]([H:11])([H:12])[C@:4]1([C:5]#[N:6])[H:13])([H:7])([H:8])[H:9]>>[C:1]([C@@:2]1([H:10])[C:3]([H:11])([H:12])[C:4]1=[C:5]=[N:6][H:13])([H:7])([H:8])[H:9]"
C        1.66805087       0.49654480       0.11143253
C        0.54720160      -0.46414807      -0.19356827
C       -0.41386645      -0.90284090       0.88364085
C       -0.85418658       0.00301576      -0.19233681
C       -1.66644006       1.01681384      -0.58397100
N       -2.78900853       1.27315289      -0.92618407
H        1.97098283       1.03684609      -0.78714044
H        2.53757120      -0.03228958       0.50657103
H        1.35359331       1.23624362       0.84965326
H        0.77754997      -1.21594487      -0.94287738
H       -0.29358960      -0.47334615       1.87260675
H       -0.79076612      -1.91875727       0.86720810
H       -2.04709244      -0.05529017      -1.46503454
13
Frame=10 idx=006171 GeodesicLength=0.95214641846621 rxn_smarts="[C:1]([C@@:2]1([H:10])[C:3]([H:11])([H:12])[C@:4]1([C:5]#[N:6])[H:13])([H:7])([H:8])[H:9]>>[C:1]([C@@:2]1([H:10])[C:3]([H:11])([H:12])[C:4]1=[C:5]=[N:6][H:13])([H:7])([H:8])[H:9]"
C        1.65619817       0.50045004       0.10624188
C        0.54675461      -0.47430836      -0.19492303
C       -0.41578621      -0.90999481       0.88064528
C       -0.86213774      -0.02488796      -0.21266575
C       -1.64266197       1.03480298      -0.54909152
N       -2.75945040       1.28671961      -0.91117665
H        1.95886901       1.03378011      -0.79655797
H        2.52834853      -0.01481525       0.51313357
H        1.33067499       1.24534490       0.83436974
H        0.79002154      -1.23290400      -0.93304024
H       -0.30549354      -0.46719219       1.86471822
H       -0.77994104      -1.93049189       0.87608459
H       -2.04539595      -0.04650318      -1.47773812
13
Frame=11 idx=006171 GeodesicLength=1.0480059234489263 rxn_smarts="[C:1]([C@@:2]1([H:10])[C:3]([H:11])([H:12])[C@:4]1([C:5]#[N:6])[H:13])([H:7])([H:8])[H:9]>>[C:1]([C@@:2]1([H:10])[C:3]([H:11])([H:12])[C:4]1=[C:5]=[N:6][H:13])([H:7])([H:8])[H:9]"
C        1.64470586       0.50430870       0.10120771
C        0.54539025      -0.48267883      -0.19652534
C       -0.41803030      -0.91633068       0.87754093
C       -0.87032373      -0.04929694      -0.23077174
C       -1.62004369       1.05069239      -0.51178167
N       -2.72712217       1.30040734      -0.90248111
H        1.94695610       1.03180366      -0.80516847
H        2.51911774       0.00112427       0.51809498
H        1.30967095       1.25335352       0.82074764
H        0.80040473      -1.24714691      -0.92441510
H       -0.31596663      -0.46261259       1.85736312
H       -0.76980294      -1.94100672       0.88378658
H       -2.04495617      -0.04261721      -1.48759753
13
Frame=12 idx=006171 GeodesicLength=1.1438265467038315 rxn_smarts="[C:1]([C@@:2]1([H:10])[C:3]([H:11])([H:12])[C@:4]1([C:5]#[N:6])[H:13])([H:7])([H:8])[H:9]>>[C:1]([C@@:2]1([H:10])[C:3]([H:11])([H:12])[C:4]1=[C:5]=[N:6][H:13])([H:7])([H:8])[H:9]"
C        1.63350913       0.50822682       0.09637807
C        0.54322313      -0.48944150      -0.19837732
C       -0.42046538      -0.92211156       0.87432975
C       -0.87875904      -0.07046408      -0.24674683
C       -1.59868976       1.06476149      -0.47221183
N       -2.69123535       1.31496442      -0.90033522
H        1.93521648       1.03089052      -0.81301263
H        2.50990480       0.01582131       0.52180502
H        1.29028096       1.26054003       0.80867003
H        0.80887585      -1.25884347      -0.91710053
H       -0.32495685      -0.45974216       1.85061802
H       -0.76015265      -1.95063469       0.89023613
H       -2.04675133      -0.04396714      -1.49425265
13
Frame=13 idx=006171 GeodesicLength=1.2398680620269333 rxn_smarts="[C:1]([C@@:2]1([H:10])[C:3]([H:11])([H:12])[C@:4]1([C:5]#[N:6])[H:13])([H:7])([H:8])[H:9]>>[C:1]([C@@:2]1([H:10])[C:3]([H:11])([H:12])[C:4]1=[C:5]=[N:6][H:13])([H:7])([H:8])[H:9]"
C        1.62230963       0.51228926       0.09180840
C        0.54017057      -0.49464264      -0.20047925
C       -0.42284340      -0.92746164       0.87097064
C       -0.88747188      -0.08857131      -0.26049659
C       -1.57882543       1.07685667      -0.42986747
N       -2.65004931       1.33116495      -0.90571232
H        1.92318443       1.03102009      -0.82001921
H        2.50046690       0.02956786       0.52436574
H        1.27221254       1.26694728       0.79817880
H        0.81518136      -1.26786722      -0.91129380
H       -0.33206893      -0.45871270       1.84448848
H       -0.75079256      -1.95940014       0.89519899
H       -2.05147392      -0.05119046      -1.49714243
13
Frame=14 idx=006171 GeodesicLength=1.3360026457759928 rxn_smarts="[C:1]([C@@:2]1([H:10])[C:3]([H:11])([H:12])[C@:4]1([C:5]#[N:6])[H:13])([H:7])([H:8])[H:9]>>[C:1]([C@@:2]1([H:10])[C:3]([H:11])([H:12])[C:4]1=[C:5]=[N:6][H:13])([H:7])([H:8])[H:9]"
C        1.61109377       0.51681493       0.08744217
C        0.53640376      -0.49850984      -0.20282958
C       -0.42517946      -0.93297030       0.86764571
C       -0.89670378      -0.10400557      -0.27198329
C       -1.56103153       1.08729803      -0.38458845
N       -2.60124205       1.35039777      -0.92019391
H        1.91078809       1.03281867      -0.82634606
H        2.49111179       0.04274448       0.52568894
H        1.25507382       1.27293161       0.78933898
H        0.81978685      -1.27446607      -0.90722042
H       -0.33755699      -0.46001512       1.83927331
H       -0.74152164      -1.96823207       0.89884292
H       -2.06102263      -0.06480651      -1.49507033
13
Frame=15 idx=006171 GeodesicLength=1.4324954387692546 rxn_smarts="[C:1]([C@@:2]1([H:10])[C:3]([H:11])([H:12])[C@:4]1([C:5]#[N:6])[H:13])([H:7])([H:8])[H:9]>>[C:1]([C@@:2]1([H:10])[C:3]([H:11])([H:12])[C:4]1=[C:5]=[N:6][H:13])([H:7])([H:8])[H:9]"
C        1.59912179       0.52207986       0.08327661
C        0.53165547      -0.50107168      -0.20540354
C       -0.42715302      -0.93901389       0.86440243
C       -0.90670546      -0.11726721      -0.28092054
C       -1.54591211       1.09555395      -0.33541691
N       -2.53939211       1.37376850      -0.94661797
H        1.89670650       1.03674861      -0.83192180
H        2.48136098       0.05599125       0.52547414
H        1.23814255       1.27841426       0.78238555
H        0.82230148      -1.27827503      -0.90523328
H       -0.34090962      -0.46418405       1.83509219
H       -0.73171382      -1.97746031       0.90099875
H       -2.07750263      -0.08528425      -1.48611564
13
Frame=16 idx=006171 GeodesicLength=1.5298754026412253 rxn_smarts="[C:1]([C@@:2]1([H:10])[C:3]([H:11])([H:12])[C@:4]1([C:5]#[N:6])[H:13])([H:7])([H:8])[H:9]>>[C:1]([C@@:2]1([H:10])[C:3]([H:11])([H:12])[C:4]1=[C:5]=[N:6][H:13])([H:7])([H:8])[H:9]"
C        1.58588412       0.52848205       0.07918569
C        0.52588617      -0.50249161      -0.20823197
C       -0.42882687      -0.94597091       0.86120454
C       -0.91770299      -0.12882570      -0.28741240
C       -1.53430443       1.10132475      -0.28225525
N       -2.45877026       1.40053409      -0.98552235
H        1.88049283       1.04311849      -0.83696730
H        2.47083803       0.07007857       0.52382122
H        1.22047349       1.28386073       0.77702341
H        0.82285866      -1.27931358      -0.90559802
H       -0.34246771      -0.47144365       1.83188923
H       -0.72127934      -1.98757810       0.90155991
H       -2.10308168      -0.11177512      -1.46869671
