18
Frame=0 idx=008121 GeodesicLength=0.0 rxn_smarts="[C:1]([N:2]([C:3](=[O:4])[C:5]([C:6]([H:13])([H:14])[H:15])([C:7]([H:16])([H:17])[H:18])[H:12])[H:11])([H:8])([H:9])[H:10]>>[C:1]([N:2]([C@@:3]1([O:4][H:15])[C@@:5]([C:7]([H:16])([H:17])[H:18])([H:12])[C:6]1([H:13])[H:14])[H:11])([H:8])([H:9])[H:10]"
C        2.75623430       0.21400450       0.05408797
N        1.41152656       0.34854334      -0.47098420
C        0.30019151       0.09644046       0.18853106
O        0.40300725      -0.00103107       1.50434198
C       -1.00596147      -0.04775538      -0.49593059
C       -1.17195971      -1.48526765      -0.06895733
C       -2.06991834       0.90227562       0.03511781
H        3.22254514       1.19092605       0.18657412
H        3.36000723      -0.38378386      -0.62933117
H        2.70405996      -0.28511101       1.01750211
H        1.30080271       0.56285715      -1.44831081
H       -0.86897746       0.12592410      -1.57390340
H       -0.84199641      -2.21348012      -0.80375614
H       -2.15472696      -1.70883107       0.34274578
H       -0.28886258      -0.70128961       1.65658343
H       -3.01064912       0.68884702      -0.47387888
H       -2.22942973       0.74380474       1.10368536
H       -1.81589293       1.95292679      -0.12411712
18
Frame=1 idx=008121 GeodesicLength=0.12590768637031902 rxn_smarts="[C:1]([N:2]([C:3](=[O:4])[C:5]([C:6]([H:13])([H:14])[H:15])([C:7]([H:16])([H:17])[H:18])[H:12])[H:11])([H:8])([H:9])[H:10]>>[C:1]([N:2]([C@@:3]1([O:4][H:15])[C@@:5]([C:7]([H:16])([H:17])[H:18])([H:12])[C:6]1([H:13])[H:14])[H:11])([H:8])([H:9])[H:10]"
C        2.75164186       0.20194483       0.04714290
N        1.40714618       0.37249065      -0.46602461
C        0.29464932       0.10754912       0.19386045
O        0.38736947       0.00266526       1.50917871
C       -1.00934831      -0.03555451      -0.49703324
C       -1.14933165      -1.47350169      -0.06227969
C       -2.07675948       0.90834092       0.03592215
H        3.24736920       1.16670489       0.16144001
H        3.33198934      -0.42167790      -0.63406156
H        2.69859562      -0.28259494       1.01808847
H        1.29475089       0.58359529      -1.44375862
H       -0.87185337       0.13415214      -1.57467146
H       -0.77072788      -2.21287405      -0.76162744
H       -2.14142298      -1.72644738       0.30650119
H       -0.31506256      -0.72721437       1.65636211
H       -3.01955453       0.68690994      -0.46589761
H       -2.22952311       0.75578513       1.10619533
H       -1.82992803       1.95972667      -0.12933711
18
Frame=2 idx=008121 GeodesicLength=0.25122323135067803 rxn_smarts="[C:1]([N:2]([C:3](=[O:4])[C:5]([C:6]([H:13])([H:14])[H:15])([C:7]([H:16])([H:17])[H:18])[H:12])[H:11])([H:8])([H:9])[H:10]>>[C:1]([N:2]([C@@:3]1([O:4][H:15])[C@@:5]([C:7]([H:16])([H:17])[H:18])([H:12])[C:6]1([H:13])[H:14])[H:11])([H:8])([H:9])[H:10]"
C        2.74678904       0.19015984       0.04015828
N        1.40315645       0.39527786      -0.46077185
C        0.28939221       0.11800415       0.19944123
O        0.37195310       0.00656250       1.51424258
C       -1.01240940      -0.02371529      -0.49798028
C       -1.12712887      -1.46186494      -0.05639526
C       -2.08321203       0.91415648       0.03679267
H        3.27092021       1.14206338       0.13473060
H        3.30293315      -0.45904416      -0.63791426
H        2.69399529      -0.27858454       1.01903189
H        1.28894276       0.60386362      -1.43875896
H       -0.87425533       0.14237362      -1.57521710
H       -0.70233884      -2.21002088      -0.71896617
H       -2.12585123      -1.74444484       0.26914059
H       -0.34208040      -0.75335666       1.65603740
H       -3.02796840       0.68479718      -0.45783849
H       -2.22938086       0.76759574       1.10868636
H       -1.84345687       1.96617696      -0.13441923
18
Frame=3 idx=008121 GeodesicLength=0.3761541588134373 rxn_smarts="[C:1]([N:2]([C:3](=[O:4])[C:5]([C:6]([H:13])([H:14])[H:15])([C:7]([H:16])([H:17])[H:18])[H:12])[H:11])([H:8])([H:9])[H:10]>>[C:1]([N:2]([C@@:3]1([O:4][H:15])[C@@:5]([C:7]([H:16])([H:17])[H:18])([H:12])[C:6]1([H:13])[H:14])[H:11])([H:8])([H:9])[H:10]"
C        2.74172256       0.17872264       0.03317604
N        1.39954993       0.41685741      -0.45533593
C        0.28442321       0.12779234       0.20521727
O        0.35680005       0.01063011       1.51947832
C       -1.01517189      -0.01220965      -0.49877317
C       -1.10535643      -1.45036248      -0.05125464
C       -2.08926098       0.91977151       0.03777164
H        3.29307105       1.11714331       0.10659346
H        3.27304427      -0.49571898      -0.64073699
H        2.69031703      -0.27307838       1.02026866
H        1.28340424       0.62339981      -1.43346397
H       -0.87625812       0.15060971      -1.57555166
H       -0.63695864      -2.20519323      -0.67587612
H       -2.10801706      -1.76267311       0.23070878
H       -0.37001523      -0.77987833       1.65552647
H       -3.03590375       0.68256429      -0.44960796
H       -2.22893356       0.77929999       1.11120869
H       -1.85645669       1.97232304      -0.13934887
18
Frame=4 idx=008121 GeodesicLength=0.5008940732279111 rxn_smarts="[C:1]([N:2]([C:3](=[O:4])[C:5]([C:6]([H:13])([H:14])[H:15])([C:7]([H:16])([H:17])[H:18])[H:12])[H:11])([H:8])([H:9])[H:10]>>[C:1]([N:2]([C@@:3]1([O:4][H:15])[C@@:5]([C:7]([H:16])([H:17])[H:18])([H:12])[C:6]1([H:13])[H:14])[H:11])([H:8])([H:9])[H:10]"
C        2.73650224       0.16767827       0.02621680
N        1.39631252       0.43718850      -0.44982196
C        0.27974590       0.13688535       0.21113951
O        0.34195637       0.01488455       1.52483216
C       -1.01766052      -0.00103141      -0.49941013
C       -1.08403407      -1.43900757      -0.04677051
C       -2.09489074       0.92523333       0.03887523
H        3.31367534       1.09207082       0.07732682
H        3.24261627      -0.53142712      -0.64251756
H        2.68759264      -0.26625970       1.02164610
H        1.27813125       0.64207071      -1.42799653
H       -0.87792845       0.15882968      -1.57568640
H       -0.57471691      -2.19867913      -0.63236897
H       -2.08792232      -1.78099063       0.19127832
H       -0.39899218      -0.80689519       1.65476603
H       -3.04337119       0.68025942      -0.44114311
H       -2.22812306       0.79098605       1.11378944
H       -1.86889308       1.97820406      -0.14415524
18
Frame=5 idx=008121 GeodesicLength=0.6260565317789062 rxn_smarts="[C:1]([N:2]([C:3](=[O:4])[C:5]([C:6]([H:13])([H:14])[H:15])([C:7]([H:16])([H:17])[H:18])[H:12])[H:11])([H:8])([H:9])[H:10]>>[C:1]([N:2]([C@@:3]1([O:4][H:15])[C@@:5]([C:7]([H:16])([H:17])[H:18])([H:12])[C:6]1([H:13])[H:14])[H:11])([H:8])([H:9])[H:10]"
C        2.73116382       0.15700013       0.01929586
N        1.39340446       0.45630658      -0.44427206
C        0.27533785       0.14531856       0.21721713
O        0.32742548       0.01954879       1.53031527
C       -1.01991129       0.00983574      -0.49985150
C       -1.06310438      -1.42781552      -0.04285608
C       -2.10014341       0.93055336       0.04013990
H        3.33281301       1.06676763       0.04695968
H        3.21182084      -0.56614360      -0.64320171
H        2.68581851      -0.25816621       1.02306619
H        1.27308803       0.65976200      -1.42243573
H       -0.87933722       0.16704722      -1.57558906
H       -0.51525995      -2.19060301      -0.58854268
H       -2.06572762      -1.79920179       0.15087695
H       -0.42917769      -0.83459357       1.65362289
H       -3.05041332       0.67788174      -0.43240360
H       -2.22698102       0.80266663       1.11646903
H       -1.88081609       1.98383534      -0.14881048
18
Frame=6 idx=008121 GeodesicLength=0.7513906032724906 rxn_smarts="[C:1]([N:2]([C:3](=[O:4])[C:5]([C:6]([H:13])([H:14])[H:15])([C:7]([H:16])([H:17])[H:18])[H:12])[H:11])([H:8])([H:9])[H:10]>>[C:1]([N:2]([C@@:3]1([O:4][H:15])[C@@:5]([C:7]([H:16])([H:17])[H:18])([H:12])[C:6]1([H:13])[H:14])[H:11])([H:8])([H:9])[H:10]"
C        2.72573874       0.14665590       0.01240027
N        1.39082144       0.47432286      -0.43876490
C        0.27120495       0.15318623       0.22340825
O        0.31326081       0.02465773       1.53587838
C       -1.02192774       0.02042539      -0.50010674
C       -1.04250748      -1.41675418      -0.03941691
C       -2.10504013       0.93574917       0.04155218
H        3.35040827       1.04129550       0.01592883
H        3.18079808      -0.59971520      -0.64294173
H        2.68494881      -0.24922988       1.02433458
H        1.26828032       0.67652050      -1.41686806
H       -0.88051880       0.17524338      -1.57528229
H       -0.45875477      -2.18121252      -0.54430914
H       -2.04117799      -1.81726323       0.10961621
H       -0.46069909      -0.86291153       1.65207528
H       -3.05705720       0.67537562      -0.42334268
H       -2.22547492       0.81442009       1.11923931
H       -1.89230330       1.98923418      -0.15340085
18
Frame=7 idx=008121 GeodesicLength=0.8770338772710191 rxn_smarts="[C:1]([N:2]([C:3](=[O:4])[C:5]([C:6]([H:13])([H:14])[H:15])([C:7]([H:16])([H:17])[H:18])[H:12])[H:11])([H:8])([H:9])[H:10]>>[C:1]([N:2]([C@@:3]1([O:4][H:15])[C@@:5]([C:7]([H:16])([H:17])[H:18])([H:12])[C:6]1([H:13])[H:14])[H:11])([H:8])([H:9])[H:10]"
C        2.72024675       0.13660599       0.00552297
N        1.38855184       0.49133669      -0.43335113
C        0.26734323       0.16058638       0.22969772
O        0.29948079       0.03034594       1.54152221
C       -1.02372379       0.03077130      -0.50015932
C       -1.02215571      -1.40580012      -0.03636694
C       -2.10961899       0.94082520       0.04313043
H        3.36650901       1.01562968      -0.01561658
H        3.14963026      -0.63216360      -0.64177263
H        2.68494073      -0.23961256       1.02535382
H        1.26370220       0.69232112      -1.41136620
H       -0.88151732       0.18342784      -1.57475815
H       -0.40509699      -2.17065325      -0.49968626
H       -2.01417474      -1.83506369       0.06754348
H       -0.49372734      -0.89192701       1.65004050
H       -3.06333538       0.67269589      -0.41391530
H       -2.22361351       0.82626605       1.12212029
H       -1.90344105       1.99440815      -0.15793892
18
Frame=8 idx=008121 GeodesicLength=1.0028645669500325 rxn_smarts="[C:1]([N:2]([C:3](=[O:4])[C:5]([C:6]([H:13])([H:14])[H:15])([C:7]([H:16])([H:17])[H:18])[H:12])[H:11])([H:8])([H:9])[H:10]>>[C:1]([N:2]([C@@:3]1([O:4][H:15])[C@@:5]([C:7]([H:16])([H:17])[H:18])([H:12])[C:6]1([H:13])[H:14])[H:11])([H:8])([H:9])[H:10]"
C        2.71472673       0.12685123      -0.00135325
N        1.38657622       0.50736961      -0.42808129
C        0.26375381       0.16751571       0.23607103
O        0.28613055       0.03663821       1.54723699
C       -1.02531554       0.04085673      -0.49999368
C       -1.00205096      -1.39495734      -0.03358707
C       -2.11387667       0.94580518       0.04486894
H        3.38107542       0.98987462      -0.04740971
H        3.11855005      -0.66331566      -0.63984470
H        2.68576450      -0.22957138       1.02599741
H        1.25932316       0.70718059      -1.40598132
H       -0.88237171       0.19153354      -1.57401242
H       -0.35432091      -2.15909587      -0.45465290
H       -1.98465724      -1.85250437       0.02477076
H       -0.52846341      -0.92168901       1.64743891
H       -3.06925419       0.66984883      -0.40408954
H       -2.22136861       0.83829064       1.12511148
H       -1.91422120       1.99936874      -0.16248964
18
Frame=9 idx=008121 GeodesicLength=1.1296180109176022 rxn_smarts="[C:1]([N:2]([C:3](=[O:4])[C:5]([C:6]([H:13])([H:14])[H:15])([C:7]([H:16])([H:17])[H:18])[H:12])[H:11])([H:8])([H:9])[H:10]>>[C:1]([N:2]([C@@:3]1([O:4][H:15])[C@@:5]([C:7]([H:16])([H:17])[H:18])([H:12])[C:6]1([H:13])[H:14])[H:11])([H:8])([H:9])[H:10]"
C        2.70918218       0.11731045      -0.00825307
N        1.38485975       0.52249644      -0.42296590
C        0.26042020       0.17405672       0.24256916
O        0.27320901       0.04394712       1.55305174
C       -1.02671528       0.05068758      -0.49955154
C       -0.98209198      -1.38423863      -0.03095591
C       -2.11786868       0.95066749       0.04678944
H        3.39424724       0.96388515      -0.07942600
H        3.08762447      -0.69324662      -0.63725816
H        2.68736298      -0.21925756       1.02616040
H        1.25508918       0.72111865      -1.40073058
H       -0.88311565       0.19952791      -1.57299316
H       -0.30590815      -2.14649177      -0.40915314
H       -1.95273961      -1.86935421      -0.01871716
H       -0.56516555      -0.95244871       1.64409391
H       -3.07484286       0.66678914      -0.39386777
H       -2.21882084       0.85045485       1.12823359
H       -1.92472637       2.00409600      -0.16702585
18
Frame=10 idx=008121 GeodesicLength=1.2566858031220907 rxn_smarts="[C:1]([N:2]([C:3](=[O:4])[C:5]([C:6]([H:13])([H:14])[H:15])([C:7]([H:16])([H:17])[H:18])[H:12])[H:11])([H:8])([H:9])[H:10]>>[C:1]([N:2]([C@@:3]1([O:4][H:15])[C@@:5]([C:7]([H:16])([H:17])[H:18])([H:12])[C:6]1([H:13])[H:14])[H:11])([H:8])([H:9])[H:10]"
C        2.70362837       0.10795506      -0.01519691
N        1.38342002       0.53684257      -0.41803072
C        0.25735537       0.18032240       0.24918229
O        0.26076534       0.05215799       1.55895885
C       -1.02792013       0.06030751      -0.49883236
C       -0.96220467      -1.37357633      -0.02838640
C       -2.12161188       0.95542500       0.04889982
H        3.40605114       0.93772035      -0.11157177
H        3.05683825      -0.72201750      -0.63406192
H        2.68971726      -0.20881945       1.02580117
H        1.25101626       0.73420819      -1.39565254
H       -0.88376118       0.20743637      -1.57170763
H       -0.26008578      -2.13303765      -0.36314359
H       -1.91802537      -1.88566127      -0.06284192
H       -0.60409220      -0.98414288       1.63988119
H       -3.08011367       0.66345621      -0.38318684
H       -2.21593871       0.86282257       1.13148570
H       -1.93503842       2.00860086      -0.17159640
18
Frame=11 idx=008121 GeodesicLength=1.3841178184005145 rxn_smarts="[C:1]([N:2]([C:3](=[O:4])[C:5]([C:6]([H:13])([H:14])[H:15])([C:7]([H:16])([H:17])[H:18])[H:12])[H:11])([H:8])([H:9])[H:10]>>[C:1]([N:2]([C@@:3]1([O:4][H:15])[C@@:5]([C:7]([H:16])([H:17])[H:18])([H:12])[C:6]1([H:13])[H:14])[H:11])([H:8])([H:9])[H:10]"
C        2.69806905       0.09873964      -0.02222349
N        1.38224962       0.55048774      -0.41329509
C        0.25456232       0.18639246       0.25592350
O        0.24882473       0.06141625       1.56498400
C       -1.02893098       0.06972185      -0.49780358
C       -0.94232825      -1.36294593      -0.02574877
C       -2.12512773       0.96007697       0.05120740
H        3.41654939       0.91135634      -0.14376780
H        3.02622916      -0.74965745      -0.63039071
H        2.69278246      -0.19842474       1.02484248
H        1.24707595       0.74652177      -1.39076197
H       -0.88432366       0.21521111      -1.57013071
H       -0.21670048      -2.11878269      -0.31651841
H       -1.88036355      -1.90130376      -0.10756153
H       -0.64554598      -1.01691896       1.63461984
H       -3.08507439       0.65981333      -0.37202100
H       -2.21273724       0.87542137       1.13487506
H       -1.94521041       2.01287472      -0.17622923
18
Frame=12 idx=008121 GeodesicLength=1.5117641955650425 rxn_smarts="[C:1]([N:2]([C:3](=[O:4])[C:5]([C:6]([H:13])([H:14])[H:15])([C:7]([H:16])([H:17])[H:18])[H:12])[H:11])([H:8])([H:9])[H:10]>>[C:1]([N:2]([C@@:3]1([O:4][H:15])[C@@:5]([C:7]([H:16])([H:17])[H:18])([H:12])[C:6]1([H:13])[H:14])[H:11])([H:8])([H:9])[H:10]"
C        2.69251389       0.08964755      -0.02936520
N        1.38133729       0.56348231      -0.40877568
C        0.25204873       0.19230094       0.26280489
O        0.23744422       0.07179110       1.57114812
C       -1.02975447       0.07892154      -0.49643301
C       -0.92244827      -1.35233392      -0.02289191
C       -2.12841959       0.96463443       0.05372013
H        3.42577414       0.88483789      -0.17593125
H        2.99587736      -0.77614413      -0.62638184
H        2.69653129      -0.18822329       1.02322196
H        1.24323914       0.75811823      -1.38607034
H       -0.88482519       0.22278244      -1.56824070
H       -0.17573392      -2.10379528      -0.26914689
H       -1.83955298      -1.91618581      -0.15280752
H       -0.68984804      -1.05090247       1.62804023
H       -3.08972367       0.65585314      -0.36033501
H       -2.20920586       0.88830182       1.13840492
H       -1.95525406       2.01691350      -0.18096088
18
Frame=13 idx=008121 GeodesicLength=1.639842696540499 rxn_smarts="[C:1]([N:2]([C:3](=[O:4])[C:5]([C:6]([H:13])([H:14])[H:15])([C:7]([H:16])([H:17])[H:18])[H:12])[H:11])([H:8])([H:9])[H:10]>>[C:1]([N:2]([C@@:3]1([O:4][H:15])[C@@:5]([C:7]([H:16])([H:17])[H:18])([H:12])[C:6]1([H:13])[H:14])[H:11])([H:8])([H:9])[H:10]"
C        2.68695039       0.08058177      -0.03669038
N        1.38065847       0.57588803      -0.40446384
C        0.24980631       0.19814740       0.26987882
O        0.22662301       0.08365106       1.57747251
C       -1.03038038       0.08790358      -0.49465804
C       -0.90248136      -1.34172242      -0.01965394
C       -2.13152611       0.96907743       0.05644136
H        3.43379374       0.85805199      -0.20801094
H        2.96577758      -0.80155478      -0.62225572
H        2.70089529      -0.17845483       1.02082095
H        1.23944611       0.76910506      -1.38154498
H       -0.88525909       0.23007498      -1.56597704
H       -0.13675861      -2.08795176      -0.22077784
H       -1.79549767      -1.93009268      -0.19855447
H       -0.73732402      -1.08636150       1.61984188
H       -3.09405894       0.65153893      -0.34815597
H       -2.20543083       0.90142954       1.14206861
H       -1.96523390       2.02068821      -0.18578097
18
Frame=14 idx=008121 GeodesicLength=1.7677628686738633 rxn_smarts="[C:1]([N:2]([C:3](=[O:4])[C:5]([C:6]([H:13])([H:14])[H:15])([C:7]([H:16])([H:17])[H:18])[H:12])[H:11])([H:8])([H:9])[H:10]>>[C:1]([N:2]([C@@:3]1([O:4][H:15])[C@@:5]([C:7]([H:16])([H:17])[H:18])([H:12])[C:6]1([H:13])[H:14])[H:11])([H:8])([H:9])[H:10]"
C        2.68137653       0.07153731      -0.04422228
N        1.38023536       0.58778628      -0.40038766
C        0.24785377       0.20401941       0.27714709
O        0.21642753       0.09686096       1.58399136
C       -1.03081630       0.09670295      -0.49246506
C       -0.88242658      -1.33103326      -0.01590840
C       -2.13445288       0.97342883       0.05940541
H        3.44065685       0.83103108      -0.24010488
H        2.93586375      -0.82599456      -0.61798118
H        2.70588907      -0.16907561       1.01766862
H        1.23570606       0.77950506      -1.37722918
H       -0.88565248       0.23709747      -1.56333556
H       -0.10006203      -2.07138321      -0.17126003
H       -1.74759608      -1.94303761      -0.24472490
H       -0.78834893      -1.12337110       1.60960979
H       -3.09808680       0.64685067      -0.33539150
H       -2.20137014       0.91486398       1.14589047
H       -1.97519670       2.02421134      -0.19070213
18
Frame=15 idx=008121 GeodesicLength=1.8953241409834065 rxn_smarts="[C:1]([N:2]([C:3](=[O:4])[C:5]([C:6]([H:13])([H:14])[H:15])([C:7]([H:16])([H:17])[H:18])[H:12])[H:11])([H:8])([H:9])[H:10]>>[C:1]([N:2]([C@@:3]1([O:4][H:15])[C@@:5]([C:7]([H:16])([H:17])[H:18])([H:12])[C:6]1([H:13])[H:14])[H:11])([H:8])([H:9])[H:10]"
C        2.67578010       0.06246600      -0.05202123
N        1.38005737       0.59921962      -0.39656298
C        0.24619618       0.20998989       0.28464055
O        0.20688896       0.11157985       1.59074245
C       -1.03106179       0.10532281      -0.48980429
C       -0.86227397      -1.32022543      -0.01147511
C       -2.13721373       0.97769433       0.06263527
H        3.44639601       0.80374467      -0.27223528
H        2.90611303      -0.84952763      -0.61368763
H        2.71148612      -0.16019039       1.01369879
H        1.23197900       0.78936879      -1.37312742
H       -0.88601800       0.24378023      -1.56027547
H       -0.06556655      -2.05407237      -0.12024541
H       -1.69546328      -1.95485384      -0.29129771
H       -0.84327818      -1.16216817       1.59685681
H       -3.10179926       0.64178685      -0.32201588
H       -2.19705214       0.92860818       1.14988371
H       -1.98516987       2.02747663      -0.19570917
18
Frame=16 idx=008121 GeodesicLength=2.022351652834268 rxn_smarts="[C:1]([N:2]([C:3](=[O:4])[C:5]([C:6]([H:13])([H:14])[H:15])([C:7]([H:16])([H:17])[H:18])[H:12])[H:11])([H:8])([H:9])[H:10]>>[C:1]([N:2]([C@@:3]1([O:4][H:15])[C@@:5]([C:7]([H:16])([H:17])[H:18])([H:12])[C:6]1([H:13])[H:14])[H:11])([H:8])([H:9])[H:10]"
C        2.67013722       0.05330072      -0.06015702
N        1.38011967       0.61023211      -0.39301134
C        0.24483879       0.21614941       0.29239003
O        0.19804385       0.12802713       1.59777343
C       -1.03112117       0.11377053      -0.48662409
C       -0.84201530      -1.30924491      -0.00616386
C       -2.13983053       0.98187779       0.06615809
H        3.45103741       0.77614113      -0.30441840
H        2.87648474      -0.87221514      -0.60954076
H        2.71764262      -0.15196677       1.00883313
H        1.22822917       0.79875351      -1.36925084
H       -0.88637310       0.25006058      -1.55675561
H       -0.03324580      -2.03596038      -0.06726638
H       -1.63855918      -1.96535702      -0.33817076
H       -0.90248495      -1.20303815       1.58092230
H       -3.10519439       0.63634443      -0.30800941
H       -2.19252194       0.94264676       1.15406268
H       -1.99518712       2.03047827      -0.20077119
