14
Frame=0 idx=001999 GeodesicLength=0.0 rxn_smarts="[C:1]([C:2]1([H:10])[C:3]([H:11])([H:12])[C:4](=[O:5])[C:6]1([H:13])[H:14])([H:7])([H:8])[H:9]>>[C:1]([C:2]([C:3]([C:4]([O-:5])=[C+:6][H:13])([H:11])[H:12])([H:10])[H:14])([H:7])([H:8])[H:9]"
C        1.88061717       0.08044277      -0.19013358
C        0.45669721       0.32860155       0.27391393
C       -0.46220205      -0.89264124       0.26090540
C       -1.81018836      -0.32541946      -0.09678968
O       -2.91067859      -0.82960390       0.00812516
C       -1.70345765       0.95548540      -0.73925111
H        1.89512262      -0.32365060      -1.20382215
H        2.47363022       0.99536038      -0.17840170
H        2.36646880      -0.64520830       0.46665101
H        0.43735465       0.81253712       1.25159918
H       -0.49446552      -1.43297112       1.20654920
H       -0.17093702      -1.60297927      -0.51786299
H       -1.97152645       1.80019232      -0.09273913
H        0.01356491       1.07985431      -0.44874354
14
Frame=1 idx=001999 GeodesicLength=0.07153444604898347 rxn_smarts="[C:1]([C:2]1([H:10])[C:3]([H:11])([H:12])[C:4](=[O:5])[C:6]1([H:13])[H:14])([H:7])([H:8])[H:9]>>[C:1]([C:2]([C:3]([C:4]([O-:5])=[C+:6][H:13])([H:11])[H:12])([H:10])[H:14])([H:7])([H:8])[H:9]"
C        1.88114120       0.07806375      -0.18583800
C        0.45224028       0.33140635       0.26128330
C       -0.45943293      -0.89648765       0.25922588
C       -1.80794510      -0.32646834      -0.08762686
O       -2.91274594      -0.82714740      -0.01636301
C       -1.69955000       0.96390534      -0.70907877
H        1.90533442      -0.33953518      -1.19394554
H        2.47262235       0.99413454      -0.18195962
H        2.36390609      -0.63682973       0.48483605
H        0.43180584       0.82063655       1.23672623
H       -0.48706235      -1.43396852       1.20675716
H       -0.17350332      -1.60764503      -0.52067654
H       -1.98203672       1.80043119      -0.05922567
H        0.01522619       1.07950414      -0.49411462
14
Frame=2 idx=001999 GeodesicLength=0.1430141001332564 rxn_smarts="[C:1]([C:2]1([H:10])[C:3]([H:11])([H:12])[C:4](=[O:5])[C:6]1([H:13])[H:14])([H:7])([H:8])[H:9]>>[C:1]([C:2]([C:3]([C:4]([O-:5])=[C+:6][H:13])([H:11])[H:12])([H:10])[H:14])([H:7])([H:8])[H:9]"
C        1.88114758       0.07623147      -0.18201265
C        0.44780424       0.33379280       0.24968276
C       -0.45677593      -0.90056114       0.25835107
C       -1.80548954      -0.32753303      -0.07861711
O       -2.91427022      -0.82327768      -0.04220031
C       -1.69407638       0.97172056      -0.67940558
H        1.91409324      -0.35408668      -1.18460407
H        2.47083140       0.99355392      -0.18600594
H        2.36153262      -0.62808057       0.50140906
H        0.42688879       0.82745679       1.22330566
H       -0.48029231      -1.43499337       1.20782909
H       -0.17593223      -1.61279375      -0.52232679
H       -1.99134025       1.80040919      -0.02723761
H        0.01587900       1.07816147      -0.53816757
14
Frame=3 idx=001999 GeodesicLength=0.21442181563947413 rxn_smarts="[C:1]([C:2]1([H:10])[C:3]([H:11])([H:12])[C:4](=[O:5])[C:6]1([H:13])[H:14])([H:7])([H:8])[H:9]>>[C:1]([C:2]([C:3]([C:4]([O-:5])=[C+:6][H:13])([H:11])[H:12])([H:10])[H:14])([H:7])([H:8])[H:9]"
C        1.88068324       0.07490917      -0.17863355
C        0.44339705       0.33576811       0.23917182
C       -0.45422198      -0.90485819       0.25823762
C       -1.80285916      -0.32861489      -0.06970967
O       -2.91517943      -0.81795646      -0.06908341
C       -1.68714694       0.97887855      -0.65035901
H        1.92146397      -0.36726449      -1.17586261
H        2.46831835       0.99357127      -0.19042900
H        2.35939455      -0.61909979       0.51637055
H        0.42255738       0.83300702       1.21140796
H       -0.47409116      -1.43613249       1.20967889
H       -0.17823061      -1.61835816      -0.52292602
H       -1.99959118       1.80018359       0.00294515
H        0.01550592       1.07596675      -0.58080873
14
Frame=4 idx=001999 GeodesicLength=0.2857451959278207 rxn_smarts="[C:1]([C:2]1([H:10])[C:3]([H:11])([H:12])[C:4](=[O:5])[C:6]1([H:13])[H:14])([H:7])([H:8])[H:9]>>[C:1]([C:2]([C:3]([C:4]([O-:5])=[C+:6][H:13])([H:11])[H:12])([H:10])[H:14])([H:7])([H:8])[H:9]"
C        1.87979540       0.07405746      -0.17566601
C        0.43902399       0.33734027       0.22978825
C       -0.45176089      -0.90937756       0.25882578
C       -1.80008712      -0.32972279      -0.06087382
O       -2.91541411      -0.81117345      -0.09666340
C       -1.67888518       0.98534383      -0.62205459
H        1.92752720      -0.37904516      -1.16776816
H        2.46514428       0.99413880      -0.19510470
H        2.35752570      -0.61002082       0.52974756
H        0.41875127       0.83731403       1.20106797
H       -0.46839223      -1.43746839       1.21220700
H       -0.18040259      -1.62427292      -0.52260233
H       -2.00692680       1.79982642       0.03108033
H        0.01410109       1.07306029      -0.62198388
14
Frame=5 idx=001999 GeodesicLength=0.35703100665277554 rxn_smarts="[C:1]([C:2]1([H:10])[C:3]([H:11])([H:12])[C:4](=[O:5])[C:6]1([H:13])[H:14])([H:7])([H:8])[H:9]>>[C:1]([C:2]([C:3]([C:4]([O-:5])=[C+:6][H:13])([H:11])[H:12])([H:10])[H:14])([H:7])([H:8])[H:9]"
C        1.87853139       0.07364089      -0.17306407
C        0.43468645       0.33852606       0.22155500
C       -0.44938334      -0.91412465       0.26003959
C       -1.79720023      -0.33088030      -0.05210844
O       -2.91495544      -0.80292716      -0.12455160
C       -1.66940953       0.99109617      -0.59458497
H        1.93237386      -0.38942714      -1.16035152
H        2.46136595       0.99521950      -0.19990039
H        2.35595844      -0.60096040       0.54159966
H        0.41539780       0.84042876       1.19229445
H       -0.46313233      -1.43909052       1.21529707
H       -0.18244990      -1.63047803      -0.52149523
H       -2.01345114       1.79940493       0.05697517
H        0.01166803       1.06957191      -0.66170471
14
Frame=6 idx=001999 GeodesicLength=0.4284628109954879 rxn_smarts="[C:1]([C:2]1([H:10])[C:3]([H:11])([H:12])[C:4](=[O:5])[C:6]1([H:13])[H:14])([H:7])([H:8])[H:9]>>[C:1]([C:2]([C:3]([C:4]([O-:5])=[C+:6][H:13])([H:11])[H:12])([H:10])[H:14])([H:7])([H:8])[H:9]"
C        1.87690577       0.07362505      -0.17076685
C        0.43034925       0.33935425       0.21438702
C       -0.44710601      -0.91904123       0.26178615
C       -1.79420679      -0.33207168      -0.04338490
O       -2.91372141      -0.79329027      -0.15252699
C       -1.65887766       0.99610682      -0.56787125
H        1.93614622      -0.39847577      -1.15354832
H        2.45702896       0.99677070      -0.20471896
H        2.35459810      -0.59197068       0.55207347
H        0.41238812       0.84244641       1.18497318
H       -0.45827441      -1.44095916       1.21883080
H       -0.18443477      -1.63689131      -0.51974493
H       -2.01907936       1.79879710       0.08073541
H        0.00828398       1.06559975      -0.70022384
14
Frame=7 idx=001999 GeodesicLength=0.4997800989348076 rxn_smarts="[C:1]([C:2]1([H:10])[C:3]([H:11])([H:12])[C:4](=[O:5])[C:6]1([H:13])[H:14])([H:7])([H:8])[H:9]>>[C:1]([C:2]([C:3]([C:4]([O-:5])=[C+:6][H:13])([H:11])[H:12])([H:10])[H:14])([H:7])([H:8])[H:9]"
C        1.87498836       0.07397111      -0.16873972
C        0.42608706       0.33981502       0.20833996
C       -0.44488784      -0.92418130       0.26400174
C       -1.79114576      -0.33332720      -0.03477948
O       -2.91178810      -0.78231773      -0.18019201
C       -1.64740106       1.00046104      -0.54208910
H        1.93888191      -0.40622758      -1.14738529
H        2.45218220       0.99875845      -0.20948410
H        2.35355816      -0.58311415       0.56121080
H        0.40974302       0.84337053       1.17914375
H       -0.45375467      -1.44322808       1.22272660
H       -0.18629131      -1.64348854      -0.51747142
H       -2.02408717       1.79827729       0.10209534
H        0.00391520       1.06123114      -0.73737707
14
Frame=8 idx=001999 GeodesicLength=0.5710989925809863 rxn_smarts="[C:1]([C:2]1([H:10])[C:3]([H:11])([H:12])[C:4](=[O:5])[C:6]1([H:13])[H:14])([H:7])([H:8])[H:9]>>[C:1]([C:2]([C:3]([C:4]([O-:5])=[C+:6][H:13])([H:11])[H:12])([H:10])[H:14])([H:7])([H:8])[H:9]"
C        1.87281731       0.07464043      -0.16696519
C        0.42186294       0.33994180       0.20338220
C       -0.44275509      -0.92951383       0.26664828
C       -1.78803063      -0.33464851      -0.02629636
O       -2.90912382      -0.77017860      -0.20754595
C       -1.63508873       1.00420323      -0.51714875
H        1.94070015      -0.41279906      -1.14185737
H        2.44687146       1.00116608      -0.21423398
H        2.35284434      -0.57442612       0.56914605
H        0.40739576       0.84330169       1.17475399
H       -0.44959228      -1.44585836       1.22694869
H       -0.18805956      -1.65024644      -0.51472782
H       -2.02844019       1.79783383       0.12119541
H       -0.00140165       1.05658387      -0.77329922
14
Frame=9 idx=001999 GeodesicLength=0.6424008592014745 rxn_smarts="[C:1]([C:2]1([H:10])[C:3]([H:11])([H:12])[C:4](=[O:5])[C:6]1([H:13])[H:14])([H:7])([H:8])[H:9]>>[C:1]([C:2]([C:3]([C:4]([O-:5])=[C+:6][H:13])([H:11])[H:12])([H:10])[H:14])([H:7])([H:8])[H:9]"
C        1.87039685       0.07558598      -0.16541392
C        0.41770287       0.33976516       0.19948969
C       -0.44068367      -0.93499920       0.26967616
C       -1.78485207      -0.33602196      -0.01797233
O       -2.90562105      -0.75685691      -0.23451652
C       -1.62204857       1.00732939      -0.49297360
H        1.94164639      -0.41829497      -1.13691382
H        2.44107825       1.00392318      -0.21894225
H        2.35242141      -0.56592617       0.57594353
H        0.40530818       0.84229798       1.17172264
H       -0.44576032      -1.44881042       1.23142948
H       -0.18969779      -1.65710140      -0.51156383
H       -2.03222627       1.79742171       0.13809988
H       -0.00766421       1.05168762      -0.80806513
14
Frame=10 idx=001999 GeodesicLength=0.7137522256836342 rxn_smarts="[C:1]([C:2]1([H:10])[C:3]([H:11])([H:12])[C:4](=[O:5])[C:6]1([H:13])[H:14])([H:7])([H:8])[H:9]>>[C:1]([C:2]([C:3]([C:4]([O-:5])=[C+:6][H:13])([H:11])[H:12])([H:10])[H:14])([H:7])([H:8])[H:9]"
C        1.86778418       0.07681145      -0.16403742
C        0.41361838       0.33928610       0.19663980
C       -0.43869169      -0.94068096       0.27302037
C       -1.78164358      -0.33746818      -0.00983002
O       -2.90144772      -0.74253493      -0.26080211
C       -1.60835988       1.00990597      -0.46963613
H        1.94179965      -0.42272320      -1.13254916
H        2.43488822       1.00707309      -0.22353029
H        2.35232636      -0.55763895       0.58172382
H        0.40347440       0.84041243       1.17003690
H       -0.44224446      -1.45219358       1.23611588
H       -0.19126894      -1.66406952      -0.50811097
H       -2.03539316       1.79716073       0.15274361
H       -0.01484175       1.04665956      -0.84178428
14
Frame=11 idx=001999 GeodesicLength=0.7850475123040327 rxn_smarts="[C:1]([C:2]1([H:10])[C:3]([H:11])([H:12])[C:4](=[O:5])[C:6]1([H:13])[H:14])([H:7])([H:8])[H:9]>>[C:1]([C:2]([C:3]([C:4]([O-:5])=[C+:6][H:13])([H:11])[H:12])([H:10])[H:14])([H:7])([H:8])[H:9]"
C        1.86497435       0.07828009      -0.16279808
C        0.40958772       0.33848737       0.19480177
C       -0.43675369      -0.94651593       0.27660708
C       -1.77836562      -0.33895557      -0.00186598
O       -2.89659075      -0.72728253      -0.28614324
C       -1.59407687       1.01192577      -0.44713580
H        1.94123782      -0.42611296      -1.12870462
H        2.42827236       1.01054081      -0.22792136
H        2.35250471      -0.54958562       0.58652209
H        0.40178864       0.83766328       1.16960667
H       -0.43901998      -1.45596312       1.24087928
H       -0.19272625      -1.67105937      -0.50445482
H       -2.03792652       1.79705413       0.16509061
H       -0.02290593       1.04152366      -0.87448360
14
Frame=12 idx=001999 GeodesicLength=0.8564131441665566 rxn_smarts="[C:1]([C:2]1([H:10])[C:3]([H:11])([H:12])[C:4](=[O:5])[C:6]1([H:13])[H:14])([H:7])([H:8])[H:9]>>[C:1]([C:2]([C:3]([C:4]([O-:5])=[C+:6][H:13])([H:11])[H:12])([H:10])[H:14])([H:7])([H:8])[H:9]"
C        1.86201716       0.07999108      -0.16167388
C        0.40565730       0.33741184       0.19397051
C       -0.43489110      -0.95254795       0.28042559
C       -1.77506243      -0.34050683       0.00589274
O       -2.89113683      -0.71125018      -0.31055689
C       -1.57928584       1.01346862      -0.42544666
H        1.93998517      -0.42854100      -1.12539240
H        2.42130436       1.01438154      -0.23212757
H        2.35300588      -0.54177531       0.59045757
H        0.40031339       0.83413910       1.17044028
H       -0.43609083      -1.46020963       1.24576135
H       -0.19413507      -1.67813002      -0.50065018
H       -2.03981962       1.79718317       0.17520316
H       -0.03186156       1.03638557      -0.90630362
14
Frame=13 idx=001999 GeodesicLength=0.9277902896494672 rxn_smarts="[C:1]([C:2]1([H:10])[C:3]([H:11])([H:12])[C:4](=[O:5])[C:6]1([H:13])[H:14])([H:7])([H:8])[H:9]>>[C:1]([C:2]([C:3]([C:4]([O-:5])=[C+:6][H:13])([H:11])[H:12])([H:10])[H:14])([H:7])([H:8])[H:9]"
C        1.85889284       0.08189667      -0.16066106
C        0.40181208       0.33604576       0.19411914
C       -0.43308121      -0.95869680       0.28446096
C       -1.77169809      -0.34207798       0.01344714
O       -2.88496197      -0.69441586      -0.33416341
C       -1.56403266       1.01450867      -0.40444061
H        1.93807769      -0.43010095      -1.12253417
H        2.41391648       1.01848916      -0.23618767
H        2.35379008      -0.53417422       0.59353341
H        0.39897186       0.82985519       1.17241761
H       -0.43346763      -1.46478696       1.25069867
H       -0.19541821      -1.68518538      -0.49665126
H       -2.04107849       1.79742585       0.18324140
H       -0.04172276       1.03121683      -0.93728015
14
Frame=14 idx=001999 GeodesicLength=0.9992167461500927 rxn_smarts="[C:1]([C:2]1([H:10])[C:3]([H:11])([H:12])[C:4](=[O:5])[C:6]1([H:13])[H:14])([H:7])([H:8])[H:9]>>[C:1]([C:2]([C:3]([C:4]([O-:5])=[C+:6][H:13])([H:11])[H:12])([H:10])[H:14])([H:7])([H:8])[H:9]"
C        1.85564072       0.08401045      -0.15971694
C        0.39807525       0.33439936       0.19524011
C       -0.43133657      -0.96501896       0.28866717
C       -1.76829300      -0.34368215       0.02080312
O       -2.87823501      -0.67696992      -0.35671488
C       -1.54836267       1.01511252      -0.38419807
H        1.93555360      -0.43077829      -1.12014054
H        2.40617532       1.02292632      -0.24001641
H        2.35487661      -0.52681422       0.59584310
H        0.39777978       0.82486629       1.17555434
H       -0.43113083      -1.46982386       1.25567056
H       -0.19664328      -1.69226635      -0.49258271
H       -2.04162322       1.79792221       0.18910793
H       -0.05247672       1.02611661      -0.96751677
14
Frame=15 idx=001999 GeodesicLength=1.0706812422344132 rxn_smarts="[C:1]([C:2]1([H:10])[C:3]([H:11])([H:12])[C:4](=[O:5])[C:6]1([H:13])[H:14])([H:7])([H:8])[H:9]>>[C:1]([C:2]([C:3]([C:4]([O-:5])=[C+:6][H:13])([H:11])[H:12])([H:10])[H:14])([H:7])([H:8])[H:9]"
C        1.85226881       0.08632186      -0.15881171
C        0.39445265       0.33247006       0.19731999
C       -0.42964887      -0.97150699       0.29300775
C       -1.76483546      -0.34530401       0.02798020
O       -2.87100640      -0.65898024      -0.37808221
C       -1.53230802       1.01528235      -0.36471865
H        1.93244916      -0.43058118      -1.11818219
H        2.39808177       1.02767661      -0.24355738
H        2.35624702      -0.51970558       0.59742438
H        0.39669866       0.81919979       1.17980479
H       -0.42906734      -1.47532650       1.26062300
H       -0.19780666      -1.69933771      -0.48850232
H       -2.04140223       1.79868142       0.19278097
H       -0.06412307       1.02111012      -0.99708664
14
Frame=16 idx=001999 GeodesicLength=1.1421824824968423 rxn_smarts="[C:1]([C:2]1([H:10])[C:3]([H:11])([H:12])[C:4](=[O:5])[C:6]1([H:13])[H:14])([H:7])([H:8])[H:9]>>[C:1]([C:2]([C:3]([C:4]([O-:5])=[C+:6][H:13])([H:11])[H:12])([H:10])[H:14])([H:7])([H:8])[H:9]"
C        1.84878785       0.08882458      -0.15791805
C        0.39095345       0.33025645       0.20034771
C       -0.42801322      -0.97815960       0.29745542
C       -1.76131971      -0.34692967       0.03499948
O       -2.86333741      -0.64052404      -0.39817392
C       -1.51589937       1.01503020      -0.34600426
H        1.92879047      -0.42951451      -1.11663454
H        2.38964416       1.03273455      -0.24675897
H        2.35789264      -0.51285905       0.59831437
H        0.39570613       0.81288679       1.18513019
H       -0.42726493      -1.48130805       1.26551955
H       -0.19891446      -1.70637837      -0.48445685
H       -2.04035516       1.79971499       0.19424949
H       -0.07667044       1.01622572      -1.02606962
