12
Frame=0 idx=001273 GeodesicLength=0.0 rxn_smarts="[C:1]([c:2]1[c:3]([H:10])[n:4]([H:11])[c:5]([H:12])[n:6]1)([H:7])([H:8])[H:9]>>[C:1]([C:2](/[C:3](=[N:4]/[H:11])[H:10])=[N+:6]=[C-:5][H:12])([H:7])([H:8])[H:9]"
C       -1.80089380      -0.23347635       0.09396699
C       -0.31026682      -0.18048984       0.00324359
C        0.47889207       1.03406977       0.00103801
N        1.75374685       0.95624273      -0.05077017
C        1.58492405      -1.52485507      -0.43449615
N        0.43867038      -1.22502186      -0.14473923
H       -2.16616202       0.24742132       1.00437234
H       -2.13753611      -1.26905894       0.10238553
H       -2.27286965       0.26580746      -0.75643164
H       -0.06625675       1.98073026       0.01895408
H        2.19409505       1.86751448      -0.11843646
H        2.30365678      -1.91888395       0.28091306
12
Frame=1 idx=001273 GeodesicLength=0.05136780758146939 rxn_smarts="[C:1]([c:2]1[c:3]([H:10])[n:4]([H:11])[c:5]([H:12])[n:6]1)([H:7])([H:8])[H:9]>>[C:1]([C:2](/[C:3](=[N:4]/[H:11])[H:10])=[N+:6]=[C-:5][H:12])([H:7])([H:8])[H:9]"
C       -1.80368826      -0.23415187       0.09192227
C       -0.31244270      -0.17975007       0.01550519
C        0.47512586       1.03338262       0.02231388
N        1.75021813       0.94311244      -0.06329157
C        1.59227754      -1.49506989      -0.43490515
N        0.43664219      -1.22542393      -0.14298675
H       -2.17876971       0.26440081       0.98868033
H       -2.14005655      -1.26958370       0.11848136
H       -2.26737990       0.24675666      -0.77342058
H       -0.06383338       1.98307303       0.03510316
H        2.20323894       1.84814790      -0.12516697
H        2.30866783      -1.91489401       0.26776483
12
Frame=2 idx=001273 GeodesicLength=0.10272185866125869 rxn_smarts="[C:1]([c:2]1[c:3]([H:10])[n:4]([H:11])[c:5]([H:12])[n:6]1)([H:7])([H:8])[H:9]>>[C:1]([C:2](/[C:3](=[N:4]/[H:11])[H:10])=[N+:6]=[C-:5][H:12])([H:7])([H:8])[H:9]"
C       -1.80621756      -0.23481365       0.09018061
C       -0.31455637      -0.17896547       0.02629885
C        0.47138059       1.03275578       0.04031759
N        1.74621382       0.93051541      -0.07427959
C        1.59902243      -1.46628439      -0.43479946
N        0.43469935      -1.22574591      -0.14224767
H       -2.18994048       0.28155059       0.97303457
H       -2.14246695      -1.26969378       0.13564904
H       -2.26237168       0.22710874      -0.78932305
H       -0.06152932       1.98532684       0.04996458
H        2.21226177       1.82895395      -0.12903725
H        2.31350441      -1.91070811       0.25424177
12
Frame=3 idx=001273 GeodesicLength=0.15404989059511293 rxn_smarts="[C:1]([c:2]1[c:3]([H:10])[n:4]([H:11])[c:5]([H:12])[n:6]1)([H:7])([H:8])[H:9]>>[C:1]([C:2](/[C:3](=[N:4]/[H:11])[H:10])=[N+:6]=[C-:5][H:12])([H:7])([H:8])[H:9]"
C       -1.80855075      -0.23549408       0.08871633
C       -0.31662803      -0.17810829       0.03567140
C        0.46760290       1.03224937       0.05545813
N        1.74192856       0.91842892      -0.08396419
C        1.60525421      -1.43843506      -0.43416072
N        0.43283570      -1.22596203      -0.14245718
H       -2.19982936       0.29859406       0.95753661
H       -2.14477268      -1.26942138       0.15358275
H       -2.25794552       0.20702610      -0.80407775
H       -0.05934367       1.98759662       0.06357439
H        2.22129855       1.80988277      -0.13038895
H        2.31815008      -1.90635700       0.24050918
12
Frame=4 idx=001273 GeodesicLength=0.205346236019445 rxn_smarts="[C:1]([c:2]1[c:3]([H:10])[n:4]([H:11])[c:5]([H:12])[n:6]1)([H:7])([H:8])[H:9]>>[C:1]([C:2](/[C:3](=[N:4]/[H:11])[H:10])=[N+:6]=[C-:5][H:12])([H:7])([H:8])[H:9]"
C       -1.81074161      -0.23622093       0.08777197
C       -0.31870223      -0.17712187       0.04361631
C        0.46364264       1.03198591       0.06719782
N        1.73744019       0.90681437      -0.09293969
C        1.61083653      -1.41147700      -0.43343961
N        0.43103654      -1.22606925      -0.14327098
H       -2.20844425       0.31585937       0.94224512
H       -2.14687023      -1.26876393       0.17302187
H       -2.25437427       0.18602304      -0.81756156
H       -0.05743360       1.99001207       0.07400898
H        2.23081543       1.79076369      -0.12645381
H        2.32279486      -1.90180547       0.22580358
12
Frame=5 idx=001273 GeodesicLength=0.2566154292950826 rxn_smarts="[C:1]([c:2]1[c:3]([H:10])[n:4]([H:11])[c:5]([H:12])[n:6]1)([H:7])([H:8])[H:9]>>[C:1]([C:2](/[C:3](=[N:4]/[H:11])[H:10])=[N+:6]=[C-:5][H:12])([H:7])([H:8])[H:9]"
C       -1.81280658      -0.23696056       0.08679426
C       -0.32072029      -0.17605529       0.05069708
C        0.45969072       1.03182333       0.07786303
N        1.73293058       0.89565597      -0.10042677
C        1.61606368      -1.38532251      -0.43195244
N        0.42933945      -1.22604957      -0.14463806
H       -2.21639716       0.33252347       0.92689721
H       -2.14890714      -1.26772681       0.19214967
H       -2.25101978       0.16509792      -0.83022375
H       -0.05553197       1.99246936       0.08488318
H        2.24008797       1.77169382      -0.12328645
H        2.32727052      -1.89714914       0.21124305
12
Frame=6 idx=001273 GeodesicLength=0.307857876530364 rxn_smarts="[C:1]([c:2]1[c:3]([H:10])[n:4]([H:11])[c:5]([H:12])[n:6]1)([H:7])([H:8])[H:9]>>[C:1]([C:2](/[C:3](=[N:4]/[H:11])[H:10])=[N+:6]=[C-:5][H:12])([H:7])([H:8])[H:9]"
C       -1.81481023      -0.23775627       0.08626441
C       -0.32275507      -0.17484219       0.05665022
C        0.45556443       1.03192692       0.08579371
N        1.72823193       0.88500706      -0.10875855
C        1.62066419      -1.36004505      -0.43043253
N        0.42768746      -1.22595549      -0.14619312
H       -2.22343933       0.34927493       0.91165723
H       -2.15075782      -1.26629551       0.21251943
H       -2.24844500       0.14333064      -0.84175402
H       -0.05387253       1.99511681       0.09308598
H        2.25003036       1.75226476      -0.11465032
H        2.33190161      -1.89202662       0.19581756
12
Frame=7 idx=001273 GeodesicLength=0.35908078397103305 rxn_smarts="[C:1]([c:2]1[c:3]([H:10])[n:4]([H:11])[c:5]([H:12])[n:6]1)([H:7])([H:8])[H:9]>>[C:1]([C:2](/[C:3](=[N:4]/[H:11])[H:10])=[N+:6]=[C-:5][H:12])([H:7])([H:8])[H:9]"
C       -1.81671107      -0.23855684       0.08566457
C       -0.32472902      -0.17354454       0.06191136
C        0.45145607       1.03212024       0.09315579
N        1.72358387       0.87477519      -0.11591432
C        1.62501252      -1.33549058      -0.42816213
N        0.42613063      -1.22573776      -0.14823241
H       -2.22999775       0.36532843       0.89638012
H       -2.15252544      -1.26449674       0.23236907
H       -2.24603181       0.12177838      -0.85252882
H       -0.05220263       1.99780107       0.10183613
H        2.25966225       1.73284535      -0.10713745
H        2.33635238      -1.88682218       0.18065808
12
Frame=8 idx=001273 GeodesicLength=0.41027475630984556 rxn_smarts="[C:1]([c:2]1[c:3]([H:10])[n:4]([H:11])[c:5]([H:12])[n:6]1)([H:7])([H:8])[H:9]>>[C:1]([C:2](/[C:3](=[N:4]/[H:11])[H:10])=[N+:6]=[C-:5][H:12])([H:7])([H:8])[H:9]"
C       -1.81856685      -0.23937826       0.08526388
C       -0.32670219      -0.17211203       0.06647131
C        0.44724614       1.03251791       0.09892901
N        1.71879262       0.86503377      -0.12377543
C        1.62882715      -1.31171647      -0.42571042
N        0.42465455      -1.22546714      -0.15004319
H       -2.23604713       0.38122273       0.88099832
H       -2.15415971      -1.26228530       0.25270389
H       -2.24402843       0.09975680      -0.86247681
H       -0.05066921       2.00062652       0.10938243
H        2.26962690       1.71290971      -0.09659463
H        2.34102614      -1.88110826       0.16485165
12
Frame=9 idx=001273 GeodesicLength=0.4614489497993479 rxn_smarts="[C:1]([c:2]1[c:3]([H:10])[n:4]([H:11])[c:5]([H:12])[n:6]1)([H:7])([H:8])[H:9]>>[C:1]([C:2](/[C:3](=[N:4]/[H:11])[H:10])=[N+:6]=[C-:5][H:12])([H:7])([H:8])[H:9]"
C       -1.82032297      -0.24020873       0.08483760
C       -0.32861475      -0.17058351       0.07035106
C        0.44303537       1.03302109       0.10422546
N        1.71417771       0.85562637      -0.13008494
C        1.63247681      -1.28855726      -0.42259404
N        0.42325922      -1.22505581      -0.15246356
H       -2.24163551       0.39642581       0.86567326
H       -2.15565309      -1.25974507       0.27256674
H       -2.24224505       0.07796538      -0.87164256
H       -0.04913681       2.00350642       0.11702555
H        2.27921287       1.69304649      -0.08714406
H        2.34544618      -1.87544119       0.14924949
12
Frame=10 idx=001273 GeodesicLength=0.5125994776450672 rxn_smarts="[C:1]([c:2]1[c:3]([H:10])[n:4]([H:11])[c:5]([H:12])[n:6]1)([H:7])([H:8])[H:9]>>[C:1]([C:2](/[C:3](=[N:4]/[H:11])[H:10])=[N+:6]=[C-:5][H:12])([H:7])([H:8])[H:9]"
C       -1.82202629      -0.24103108       0.08436232
C       -0.33048961      -0.16897489       0.07375811
C        0.43884059       1.03360689       0.10904769
N        1.70964703       0.84655738      -0.13584328
C        1.63583721      -1.26608196      -0.41894758
N        0.42194821      -1.22459190      -0.15489464
H       -2.24693801       0.41115183       0.85019828
H       -2.15708838      -1.25684263       0.29210451
H       -2.24058458       0.05623217      -0.88022499
H       -0.04757851       2.00642014       0.12494421
H        2.28855279       1.67314925      -0.07805529
H        2.34987954      -1.86959521       0.13355067
12
Frame=11 idx=001273 GeodesicLength=0.5637320667906673 rxn_smarts="[C:1]([c:2]1[c:3]([H:10])[n:4]([H:11])[c:5]([H:12])[n:6]1)([H:7])([H:8])[H:9]>>[C:1]([C:2](/[C:3](=[N:4]/[H:11])[H:10])=[N+:6]=[C-:5][H:12])([H:7])([H:8])[H:9]"
C       -1.82367268      -0.24184293       0.08384691
C       -0.33232790      -0.16728568       0.07670491
C        0.43465513       1.03427265       0.11339313
N        1.70518587       0.83781201      -0.14120644
C        1.63892882      -1.24426615      -0.41479855
N        0.42071424      -1.22407917      -0.15734798
H       -2.25196536       0.42544700       0.83456163
H       -2.15844642      -1.25357602       0.31138202
H       -2.23904104       0.03451602      -0.88824140
H       -0.04599547       2.00935931       0.13310971
H        2.29765434       1.65321281      -0.06915088
H        2.35431047      -1.86356984       0.11774693
12
Frame=12 idx=001273 GeodesicLength=0.6148493077753951 rxn_smarts="[C:1]([c:2]1[c:3]([H:10])[n:4]([H:11])[c:5]([H:12])[n:6]1)([H:7])([H:8])[H:9]>>[C:1]([C:2](/[C:3](=[N:4]/[H:11])[H:10])=[N+:6]=[C-:5][H:12])([H:7])([H:8])[H:9]"
C       -1.82525562      -0.24262515       0.08316891
C       -0.33411500      -0.16555845       0.07940910
C        0.43053512       1.03494209       0.11784103
N        1.70094187       0.82924362      -0.14520417
C        1.64180125      -1.22307962      -0.41001133
N        0.41955877      -1.22354407      -0.15974711
H       -2.25685757       0.43930412       0.81860158
H       -2.15980217      -1.24994103       0.33014578
H       -2.23739006       0.01293047      -0.89590001
H       -0.04431036       2.01225112       0.14203783
H        2.30621908       1.63372758      -0.06209410
H        2.35867468      -1.85765066       0.10175248
12
Frame=13 idx=001273 GeodesicLength=0.6659391950880479 rxn_smarts="[C:1]([c:2]1[c:3]([H:10])[n:4]([H:11])[c:5]([H:12])[n:6]1)([H:7])([H:8])[H:9]>>[C:1]([C:2](/[C:3](=[N:4]/[H:11])[H:10])=[N+:6]=[C-:5][H:12])([H:7])([H:8])[H:9]"
C       -1.82677351      -0.24339397       0.08241170
C       -0.33585395      -0.16378813       0.08155451
C        0.42647491       1.03561785       0.12206748
N        1.69685038       0.82090059      -0.14861761
C        1.64456243      -1.20255105      -0.40448293
N        0.41844113      -1.22296143      -0.16262503
H       -2.26141002       0.45251889       0.80272400
H       -2.16107863      -1.24604251       0.34829767
H       -2.23590981      -0.00828018      -0.90295473
H       -0.04253187       2.01508334       0.15156278
H        2.31439134       1.61458562      -0.05613859
H        2.36283761      -1.85168903       0.08620076
12
Frame=14 idx=001273 GeodesicLength=0.7170093630711382 rxn_smarts="[C:1]([c:2]1[c:3]([H:10])[n:4]([H:11])[c:5]([H:12])[n:6]1)([H:7])([H:8])[H:9]>>[C:1]([C:2](/[C:3](=[N:4]/[H:11])[H:10])=[N+:6]=[C-:5][H:12])([H:7])([H:8])[H:9]"
C       -1.82823462      -0.24412819       0.08148190
C       -0.33754552      -0.16200876       0.08339591
C        0.42250802       1.03624258       0.12643090
N        1.69290682       0.81271945      -0.15134681
C        1.64717301      -1.18268438      -0.39818921
N        0.41736849      -1.22238021      -0.16565303
H       -2.26578695       0.46523114       0.78667488
H       -2.16236636      -1.24184203       0.36580143
H       -2.23437405      -0.02918685      -0.90965248
H       -0.04060852       2.01778983       0.16215089
H        2.32207578       1.59598700      -0.05197151
H        2.36688389      -1.84573958       0.07087713
12
Frame=15 idx=001273 GeodesicLength=0.7680597863193568 rxn_smarts="[C:1]([c:2]1[c:3]([H:10])[n:4]([H:11])[c:5]([H:12])[n:6]1)([H:7])([H:8])[H:9]>>[C:1]([C:2](/[C:3](=[N:4]/[H:11])[H:10])=[N+:6]=[C-:5][H:12])([H:7])([H:8])[H:9]"
C       -1.82964632      -0.24482403       0.08037753
C       -0.33919591      -0.16022732       0.08495259
C        0.41863621       1.03680430       0.13092644
N        1.68907011       0.80469659      -0.15365763
C        1.64963408      -1.16348017      -0.39111892
N        0.41633451      -1.22181486      -0.16879341
H       -2.26999702       0.47747002       0.77045690
H       -2.16367950      -1.23735415       0.38266340
H       -2.23278341      -0.04978297      -0.91602364
H       -0.03852823       2.02034298       0.17386603
H        2.32931191       1.57791727      -0.04946348
H        2.37084357      -1.83974764       0.05581418
12
Frame=16 idx=001273 GeodesicLength=0.8190893573752059 rxn_smarts="[C:1]([c:2]1[c:3]([H:10])[n:4]([H:11])[c:5]([H:12])[n:6]1)([H:7])([H:8])[H:9]>>[C:1]([C:2](/[C:3](=[N:4]/[H:11])[H:10])=[N+:6]=[C-:5][H:12])([H:7])([H:8])[H:9]"
C       -1.83100836      -0.24548375       0.07911012
C       -0.34080445      -0.15844813       0.08617623
C        0.41486039       1.03729398       0.13555506
N        1.68535657       0.79680839      -0.15551187
C        1.65198620      -1.14492409      -0.38320152
N        0.41532774      -1.22124920      -0.17222654
H       -2.27400545       0.48920879       0.75416229
H       -2.16500198      -1.23261997       0.39885676
H       -2.23118915      -0.07000357      -0.92204798
H       -0.03628535       2.02271568       0.18666403
H        2.33609875       1.56045710      -0.04866821
H        2.37466508      -1.83375522       0.04113164
