14
Frame=0 idx=003613 GeodesicLength=0.0 rxn_smarts="[C:1]([C@@:2]([O:3][H:11])([C:4]([C:5]#[C:6][H:14])([H:12])[H:13])[H:10])([H:7])([H:8])[H:9]>>[C:1]([C@:2]1([H:10])[C:4]([H:12])([H:13])/[C:5]1=[C:6](/[O:3][H:11])[H:14])([H:7])([H:8])[H:9]"
C       -1.51875157      -0.22275915      -0.64802146
C       -0.60573247       0.08920459       0.47848413
O        0.76308165      -1.37277391       0.03673843
C        0.18652449       1.29367792       0.46596625
C        1.59343681       0.88799321      -0.10973381
C        1.80149325      -0.39892929      -0.24386042
H       -1.05568181       0.04594848      -1.59780562
H       -1.82639325      -1.26528533      -0.67179800
H       -2.41074417       0.40335064      -0.52667406
H       -0.79287667      -0.41690317       1.41904122
H        1.04654160      -1.94192409       0.76363216
H       -0.22784794       2.04705431      -0.20528713
H        0.34450994       1.72562938       1.45272674
H        2.70244018      -0.87428358      -0.61340837
14
Frame=1 idx=003613 GeodesicLength=0.10491153287845341 rxn_smarts="[C:1]([C@@:2]([O:3][H:11])([C:4]([C:5]#[C:6][H:14])([H:12])[H:13])[H:10])([H:7])([H:8])[H:9]>>[C:1]([C@:2]1([H:10])[C:4]([H:12])([H:13])/[C:5]1=[C:6](/[O:3][H:11])[H:14])([H:7])([H:8])[H:9]"
C       -1.52629447      -0.21821150      -0.64209596
C       -0.59091925       0.08123721       0.47141626
O        0.76043043      -1.39189245       0.02685288
C        0.18144639       1.30348999       0.46106255
C        1.59165613       0.86805927      -0.05090112
C        1.82460561      -0.40258602      -0.24233121
H       -1.07410852       0.04819268      -1.59785901
H       -1.84181638      -1.25863167      -0.66412479
H       -2.41466558       0.40984174      -0.50742932
H       -0.78857805      -0.40802657       1.41933080
H        1.05452888      -1.96614720       0.74472931
H       -0.21034384       2.04131945      -0.23987563
H        0.30506114       1.75340472       1.44466814
H        2.72899750      -0.86004967      -0.62344291
14
Frame=2 idx=003613 GeodesicLength=0.20989638641670164 rxn_smarts="[C:1]([C@@:2]([O:3][H:11])([C:4]([C:5]#[C:6][H:14])([H:12])[H:13])[H:10])([H:7])([H:8])[H:9]>>[C:1]([C@:2]1([H:10])[C:4]([H:12])([H:13])/[C:5]1=[C:6](/[O:3][H:11])[H:14])([H:7])([H:8])[H:9]"
C       -1.53480578      -0.21342514      -0.63518573
C       -0.57652971       0.07321110       0.46434040
O        0.75757723      -1.41066637       0.01472894
C        0.17688246       1.31246866       0.45488220
C        1.58814641       0.84598482       0.00955832
C        1.84882645      -0.40488040      -0.23873510
H       -1.09445810       0.05044063      -1.59726398
H       -1.85840703      -1.25162095      -0.65499923
H       -2.41899482       0.41694840      -0.48674870
H       -0.78371409      -0.39940103       1.41931746
H        1.06190432      -1.99124641       0.72245108
H       -0.18944379       2.03364075      -0.27605660
H        0.26520617       1.78094675       1.43356360
H        2.75781027      -0.84240080      -0.62985266
14
Frame=3 idx=003613 GeodesicLength=0.3150093793750992 rxn_smarts="[C:1]([C@@:2]([O:3][H:11])([C:4]([C:5]#[C:6][H:14])([H:12])[H:13])[H:10])([H:7])([H:8])[H:9]>>[C:1]([C@:2]1([H:10])[C:4]([H:12])([H:13])/[C:5]1=[C:6](/[O:3][H:11])[H:14])([H:7])([H:8])[H:9]"
C       -1.54447657      -0.20838074      -0.62727201
C       -0.56268866       0.06505967       0.45714032
O        0.75456695      -1.42888303      -0.00001355
C        0.17302899       1.32043824       0.44719918
C        1.58226839       0.82203629       0.06960809
C        1.87451226      -0.40574594      -0.23201641
H       -1.11704157       0.05287547      -1.59596679
H       -1.87623897      -1.24425816      -0.64445923
H       -2.42387804       0.42466249      -0.46444863
H       -0.77825319      -0.39110192       1.41895141
H        1.06837049      -2.01712828       0.69640957
H       -0.16568373       2.02399512      -0.31319553
H        0.22615430       1.80768459       1.41916549
H        2.78935935      -0.82125379      -0.63110190
14
Frame=4 idx=003613 GeodesicLength=0.42019251216134584 rxn_smarts="[C:1]([C@@:2]([O:3][H:11])([C:4]([C:5]#[C:6][H:14])([H:12])[H:13])[H:10])([H:7])([H:8])[H:9]>>[C:1]([C@:2]1([H:10])[C:4]([H:12])([H:13])/[C:5]1=[C:6](/[O:3][H:11])[H:14])([H:7])([H:8])[H:9]"
C       -1.55528709      -0.20308800      -0.61849773
C       -0.54954794       0.05671894       0.44975280
O        0.75141808      -1.44643438      -0.01719754
C        0.17001928       1.32726223       0.43802753
C        1.57365909       0.79666429       0.12729256
C        1.90165864      -0.40532418      -0.22171262
H       -1.14172599       0.05564552      -1.59397794
H       -1.89518586      -1.23658963      -0.63276143
H       -2.42929567       0.43292663      -0.44071877
H       -0.77242273      -0.38313327       1.41822728
H        1.07401848      -2.04330669       0.66700985
H       -0.13985233       2.01256104      -0.35043747
H        0.18905491       1.83297480       1.40169682
H        2.82348914      -0.79687728      -0.62670335
14
Frame=5 idx=003613 GeodesicLength=0.5254529293849229 rxn_smarts="[C:1]([C@@:2]([O:3][H:11])([C:4]([C:5]#[C:6][H:14])([H:12])[H:13])[H:10])([H:7])([H:8])[H:9]>>[C:1]([C@:2]1([H:10])[C:4]([H:12])([H:13])/[C:5]1=[C:6](/[O:3][H:11])[H:14])([H:7])([H:8])[H:9]"
C       -1.56713848      -0.19754979      -0.60899974
C       -0.53720960       0.04813708       0.44210626
O        0.74812502      -1.46325620      -0.03658432
C        0.16788999       1.33284961       0.42744158
C        1.56222615       0.77030078       0.18089705
C        1.93013285      -0.40383915      -0.20767136
H       -1.16827219       0.05887897      -1.59128632
H       -1.91505610      -1.22862472      -0.62015949
H       -2.43516734       0.44166368      -0.41574290
H       -0.76641934      -0.37545567       1.41709856
H        1.07904206      -2.06927035       0.63473286
H       -0.11288880       1.99957220      -0.38705769
H        0.15480916       1.85630950       1.38155935
H        2.85992662      -0.76971596      -0.61633383
14
Frame=6 idx=003613 GeodesicLength=0.630636218551642 rxn_smarts="[C:1]([C@@:2]([O:3][H:11])([C:4]([C:5]#[C:6][H:14])([H:12])[H:13])[H:10])([H:7])([H:8])[H:9]>>[C:1]([C@:2]1([H:10])[C:4]([H:12])([H:13])/[C:5]1=[C:6](/[O:3][H:11])[H:14])([H:7])([H:8])[H:9]"
C       -1.57978915      -0.19180292      -0.59902134
C       -0.52576055       0.03927230       0.43423173
O        0.74464282      -1.47944906      -0.05751554
C        0.16663734       1.33719643       0.41570818
C        1.54822226       0.74337429       0.22947924
C        1.95950320      -0.40156818      -0.19029080
H       -1.19612843       0.06261475      -1.58797370
H       -1.93558672      -1.22042562      -0.60702022
H       -2.44130292       0.45078682      -0.38999693
H       -0.76057734      -0.36800330       1.41562268
H        1.08391623      -2.09445643       0.60055101
H       -0.08555060       1.98537678      -0.42246000
H        0.12391176       1.87737607       1.35943832
H        2.89786211      -0.74029194      -0.60075264
14
Frame=7 idx=003613 GeodesicLength=0.7357004522813819 rxn_smarts="[C:1]([C@@:2]([O:3][H:11])([C:4]([C:5]#[C:6][H:14])([H:12])[H:13])[H:10])([H:7])([H:8])[H:9]>>[C:1]([C@:2]1([H:10])[C:4]([H:12])([H:13])/[C:5]1=[C:6](/[O:3][H:11])[H:14])([H:7])([H:8])[H:9]"
C       -1.59306841      -0.18586586      -0.58868754
C       -0.51520999       0.03009354       0.42612793
O        0.74092032      -1.49510616      -0.07964010
C        0.16620617       1.34033861       0.40299701
C        1.53202247       0.71617047       0.27250804
C        1.98944724      -0.39871544      -0.16990640
H       -1.22495393       0.06687562      -1.58407166
H       -1.95660776      -1.21200946      -0.59353929
H       -2.44756550       0.46022828      -0.36371023
H       -0.75501126      -0.36072867       1.41381023
H        1.08897981      -2.11856033       0.56497047
H       -0.05845820       1.97023489      -0.45641109
H        0.09653880       1.89610763       1.33585455
H        2.93676023      -0.70906312      -0.58030194
14
Frame=8 idx=003613 GeodesicLength=0.8406757492651057 rxn_smarts="[C:1]([C@@:2]([O:3][H:11])([C:4]([C:5]#[C:6][H:14])([H:12])[H:13])[H:10])([H:7])([H:8])[H:9]>>[C:1]([C@:2]1([H:10])[C:4]([H:12])([H:13])/[C:5]1=[C:6](/[O:3][H:11])[H:14])([H:7])([H:8])[H:9]"
C       -1.60685902      -0.17977081      -0.57809174
C       -0.50552479       0.02057370       0.41780888
O        0.73690454      -1.51036585      -0.10273106
C        0.16654147       1.34238575       0.38945007
C        1.51407275       0.68891433       0.30988796
C        2.01970217      -0.39543392      -0.14678340
H       -1.25453759       0.07165565      -1.57965271
H       -1.97803398      -1.20343834      -0.57984431
H       -2.45385588       0.46993460      -0.33703981
H       -0.74971735      -0.35362544       1.41171529
H        1.09452658      -2.14147824       0.52828889
H       -0.03202110       1.95440265      -0.48892611
H        0.07265680       1.91266042       1.31124679
H        2.97614540      -0.67641451      -0.55532874
14
Frame=9 idx=003613 GeodesicLength=0.9452008092639222 rxn_smarts="[C:1]([C@@:2]([O:3][H:11])([C:4]([C:5]#[C:6][H:14])([H:12])[H:13])[H:10])([H:7])([H:8])[H:9]>>[C:1]([C@:2]1([H:10])[C:4]([H:12])([H:13])/[C:5]1=[C:6](/[O:3][H:11])[H:14])([H:7])([H:8])[H:9]"
C       -1.62083864      -0.17347745      -0.56735834
C       -0.49675379       0.01070834       0.40935303
O        0.73247477      -1.52540262      -0.12605337
C        0.16754950       1.34320829       0.37533006
C        1.49476333       0.66155831       0.34195158
C        2.04974466      -0.39174583      -0.12178693
H       -1.28416253       0.07685564      -1.57463809
H       -1.99961843      -1.19452020      -0.56610049
H       -2.45990866       0.47994487      -0.31044292
H       -0.74504591      -0.34651968       1.40930217
H        1.10104609      -2.16279727       0.49136106
H       -0.00639304       1.93785502      -0.51979442
H        0.05197014       1.92683021       1.28600163
H        3.01517250      -0.64249763      -0.52712495
14
Frame=10 idx=003613 GeodesicLength=1.0496117716660722 rxn_smarts="[C:1]([C@@:2]([O:3][H:11])([C:4]([C:5]#[C:6][H:14])([H:12])[H:13])[H:10])([H:7])([H:8])[H:9]>>[C:1]([C@:2]1([H:10])[C:4]([H:12])([H:13])/[C:5]1=[C:6](/[O:3][H:11])[H:14])([H:7])([H:8])[H:9]"
C       -1.63518151      -0.16704428      -0.55639882
C       -0.48875432       0.00047359       0.40066971
O        0.72760018      -1.54028904      -0.15013887
C        0.16918898       1.34307544       0.36050932
C        1.47448479       0.63433323       0.36846641
C        2.07963571      -0.38767227      -0.09475554
H       -1.31431569       0.08253668      -1.56912417
H       -2.02153677      -1.18544088      -0.55217693
H       -2.46585364       0.49016590      -0.28354475
H       -0.74048840      -0.33956269       1.40661864
H        1.10851962      -2.18279952       0.45350178
H        0.01803879       1.92092230      -0.54947217
H        0.03449233       1.93909588       1.26026197
H        3.05416991      -0.60779434      -0.49441657
14
Frame=11 idx=003613 GeodesicLength=1.1538312876084242 rxn_smarts="[C:1]([C@@:2]([O:3][H:11])([C:4]([C:5]#[C:6][H:14])([H:12])[H:13])[H:10])([H:7])([H:8])[H:9]>>[C:1]([C@:2]1([H:10])[C:4]([H:12])([H:13])/[C:5]1=[C:6](/[O:3][H:11])[H:14])([H:7])([H:8])[H:9]"
C       -1.64988217      -0.16045748      -0.54510650
C       -0.48146835      -0.01013363       0.39169948
O        0.72220671      -1.55504743      -0.17515472
C        0.17137660       1.34201264       0.34492221
C        1.45357015       0.60726749       0.38952018
C        2.10918276      -0.38313835      -0.06604112
H       -1.34507092       0.08868918      -1.56300179
H       -2.04380606      -1.17613877      -0.53791766
H       -2.47165828       0.50058408      -0.25617062
H       -0.73585082      -0.33274929       1.40360636
H        1.11713816      -2.20139801       0.41437480
H        0.04110507       1.90361454      -0.57823608
H        0.01998277       1.94957193       1.23404643
H        3.09317439      -0.57267690      -0.45654097
14
Frame=12 idx=003613 GeodesicLength=1.2578566740924733 rxn_smarts="[C:1]([C@@:2]([O:3][H:11])([C:4]([C:5]#[C:6][H:14])([H:12])[H:13])[H:10])([H:7])([H:8])[H:9]>>[C:1]([C@:2]1([H:10])[C:4]([H:12])([H:13])/[C:5]1=[C:6](/[O:3][H:11])[H:14])([H:7])([H:8])[H:9]"
C       -1.66488993      -0.15372402      -0.53344111
C       -0.47483966      -0.02111888       0.38242348
O        0.71622714      -1.56976019      -0.20111568
C        0.17407247       1.34006679       0.32854868
C        1.43230787       0.58035124       0.40539321
C        2.13827070      -0.37812704      -0.03553393
H       -1.37639741       0.09526300      -1.55623661
H       -2.06641839      -1.16660105      -0.52323006
H       -2.47724249       0.51120233      -0.22829150
H       -0.73099880      -0.32607542       1.40026040
H        1.12704562      -2.21859094       0.37378936
H        0.06278172       1.88593909      -0.60635325
H        0.00821991       1.95843344       1.20738767
H        3.13186125      -0.53725833      -0.41360065
14
Frame=13 idx=003613 GeodesicLength=1.361688727979948 rxn_smarts="[C:1]([C@@:2]([O:3][H:11])([C:4]([C:5]#[C:6][H:14])([H:12])[H:13])[H:10])([H:7])([H:8])[H:9]>>[C:1]([C@:2]1([H:10])[C:4]([H:12])([H:13])/[C:5]1=[C:6](/[O:3][H:11])[H:14])([H:7])([H:8])[H:9]"
C       -1.68027130      -0.14684962      -0.52124338
C       -0.46879235      -0.03248066       0.37275045
O        0.70956764      -1.58444323      -0.22836422
C        0.17722604       1.33730071       0.31121470
C        1.41095741       0.55362183       0.41602033
C        2.16674377      -0.37254259      -0.00340792
H       -1.40855966       0.10224836      -1.54871512
H       -2.08945027      -1.15682696      -0.50786135
H       -2.48260420       0.52199775      -0.19960954
H       -0.72560516      -0.31957204       1.39653735
H        1.13839659      -2.23431989       0.33111731
H        0.08290496       1.86792705      -0.63419877
H       -0.00091140       1.96583736       1.18018167
H        3.17039793      -0.50189808      -0.36442150
14
Frame=14 idx=003613 GeodesicLength=1.4653328382562105 rxn_smarts="[C:1]([C@@:2]([O:3][H:11])([C:4]([C:5]#[C:6][H:14])([H:12])[H:13])[H:10])([H:7])([H:8])[H:9]>>[C:1]([C@:2]1([H:10])[C:4]([H:12])([H:13])/[C:5]1=[C:6](/[O:3][H:11])[H:14])([H:7])([H:8])[H:9]"
C       -1.69592184      -0.13984148      -0.50848974
C       -0.46327061      -0.04423020       0.36267695
O        0.70216434      -1.59919822      -0.25683083
C        0.18084894       1.33372217       0.29289054
C        1.38972777       0.52698699       0.42174626
C        2.19450091      -0.36642979       0.03095709
H       -1.44143268       0.10956598      -1.54040552
H       -2.11285131      -1.14679668      -0.49171860
H       -2.48759264       0.53300412      -0.17016838
H       -0.71957627      -0.31322490       1.39243728
H        1.15131542      -2.24855808       0.28615655
H        0.10159633       1.84949800      -0.66202544
H       -0.00758156       1.97193109       1.15238541
H        3.20807322      -0.46642899      -0.30961158
14
Frame=15 idx=003613 GeodesicLength=1.5687925819742452 rxn_smarts="[C:1]([C@@:2]([O:3][H:11])([C:4]([C:5]#[C:6][H:14])([H:12])[H:13])[H:10])([H:7])([H:8])[H:9]>>[C:1]([C@:2]1([H:10])[C:4]([H:12])([H:13])/[C:5]1=[C:6](/[O:3][H:11])[H:14])([H:7])([H:8])[H:9]"
C       -1.71184831      -0.13270682      -0.49503290
C       -0.45819823      -0.05637409       0.35212719
O        0.69391750      -1.61407229      -0.28675422
C        0.18494738       1.32934734       0.27338689
C        1.36881898       0.50040069       0.42253880
C        2.22133924      -0.35975391       0.06785796
H       -1.47518004       0.11717012      -1.53118566
H       -2.13665237      -1.13649970      -0.47453829
H       -2.49212498       0.54423003      -0.13974555
H       -0.71262136      -0.30704453       1.38791954
H        1.16598234      -2.26117290       0.23826264
H        0.11881856       1.83059038      -0.69019559
H       -0.01183630       1.97683737       1.12381847
H        3.24463759      -0.43095167      -0.24845928
14
Frame=16 idx=003613 GeodesicLength=1.67207688414739 rxn_smarts="[C:1]([C@@:2]([O:3][H:11])([C:4]([C:5]#[C:6][H:14])([H:12])[H:13])[H:10])([H:7])([H:8])[H:9]>>[C:1]([C@:2]1([H:10])[C:4]([H:12])([H:13])/[C:5]1=[C:6](/[O:3][H:11])[H:14])([H:7])([H:8])[H:9]"
C       -1.72810412      -0.12545924      -0.48062547
C       -0.45346828      -0.06890922       0.34096582
O        0.68472331      -1.62905688      -0.31858682
C        0.18953233       1.32420104       0.25236784
C        1.34844261       0.47384737       0.41810501
C        2.24699012      -0.35248714       0.10769637
H       -1.51014618       0.12502220      -1.52084824
H       -2.16089858      -1.12594072      -0.45590504
H       -2.49612378       0.55566256      -0.10792833
H       -0.70428531      -0.30104793       1.38290726
H        1.18263437      -2.27192976       0.18640302
H        0.13443944       1.81112855      -0.71920664
H       -0.01364463       1.98068776       1.09415626
H        3.27990870      -0.39571859      -0.17950105
