15
Frame=0 idx=008773 GeodesicLength=0.0 rxn_smarts="[O:1]=[C:2]1[C:3]([H:8])([H:9])[C:4]([H:10])([H:11])[C:5]([H:12])([H:13])[C:6]([H:14])=[C:7]1[H:15]>>[O:1]1[C:2](=[C:3]([H:8])[H:9])[C:7]([H:15])=[C:6]([H:14])[C@:5]1([C:4]([H:10])([H:11])[H:12])[H:13]"
O        0.74037243      -1.40682739       1.74952805
C        0.35835845      -1.31833160       0.56432045
C       -0.80623371      -1.78336251      -0.01485354
C       -1.17487792       0.90658095      -0.16199749
C        0.09267354       1.43026043       0.18483430
C        1.28953268       0.83190424      -0.33439814
C        1.36750636      -0.51156604      -0.20905913
H       -0.93833219      -1.74481247      -1.08895809
H       -1.44341802      -2.44910642       0.55396921
H       -1.27409714       0.28219663      -1.03152148
H       -2.05034910       1.12660305       0.43681186
H       -0.78179489       2.00598192      -0.68105754
H        0.14052015       2.19005126       0.95991399
H        2.15896160       1.44072368      -0.54861285
H        2.32117777      -1.00029567      -0.37891963
15
Frame=1 idx=008773 GeodesicLength=0.08320264178999534 rxn_smarts="[O:1]=[C:2]1[C:3]([H:8])([H:9])[C:4]([H:10])([H:11])[C:5]([H:12])([H:13])[C:6]([H:14])=[C:7]1[H:15]>>[O:1]1[C:2](=[C:3]([H:8])[H:9])[C:7]([H:15])=[C:6]([H:14])[C@:5]1([C:4]([H:10])([H:11])[H:12])[H:13]"
O        0.70217320      -1.34355985       1.75674253
C        0.36762590      -1.32040786       0.55197811
C       -0.80674074      -1.77197681      -0.02285925
C       -1.18019045       0.89500671      -0.15694891
C        0.09356814       1.40862878       0.20020917
C        1.29228088       0.82287405      -0.33789145
C        1.37985552      -0.51929417      -0.21948571
H       -0.92046444      -1.76453455      -1.09995936
H       -1.44689180      -2.43004934       0.55170975
H       -1.30024536       0.29996646      -1.04486662
H       -2.04595710       1.11025209       0.45828012
H       -0.77286789       2.00422990      -0.66969535
H        0.14824442       2.17297458       0.97060894
H        2.15140413       1.44045356      -0.56748314
H        2.33820559      -1.00456354      -0.37033885
15
Frame=2 idx=008773 GeodesicLength=0.1664840371974885 rxn_smarts="[O:1]=[C:2]1[C:3]([H:8])([H:9])[C:4]([H:10])([H:11])[C:5]([H:12])([H:13])[C:6]([H:14])=[C:7]1[H:15]>>[O:1]1[C:2](=[C:3]([H:8])[H:9])[C:7]([H:15])=[C:6]([H:14])[C@:5]1([C:4]([H:10])([H:11])[H:12])[H:13]"
O        0.66570308      -1.28458500       1.76068516
C        0.37615534      -1.32148070       0.54226822
C       -0.80648767      -1.76040414      -0.03069360
C       -1.18558341       0.88386704      -0.15210447
C        0.09430476       1.38789030       0.21465013
C        1.29503370       0.81401666      -0.34042454
C        1.39201534      -0.52662473      -0.22744850
H       -0.90127485      -1.78442949      -1.10962025
H       -1.45016789      -2.41100541       0.54864736
H       -1.32706481       0.31855216      -1.05674039
H       -2.04148655       1.09419729       0.47920780
H       -0.76388143       2.00228818      -0.65981253
H        0.15549886       2.15719715       0.97992181
H        2.14358501       1.43995172      -0.58567175
H        2.35365052      -1.00943103      -0.36286446
15
Frame=3 idx=008773 GeodesicLength=0.24983201657231974 rxn_smarts="[O:1]=[C:2]1[C:3]([H:8])([H:9])[C:4]([H:10])([H:11])[C:5]([H:12])([H:13])[C:6]([H:14])=[C:7]1[H:15]>>[O:1]1[C:2](=[C:3]([H:8])[H:9])[C:7]([H:15])=[C:6]([H:14])[C@:5]1([C:4]([H:10])([H:11])[H:12])[H:13]"
O        0.63083911      -1.22945862       1.76203501
C        0.38403079      -1.32170522       0.53460680
C       -0.80565932      -1.74866539      -0.03848301
C       -1.19104890       0.87312522      -0.14745156
C        0.09489935       1.36799070       0.22822585
C        1.29780277       0.80534674      -0.34212951
C        1.40401228      -0.53357754      -0.23332599
H       -0.88104321      -1.80455062      -1.11797988
H       -1.45326483      -2.39201319       0.54481465
H       -1.35457238       0.33797899      -1.06720052
H       -2.03692007       1.07838793       0.49963150
H       -0.75481787       2.00020189      -0.65127100
H        0.16233522       2.14249516       0.98805277
H        2.13551306       1.43922062      -0.60331706
H        2.36789399      -1.01477666      -0.35620804
15
Frame=4 idx=008773 GeodesicLength=0.33322926950725495 rxn_smarts="[O:1]=[C:2]1[C:3]([H:8])([H:9])[C:4]([H:10])([H:11])[C:5]([H:12])([H:13])[C:6]([H:14])=[C:7]1[H:15]>>[O:1]1[C:2](=[C:3]([H:8])[H:9])[C:7]([H:15])=[C:6]([H:14])[C@:5]1([C:4]([H:10])([H:11])[H:12])[H:13]"
O        0.59752955      -1.17783021       1.76129042
C        0.39133557      -1.32120201       0.52858630
C       -0.80436623      -1.73677964      -0.04632060
C       -1.19659767       0.86275723      -0.14299831
C        0.09535749       1.34888689       0.24099820
C        1.30062277       0.79686318      -0.34310820
C        1.41589193      -0.54018541      -0.23741431
H       -0.85997160      -1.82496397      -1.12509292
H       -1.45620354      -2.37307017       0.54026297
H       -1.38282384       0.35828134      -1.07629120
H       -2.03227439       1.06280374       0.51955964
H       -0.74568714       1.99800390      -0.64398973
H        0.16876712       2.12871508       0.99516842
H        2.12723491       1.43825162      -0.62044715
H        2.38118509      -1.02053157      -0.35020355
15
Frame=5 idx=008773 GeodesicLength=0.416661285396702 rxn_smarts="[O:1]=[C:2]1[C:3]([H:8])([H:9])[C:4]([H:10])([H:11])[C:5]([H:12])([H:13])[C:6]([H:14])=[C:7]1[H:15]>>[O:1]1[C:2](=[C:3]([H:8])[H:9])[C:7]([H:15])=[C:6]([H:14])[C@:5]1([C:4]([H:10])([H:11])[H:12])[H:13]"
O        0.56562707      -1.12938561       1.75882628
C        0.39812436      -1.32008127       0.52391139
C       -0.80266740      -1.72477225      -0.05430635
C       -1.20222583       0.85273777      -0.13872723
C        0.09569000       1.33053942       0.25304829
C        1.30352034       0.78856182      -0.34339932
C        1.42768129      -0.54647467      -0.23988438
H       -0.83814602      -1.84569539      -1.13100111
H       -1.45897521      -2.35419847       0.53495040
H       -1.41186333       0.37951453      -1.08399996
H       -2.02754198       1.04742462       0.53902579
H       -0.73647768       1.99572285      -0.63788712
H        0.17481629       2.11576171       1.00139922
H        2.11871043       1.43699496      -0.63728823
H        2.39372768      -1.02665001      -0.34466768
15
Frame=6 idx=008773 GeodesicLength=0.5001223387556363 rxn_smarts="[O:1]=[C:2]1[C:3]([H:8])([H:9])[C:4]([H:10])([H:11])[C:5]([H:12])([H:13])[C:6]([H:14])=[C:7]1[H:15]>>[O:1]1[C:2](=[C:3]([H:8])[H:9])[C:7]([H:15])=[C:6]([H:14])[C@:5]1([C:4]([H:10])([H:11])[H:12])[H:13]"
O        0.53507811      -1.08383831       1.75495198
C        0.40448652      -1.31844913       0.52029560
C       -0.80061456      -1.71266450      -0.06251464
C       -1.20793589       0.84302795      -0.13466535
C        0.09589730       1.31289997       0.26440616
C        1.30652192       0.78043289      -0.34309322
C        1.43942428      -0.55247632      -0.24096389
H       -0.81576401      -1.86680430      -1.13570957
H       -1.46159917      -2.33536025       0.52894495
H       -1.44171793       0.40171463      -1.09032327
H       -2.02272877       1.03221289       0.55800733
H       -0.72719576       1.99337150      -0.63292021
H        0.18047688       2.10352621       1.00685445
H        2.11000525       1.43547019      -0.65374977
H        2.40566582      -1.03306343      -0.33952056
15
Frame=7 idx=008773 GeodesicLength=0.583582758722944 rxn_smarts="[O:1]=[C:2]1[C:3]([H:8])([H:9])[C:4]([H:10])([H:11])[C:5]([H:12])([H:13])[C:6]([H:14])=[C:7]1[H:15]>>[O:1]1[C:2](=[C:3]([H:8])[H:9])[C:7]([H:15])=[C:6]([H:14])[C@:5]1([C:4]([H:10])([H:11])[H:12])[H:13]"
O        0.50578686      -1.04095819       1.74988016
C        0.41046646      -1.31637418       0.51755303
C       -0.79822564      -1.70047548      -0.07101829
C       -1.21372513       0.83359723      -0.13082372
C        0.09598150       1.29593255       0.27511729
C        1.30964812       0.77247145      -0.34221893
C        1.45114057      -0.55820839      -0.24077794
H       -0.79290195      -1.88832344      -1.13920761
H       -1.46407386      -2.31654342       0.52222950
H       -1.47241145       0.42492499      -1.09521539
H       -2.01783021       1.01713754       0.57650151
H       -0.71782456       1.99095749      -0.62905022
H        0.18574945       2.09194020       1.01161704
H        2.10112365       1.43365303      -0.66989856
H        2.41709619      -1.03973139      -0.33468787
15
Frame=8 idx=008773 GeodesicLength=0.6670152755926367 rxn_smarts="[O:1]=[C:2]1[C:3]([H:8])([H:9])[C:4]([H:10])([H:11])[C:5]([H:12])([H:13])[C:6]([H:14])=[C:7]1[H:15]>>[O:1]1[C:2](=[C:3]([H:8])[H:9])[C:7]([H:15])=[C:6]([H:14])[C@:5]1([C:4]([H:10])([H:11])[H:12])[H:13]"
O        0.47767760      -1.00053902       1.74376106
C        0.41609541      -1.31392273       0.51553421
C       -0.79550597      -1.68822608      -0.07988195
C       -1.21959394       0.82441642      -0.12722150
C        0.09594118       1.27960377       0.28521919
C        1.31290435       0.76466616      -0.34079522
C        1.46283620      -0.56369736      -0.23942942
H       -0.76964376      -1.91026979      -1.14148285
H       -1.46639163      -2.29773068       0.51479426
H       -1.50396609       0.44918188      -1.09862012
H       -2.01283449       1.00216320       0.59450244
H       -0.70833725       1.98848983      -0.62624993
H        0.19062947       2.08094845       1.01574539
H        2.09207124       1.43152691      -0.68577065
H        2.42811768      -1.04661096      -0.33010492
15
Frame=9 idx=008773 GeodesicLength=0.7501910058235249 rxn_smarts="[O:1]=[C:2]1[C:3]([H:8])([H:9])[C:4]([H:10])([H:11])[C:5]([H:12])([H:13])[C:6]([H:14])=[C:7]1[H:15]>>[O:1]1[C:2](=[C:3]([H:8])[H:9])[C:7]([H:15])=[C:6]([H:14])[C@:5]1([C:4]([H:10])([H:11])[H:12])[H:13]"
O        0.45078222      -0.96255834       1.73668779
C        0.42139411      -1.31108263       0.51414770
C       -0.79243515      -1.67591665      -0.08913694
C       -1.22556600       0.81543610      -0.12388714
C        0.09575811       1.26388787       0.29469305
C        1.31637547       0.75707792      -0.33870551
C        1.47457427      -0.56888069      -0.23690876
H       -0.74597527      -1.93266854      -1.14251166
H       -1.46856256      -2.27883654       0.50670701
H       -1.53628587       0.47456165      -1.10050133
H       -2.00773575       0.98727939       0.61206151
H       -0.69877976       1.98577987      -0.62463689
H        0.19502044       2.07058962       1.01918716
H        2.08294851       1.42909699      -0.70115545
H        2.43848721      -1.05376601      -0.32604055
15
Frame=10 idx=008773 GeodesicLength=0.8333614263891577 rxn_smarts="[O:1]=[C:2]1[C:3]([H:8])([H:9])[C:4]([H:10])([H:11])[C:5]([H:12])([H:13])[C:6]([H:14])=[C:7]1[H:15]>>[O:1]1[C:2](=[C:3]([H:8])[H:9])[C:7]([H:15])=[C:6]([H:14])[C@:5]1([C:4]([H:10])([H:11])[H:12])[H:13]"
O        0.42485149      -0.92661418       1.72888288
C        0.42643138      -1.30798405       0.51319767
C       -0.78903864      -1.66357552      -0.09886524
C       -1.23162538       0.80663397      -0.12081152
C        0.09545050       1.24873304       0.30360667
C        1.32000988       0.74964503      -0.33613283
C        1.48632941      -0.57384071      -0.23342049
H       -0.72207403      -1.95549019      -1.14227880
H       -1.47054856      -2.25994454       0.49785560
H       -1.56945974       0.50107740      -1.10074523
H       -2.00253881       0.97243012       0.62912543
H       -0.68909062       1.98297015      -0.62406110
H        0.19901457       2.06071704       1.02208168
H        2.07369195       1.42632641      -0.71629842
H        2.44859658      -1.06108398      -0.32213630
15
Frame=11 idx=008773 GeodesicLength=0.9165526477771506 rxn_smarts="[O:1]=[C:2]1[C:3]([H:8])([H:9])[C:4]([H:10])([H:11])[C:5]([H:12])([H:13])[C:6]([H:14])=[C:7]1[H:15]>>[O:1]1[C:2](=[C:3]([H:8])[H:9])[C:7]([H:15])=[C:6]([H:14])[C@:5]1([C:4]([H:10])([H:11])[H:12])[H:13]"
O        0.39978599      -0.89252183       1.72045954
C        0.43124839      -1.30466099       0.51258470
C       -0.78530463      -1.65121355      -0.10910293
C       -1.23777845       0.79797407      -0.11800948
C        0.09501416       1.23409646       0.31197986
C        1.32383622       0.74237037      -0.33308674
C        1.49812933      -0.57857579      -0.22903008
H       -0.69800155      -1.97870746      -1.14076883
H       -1.47232249      -2.24106059       0.48823193
H       -1.60344309       0.52877438      -1.09927583
H       -1.99725551       0.95758670       0.64568228
H       -0.67927350       1.98002078      -0.62451954
H        0.20259416       2.05128682       1.02445923
H        2.06432222       1.42318997      -0.73119833
H        2.45844875      -1.06855936      -0.31840579
15
Frame=12 idx=008773 GeodesicLength=0.9997640167710387 rxn_smarts="[O:1]=[C:2]1[C:3]([H:8])([H:9])[C:4]([H:10])([H:11])[C:5]([H:12])([H:13])[C:6]([H:14])=[C:7]1[H:15]>>[O:1]1[C:2](=[C:3]([H:8])[H:9])[C:7]([H:15])=[C:6]([H:14])[C@:5]1([C:4]([H:10])([H:11])[H:12])[H:13]"
O        0.37552545      -0.86012605       1.71149418
C        0.43587567      -1.30114416       0.51222275
C       -0.78121111      -1.63884861      -0.11988116
C       -1.24403944       0.78942050      -0.11550258
C        0.09444229       1.21994245       0.31981091
C        1.32787056       0.73525628      -0.32959268
C        1.50998724      -0.58308708      -0.22380842
H       -0.67385207      -2.00226800      -1.13796055
H       -1.47386211      -2.22217981       0.47783738
H       -1.63820331       0.55767908      -1.09599529
H       -1.99189428       0.94271130       0.66171990
H       -0.66933633       1.97688188      -0.62603605
H        0.20573782       2.04226601       1.02632633
H        2.05489782       1.41968097      -0.74578174
H        2.46806180      -1.07618477      -0.31485298
15
Frame=13 idx=008773 GeodesicLength=1.0830175183655897 rxn_smarts="[O:1]=[C:2]1[C:3]([H:8])([H:9])[C:4]([H:10])([H:11])[C:5]([H:12])([H:13])[C:6]([H:14])=[C:7]1[H:15]>>[O:1]1[C:2](=[C:3]([H:8])[H:9])[C:7]([H:15])=[C:6]([H:14])[C@:5]1([C:4]([H:10])([H:11])[H:12])[H:13]"
O        0.35199651      -0.82927555       1.70205286
C        0.44034591      -1.29746485       0.51204160
C       -0.77673483      -1.62650398      -0.13121805
C       -1.25041851       0.78093152      -0.11333081
C        0.09371988       1.20623087       0.32710765
C        1.33211941       0.72830473      -0.32565064
C        1.52191164      -0.58737705      -0.21780375
H       -0.64972114      -2.02611581      -1.13381575
H       -1.47513813      -2.20329775       0.46668111
H       -1.67365272       0.58783612      -1.09081078
H       -1.98646345       0.92775549       0.67720338
H       -0.65926993       1.97351708      -0.62862137
H        0.20841062       2.03361620       1.02769659
H        2.04544649       1.41579241      -0.76000793
H        2.47744824      -1.08394943      -0.31152412
15
Frame=14 idx=008773 GeodesicLength=1.166306440826633 rxn_smarts="[O:1]=[C:2]1[C:3]([H:8])([H:9])[C:4]([H:10])([H:11])[C:5]([H:12])([H:13])[C:6]([H:14])=[C:7]1[H:15]>>[O:1]1[C:2](=[C:3]([H:8])[H:9])[C:7]([H:15])=[C:6]([H:14])[C@:5]1([C:4]([H:10])([H:11])[H:12])[H:13]"
O        0.32914015      -0.79985786       1.69217866
C        0.44467546      -1.29363633       0.51201270
C       -0.77184922      -1.61419351      -0.14312643
C       -1.25692884       0.77247213      -0.11151724
C        0.09283716       1.19293532       0.33387145
C        1.33659834       0.72152345      -0.32124992
C        1.53391158      -0.59144631      -0.21102579
H       -0.62566095      -2.05014328      -1.12833622
H       -1.47611948      -2.18444132       0.45474833
H       -1.70972955       0.61927378      -1.08360138
H       -1.98097337       0.91268572       0.69211513
H       -0.64907475       1.96987015      -0.63231274
H        0.21057989       2.02532742       1.02856281
H        2.03598992       1.41150223      -0.77387245
H        2.48660367      -1.09187159      -0.30844689
15
Frame=15 idx=008773 GeodesicLength=1.2496256303122553 rxn_smarts="[O:1]=[C:2]1[C:3]([H:8])([H:9])[C:4]([H:10])([H:11])[C:5]([H:12])([H:13])[C:6]([H:14])=[C:7]1[H:15]>>[O:1]1[C:2](=[C:3]([H:8])[H:9])[C:7]([H:15])=[C:6]([H:14])[C@:5]1([C:4]([H:10])([H:11])[H:12])[H:13]"
O        0.30691884      -0.77175543       1.68191015
C        0.44888809      -1.28967528       0.51210631
C       -0.76652670      -1.60194518      -0.15559912
C       -1.26358774       0.76399823      -0.11011092
C        0.09177322       1.18002187       0.34009275
C        1.34130776       0.71491411      -0.31639234
C        1.54599295      -0.59529718      -0.20349392
H       -0.60177139      -2.07421995      -1.12151513
H       -1.47677525      -2.16562751       0.44206107
H       -1.74631690       0.65201776      -1.07424514
H       -1.97543725       0.89744823       0.70641233
H       -0.63875121       1.96588783      -0.63714820
H        0.21220033       2.01737670       1.02891088
H        2.02657373       1.40680572      -0.78730486
H        2.49551153      -1.09994992      -0.30568385
15
Frame=16 idx=008773 GeodesicLength=1.3329717682881357 rxn_smarts="[O:1]=[C:2]1[C:3]([H:8])([H:9])[C:4]([H:10])([H:11])[C:5]([H:12])([H:13])[C:6]([H:14])=[C:7]1[H:15]>>[O:1]1[C:2](=[C:3]([H:8])[H:9])[C:7]([H:15])=[C:6]([H:14])[C@:5]1([C:4]([H:10])([H:11])[H:12])[H:13]"
O        0.28528940      -0.74486309       1.67127992
C        0.45300330      -1.28559300       0.51231016
C       -0.76074000      -1.58978792      -0.16862140
C       -1.27041536       0.75546577      -0.10916586
C        0.09050605       1.16745841       0.34576077
C        1.34625061       0.70847809      -0.31107583
C        1.55816272      -0.59893199      -0.19520796
H       -0.57813678      -2.09819636      -1.11336783
H       -1.47706815      -2.14689364       0.42863768
H       -1.78327908       0.68611382      -1.06259477
H       -1.96986858       0.88198944       0.72004954
H       -0.62830704       1.96151325      -0.64317108
H        0.21322397       2.00974752       1.02872426
H        2.01722706       1.40169031      -0.80027586
H        2.50415187      -1.10819060      -0.30328172
