14
Frame=0 idx=007008 GeodesicLength=0.0 rxn_smarts="[C:1]([C@@:2]1([H:11])[C:3]([H:12])=[C:4]([H:13])[N:5]([H:14])[C:6]1=[O:7])([H:8])([H:9])[H:10]>>[C:1](/[C:2](=[C:6]1/[N:5]([H:14])[C:4]([H:13])=[C:3]([H:12])[O:7]1)[H:11])([H:8])([H:9])[H:10]"
C       -2.11454016      -0.06278853      -0.14694501
C       -0.76751801      -0.16574018      -0.75572040
C        0.94775155       0.80943663       0.76199171
C        2.07087373       0.55280831       0.12142415
N        1.65569731      -0.55580029      -0.66648458
C        0.30889156      -0.59353880      -0.00036500
O        0.23554010      -1.01199415       1.23666101
H       -2.10313033       0.54978945       0.76066588
H       -2.45137948      -1.05254803       0.18248555
H       -2.84410229       0.35288803      -0.83991638
H       -0.57837374       0.15706407      -1.77067503
H        0.41664154       1.41225226       1.47206318
H        3.04514549       1.01615085       0.13048347
H        2.17850269      -1.40797965      -0.48566856
14
Frame=1 idx=007008 GeodesicLength=0.0763979140704947 rxn_smarts="[C:1]([C@@:2]1([H:11])[C:3]([H:12])=[C:4]([H:13])[N:5]([H:14])[C:6]1=[O:7])([H:8])([H:9])[H:10]>>[C:1](/[C:2](=[C:6]1/[N:5]([H:14])[C:4]([H:13])=[C:3]([H:12])[O:7]1)[H:11])([H:8])([H:9])[H:10]"
C       -2.11578022      -0.06050204      -0.14767251
C       -0.76249998      -0.14366304      -0.74746908
C        0.94057563       0.80848449       0.76769650
C        2.06507744       0.55272023       0.12730757
N        1.65416475      -0.55294169      -0.66460885
C        0.31047571      -0.61663280      -0.01189020
O        0.23888577      -1.02968736       1.22532639
H       -2.12683008       0.60255168       0.72352381
H       -2.43697413      -1.03525778       0.23578127
H       -2.85526342       0.29124017      -0.86553854
H       -0.58062804       0.16677168      -1.76784113
H        0.43743949       1.41370187       1.49606834
H        3.04338719       1.00667619       0.14724120
H        2.18796989      -1.40346159      -0.51792477
14
Frame=2 idx=007008 GeodesicLength=0.15280611036895458 rxn_smarts="[C:1]([C@@:2]1([H:11])[C:3]([H:12])=[C:4]([H:13])[N:5]([H:14])[C:6]1=[O:7])([H:8])([H:9])[H:10]>>[C:1](/[C:2](=[C:6]1/[N:5]([H:14])[C:4]([H:13])=[C:3]([H:12])[O:7]1)[H:11])([H:8])([H:9])[H:10]"
C       -2.11657943      -0.05782952      -0.14807428
C       -0.75727817      -0.12237742      -0.73886515
C        0.93313855       0.80706263       0.77439701
C        2.05890281       0.55268041       0.13372540
N        1.65244032      -0.54952414      -0.66292250
C        0.31181817      -0.63952938      -0.02459234
O        0.24245385      -1.04833366       1.21256813
H       -2.15210597       0.65587415       0.68123958
H       -2.42246006      -1.01277366       0.29199526
H       -2.86363743       0.22510828      -0.88858481
H       -0.58352561       0.17618060      -1.76450706
H        0.45823022       1.41456761       1.51988925
H        3.04150427       0.99610835       0.16600968
H        2.19709847      -1.39721425      -0.55227817
14
Frame=3 idx=007008 GeodesicLength=0.22900547805984078 rxn_smarts="[C:1]([C@@:2]1([H:11])[C:3]([H:12])=[C:4]([H:13])[N:5]([H:14])[C:6]1=[O:7])([H:8])([H:9])[H:10]>>[C:1](/[C:2](=[C:6]1/[N:5]([H:14])[C:4]([H:13])=[C:3]([H:12])[O:7]1)[H:11])([H:8])([H:9])[H:10]"
C       -2.11681877      -0.05478756      -0.14811782
C       -0.75155195      -0.10188007      -0.72958021
C        0.92575126       0.80447223       0.78284947
C        2.05252331       0.55189962       0.14124938
N        1.65063333      -0.54645435      -0.66063974
C        0.31289869      -0.66262609      -0.03797327
O        0.24577368      -1.06830044       1.19886789
H       -2.17930755       0.70816369       0.63423306
H       -2.40854331      -0.98519424       0.34904276
H       -2.86787217       0.15660956      -0.90860692
H       -0.58630030       0.18610680      -1.76004031
H        0.47882252       1.41477074       1.54353913
H        3.03820779       0.98722675       0.18269454
H        2.20578347      -1.39000664      -0.58751795
14
Frame=4 idx=007008 GeodesicLength=0.3052739813773956 rxn_smarts="[C:1]([C@@:2]1([H:11])[C:3]([H:12])=[C:4]([H:13])[N:5]([H:14])[C:6]1=[O:7])([H:8])([H:9])[H:10]>>[C:1](/[C:2](=[C:6]1/[N:5]([H:14])[C:4]([H:13])=[C:3]([H:12])[O:7]1)[H:11])([H:8])([H:9])[H:10]"
C       -2.11661283      -0.05128470      -0.14775630
C       -0.74565126      -0.08210649      -0.72013607
C        0.91812580       0.80120680       0.79237669
C        2.04577400       0.55098823       0.14937184
N        1.64861175      -0.54290905      -0.65856922
C        0.31371317      -0.68547581      -0.05276292
O        0.24917024      -1.08929824       1.18347200
H       -2.20833664       0.76033525       0.58070183
H       -2.39391886      -0.95106544       0.40926963
H       -2.86919374       0.08262607      -0.92453761
H       -0.58961398       0.19664913      -1.75502723
H        0.49898856       1.41443513       1.56679352
H        3.03496194       0.97667008       0.20187819
H        2.21398186      -1.38077097      -0.62507435
14
Frame=5 idx=007008 GeodesicLength=0.3813752965354583 rxn_smarts="[C:1]([C@@:2]1([H:11])[C:3]([H:12])=[C:4]([H:13])[N:5]([H:14])[C:6]1=[O:7])([H:8])([H:9])[H:10]>>[C:1](/[C:2](=[C:6]1/[N:5]([H:14])[C:4]([H:13])=[C:3]([H:12])[O:7]1)[H:11])([H:8])([H:9])[H:10]"
C       -2.11592887      -0.04736064      -0.14704698
C       -0.73924421      -0.06259617      -0.71002025
C        0.91077317       0.79669829       0.80373678
C        2.03900243       0.54895134       0.15874975
N        1.64642556      -0.53996833      -0.65576747
C        0.31411867      -0.70827080      -0.06831346
O        0.25194049      -1.11137795       1.16704829
H       -2.23975000       0.80992430       0.52172183
H       -2.37931713      -0.91112818       0.46955090
H       -2.86627783       0.00591371      -0.93597709
H       -0.59267666       0.20852838      -1.74884432
H        0.51895103       1.41376045       1.58975309
H        3.03063333       0.96748011       0.21884801
H        2.22135002      -1.37055450      -0.66343908
14
Frame=6 idx=007008 GeodesicLength=0.4574536702198582 rxn_smarts="[C:1]([C@@:2]1([H:11])[C:3]([H:12])=[C:4]([H:13])[N:5]([H:14])[C:6]1=[O:7])([H:8])([H:9])[H:10]>>[C:1](/[C:2](=[C:6]1/[N:5]([H:14])[C:4]([H:13])=[C:3]([H:12])[O:7]1)[H:11])([H:8])([H:9])[H:10]"
C       -2.11476068      -0.04289579      -0.14595513
C       -0.73256789      -0.04366967      -0.69983600
C        0.90320197       0.79118967       0.81638542
C        2.03189443       0.54635871       0.16902432
N        1.64405747      -0.53696756      -0.65284506
C        0.31416874      -0.73083118      -0.08530974
O        0.25429941      -1.13452496       1.14886687
H       -2.27294701       0.85717058       0.45583573
H       -2.36371725      -0.86368996       0.53148864
H       -2.85984509      -0.07503407      -0.94132648
H       -0.59602115       0.22121509      -1.74220525
H        0.53822695       1.41262135       1.61229210
H        3.02597932       0.95736309       0.23721770
H        2.22803076      -1.35830531      -0.70363311
14
Frame=7 idx=007008 GeodesicLength=0.5335541174105446 rxn_smarts="[C:1]([C@@:2]1([H:11])[C:3]([H:12])=[C:4]([H:13])[N:5]([H:14])[C:6]1=[O:7])([H:8])([H:9])[H:10]>>[C:1](/[C:2](=[C:6]1/[N:5]([H:14])[C:4]([H:13])=[C:3]([H:12])[O:7]1)[H:11])([H:8])([H:9])[H:10]"
C       -2.11312105      -0.03790178      -0.14454123
C       -0.72536814      -0.02464079      -0.68907300
C        0.89594040       0.78422304       0.83099700
C        2.02479968       0.54229040       0.18076774
N        1.64144903      -0.53475387      -0.64911753
C        0.31364121      -0.75313026      -0.10326660
O        0.25551198      -1.15868731       1.12938885
H       -2.30856389       0.90009796       0.38370258
H       -2.34757860      -0.80941362       0.59261462
H       -2.84884936      -0.15852685      -0.94043835
H       -0.59905924       0.23556161      -1.73452550
H        0.55734101       1.41110391       1.63475043
H        3.02031781       0.94865150       0.25327480
H        2.23353917      -1.34487394      -0.74453382
14
Frame=8 idx=007008 GeodesicLength=0.60973368010568 rxn_smarts="[C:1]([C@@:2]1([H:11])[C:3]([H:12])=[C:4]([H:13])[N:5]([H:14])[C:6]1=[O:7])([H:8])([H:9])[H:10]>>[C:1](/[C:2](=[C:6]1/[N:5]([H:14])[C:4]([H:13])=[C:3]([H:12])[O:7]1)[H:11])([H:8])([H:9])[H:10]"
C       -2.11115465      -0.03239758      -0.14290234
C       -0.71778260      -0.00519037      -0.67784034
C        0.88900602       0.77640310       0.84703385
C        2.01778311       0.53694183       0.19365814
N        1.63846494      -0.53318842      -0.64470737
C        0.31240570      -0.77468545      -0.12223813
O        0.25544700      -1.18304835       1.10867302
H       -2.34665794       0.93698526       0.30616690
H       -2.33048230      -0.74874303       0.65171622
H       -2.83349847      -0.24401676      -0.93233913
H       -0.60209128       0.25123320      -1.72611302
H        0.57646849       1.41010562       1.65650658
H        3.01448471       0.93946965       0.26890622
H        2.23760727      -1.32986870      -0.78652060
14
Frame=9 idx=007008 GeodesicLength=0.6863698943931699 rxn_smarts="[C:1]([C@@:2]1([H:11])[C:3]([H:12])=[C:4]([H:13])[N:5]([H:14])[C:6]1=[O:7])([H:8])([H:9])[H:10]>>[C:1](/[C:2](=[C:6]1/[N:5]([H:14])[C:4]([H:13])=[C:3]([H:12])[O:7]1)[H:11])([H:8])([H:9])[H:10]"
C       -2.10884165      -0.02633388      -0.14105338
C       -0.70997668       0.01439774      -0.66672443
C        0.88191135       0.76791105       0.86405679
C        2.01054284       0.53079204       0.20742136
N        1.63512011      -0.53173101      -0.64010783
C        0.31053267      -0.79534320      -0.14280401
O        0.25417755      -1.20759726       1.08608843
H       -2.38681957       0.96733157       0.22221460
H       -2.31149444      -0.67989806       0.70963834
H       -2.81405940      -0.33224486      -0.91516261
H       -0.60555207       0.26765902      -1.71764583
H        0.59514995       1.40945570       1.67747052
H        3.00896002       0.92778841       0.28712544
H        2.24034932      -1.31218724      -0.83051740
14
Frame=10 idx=007008 GeodesicLength=0.7630670898086634 rxn_smarts="[C:1]([C@@:2]1([H:11])[C:3]([H:12])=[C:4]([H:13])[N:5]([H:14])[C:6]1=[O:7])([H:8])([H:9])[H:10]>>[C:1](/[C:2](=[C:6]1/[N:5]([H:14])[C:4]([H:13])=[C:3]([H:12])[O:7]1)[H:11])([H:8])([H:9])[H:10]"
C       -2.10592795      -0.01970153      -0.13925809
C       -0.70144729       0.03367327      -0.65539060
C        0.87477747       0.75770036       0.88307060
C        2.00316952       0.52246892       0.22319930
N        1.63160463      -0.53199291      -0.63387662
C        0.30788535      -0.81586110      -0.16407675
O        0.25060460      -1.23284501       1.06253423
H       -2.42671174       0.98940140       0.13485252
H       -2.29221744      -0.60545149       0.76255747
H       -2.79035566      -0.41728626      -0.89025542
H       -0.60818981       0.28481328      -1.70858550
H        0.61379766       1.40830464       1.69858307
H        3.00130516       0.92021697       0.30046732
H        2.24170550      -1.29344055      -0.87382154
14
Frame=11 idx=007008 GeodesicLength=0.8404387331376839 rxn_smarts="[C:1]([C@@:2]1([H:11])[C:3]([H:12])=[C:4]([H:13])[N:5]([H:14])[C:6]1=[O:7])([H:8])([H:9])[H:10]>>[C:1](/[C:2](=[C:6]1/[N:5]([H:14])[C:4]([H:13])=[C:3]([H:12])[O:7]1)[H:11])([H:8])([H:9])[H:10]"
C       -2.10295355      -0.01305732      -0.13741312
C       -0.69295399       0.05334741      -0.64423055
C        0.86763436       0.74833656       0.90183720
C        1.99564953       0.51392635       0.23881524
N        1.62746108      -0.53245617      -0.62747870
C        0.30445062      -0.83470820      -0.18648700
O        0.24571521      -1.25630279       1.03795620
H       -2.46841263       1.00140786       0.04505548
H       -2.27137695      -0.52614060       0.81066677
H       -2.76283843      -0.50165175      -0.85618803
H       -0.61153901       0.30239188      -1.69964913
H        0.63259405       1.40974628       1.71721983
H        2.99545990       0.90644542       0.31920868
H        2.24110980      -1.27128492      -0.91931287
14
Frame=12 idx=007008 GeodesicLength=0.9175644570113521 rxn_smarts="[C:1]([C@@:2]1([H:11])[C:3]([H:12])=[C:4]([H:13])[N:5]([H:14])[C:6]1=[O:7])([H:8])([H:9])[H:10]>>[C:1](/[C:2](=[C:6]1/[N:5]([H:14])[C:4]([H:13])=[C:3]([H:12])[O:7]1)[H:11])([H:8])([H:9])[H:10]"
C       -2.09936231      -0.00606639      -0.13603557
C       -0.68353999       0.07186447      -0.63288924
C        0.86032647       0.73754166       0.92233168
C        1.98799026       0.50278472       0.25660047
N        1.62329279      -0.53579561      -0.61848099
C        0.30028817      -0.85384582      -0.20865109
O        0.23810320      -1.27986826       1.01368295
H       -2.50654296       1.00440900      -0.04258840
H       -2.25162135      -0.44616608       0.85036477
H       -2.73284599      -0.57694311      -0.81714162
H       -0.61322160       0.31986036      -1.69010567
H        0.65162102       1.41115208       1.73561337
H        2.98646689       0.89959191       0.33008004
H        2.23904540      -1.24851893      -0.96278067
14
Frame=13 idx=007008 GeodesicLength=0.9952992529821343 rxn_smarts="[C:1]([C@@:2]1([H:11])[C:3]([H:12])=[C:4]([H:13])[N:5]([H:14])[C:6]1=[O:7])([H:8])([H:9])[H:10]>>[C:1](/[C:2](=[C:6]1/[N:5]([H:14])[C:4]([H:13])=[C:3]([H:12])[O:7]1)[H:11])([H:8])([H:9])[H:10]"
C       -2.09567402       0.00061983      -0.13486865
C       -0.67411572       0.08976707      -0.62200619
C        0.85271396       0.72814482       0.94205981
C        1.97998187       0.49166789       0.27395080
N        1.61866058      -0.53995928      -0.60879366
C        0.29556448      -0.87175229      -0.23126494
O        0.22928990      -1.30119134       0.98936585
H       -2.54394296       0.99768244      -0.12870677
H       -2.23128688      -0.36470261       0.88373683
H       -2.70062203      -0.64786697      -0.77115177
H       -0.61514259       0.33667149      -1.68093448
H        0.67064688       1.41561450       1.75093386
H        2.97909570       0.88673865       0.34616961
H        2.23483085      -1.22143423      -1.00849032
14
Frame=14 idx=007008 GeodesicLength=1.0728000784266394 rxn_smarts="[C:1]([C@@:2]1([H:11])[C:3]([H:12])=[C:4]([H:13])[N:5]([H:14])[C:6]1=[O:7])([H:8])([H:9])[H:10]>>[C:1](/[C:2](=[C:6]1/[N:5]([H:14])[C:4]([H:13])=[C:3]([H:12])[O:7]1)[H:11])([H:8])([H:9])[H:10]"
C       -2.09145259       0.00738313      -0.13439824
C       -0.66372640       0.10605678      -0.61082725
C        0.84504461       0.71789444       0.96307369
C        1.97192842       0.47804702       0.29313638
N        1.61410006      -0.54756450      -0.59621341
C        0.29032066      -0.89018415      -0.25293840
O        0.21812544      -1.32216730       0.96629249
H       -2.57645225       0.98393132      -0.21007516
H       -2.21281117      -0.28574222       0.90883382
H       -2.66763682      -0.70876009      -0.72327068
H       -0.61495247       0.35291668      -1.67105608
H        0.69011458       1.42046274       1.76547733
H        2.96873878       0.88029498       0.35471343
H        2.22865916      -1.19256884      -1.05274791
14
Frame=15 idx=007008 GeodesicLength=1.1501726455485837 rxn_smarts="[C:1]([C@@:2]1([H:11])[C:3]([H:12])=[C:4]([H:13])[N:5]([H:14])[C:6]1=[O:7])([H:8])([H:9])[H:10]>>[C:1](/[C:2](=[C:6]1/[N:5]([H:14])[C:4]([H:13])=[C:3]([H:12])[O:7]1)[H:11])([H:8])([H:9])[H:10]"
C       -2.08694858       0.01376834      -0.13452504
C       -0.65275852       0.12077875      -0.59948452
C        0.83739741       0.70833783       0.98410172
C        1.96376799       0.46329172       0.31269940
N        1.60948018      -0.55796466      -0.58145007
C        0.28472204      -0.90863639      -0.27358343
O        0.20555160      -1.34161175       0.94482218
H       -2.60510443       0.96378261      -0.28639673
H       -2.19593264      -0.21010733       0.92692660
H       -2.63437912      -0.76155445      -0.67409489
H       -0.61335365       0.36802053      -1.66079516
H        0.71015665       1.42735810       1.77771444
H        2.95767460       0.87405546       0.36164550
H        2.21972645      -1.15951876      -1.09758000
14
Frame=16 idx=007008 GeodesicLength=1.2274718564827563 rxn_smarts="[C:1]([C@@:2]1([H:11])[C:3]([H:12])=[C:4]([H:13])[N:5]([H:14])[C:6]1=[O:7])([H:8])([H:9])[H:10]>>[C:1](/[C:2](=[C:6]1/[N:5]([H:14])[C:4]([H:13])=[C:3]([H:12])[O:7]1)[H:11])([H:8])([H:9])[H:10]"
C       -2.08198097       0.01991460      -0.13524699
C       -0.64106337       0.13369152      -0.58809207
C        0.82973281       0.69892041       1.00539762
C        1.95543714       0.44718959       0.33278423
N        1.60498775      -0.57135264      -0.56464331
C        0.27897026      -0.92743777      -0.29333668
O        0.19167372      -1.36021591       0.92465666
H       -2.62931035       0.93862562      -0.35866660
H       -2.18035467      -0.13686294       0.93905948
H       -2.60138094      -0.80707932      -0.62368413
H       -0.61012347       0.38185339      -1.65024603
H        0.73058898       1.43501162       1.78833525
H        2.94516653       0.86921932       0.36594300
H        2.20765659      -1.12147749      -1.14226043
