12
Frame=0 idx=000614 GeodesicLength=0.0 rxn_smarts="[C:1]1([H:7])([H:8])[C@@:2]2([H:9])[C@:3]3([H:10])[O:4][C@@:5]2([H:11])[C@:6]13[H:12]>>[C:1]1([H:7])([H:8])[C:2]([H:9])=[C:3]([H:10])[C@@:6]1([C:5](=[O:4])[H:11])[H:12]"
C        1.08302941      -0.65512585      -0.02551067
C       -0.10689047      -0.50339213       0.91927840
C       -0.25064407       0.89074836       0.63793001
O       -1.92077769       0.82379405      -0.35783770
C       -0.99336952      -0.05767662      -0.63071395
C        0.40165873       0.56081940      -0.67384971
H        1.11190582      -1.55708157      -0.64314856
H        2.06044756      -0.46517528       0.41696722
H       -0.45264188      -1.08083830       1.76560035
H       -0.50124318       1.78859843       1.18805224
H       -1.17643284      -1.00348110      -1.16881368
H        0.74495809       1.25881056      -1.42795400
12
Frame=1 idx=000614 GeodesicLength=0.05126620000669536 rxn_smarts="[C:1]1([H:7])([H:8])[C@@:2]2([H:9])[C@:3]3([H:10])[O:4][C@@:5]2([H:11])[C@:6]13[H:12]>>[C:1]1([H:7])([H:8])[C:2]([H:9])=[C:3]([H:10])[C@@:6]1([C:5](=[O:4])[H:11])[H:12]"
C        1.08358317      -0.65400851      -0.02324101
C       -0.10574454      -0.50441444       0.92212811
C       -0.25274296       0.89001993       0.64226273
O       -1.91899513       0.83090404      -0.37713314
C       -0.99807821      -0.06020127      -0.64298051
C        0.39681891       0.55871003      -0.67287664
H        1.11423295      -1.55761704      -0.63820767
H        2.06230032      -0.45971523       0.41453142
H       -0.44326377      -1.08205188       1.77199714
H       -0.49157556       1.78707091       1.19886345
H       -1.18902926      -1.00865888      -1.17241912
H        0.74249408       1.25996235      -1.42292473
12
Frame=2 idx=000614 GeodesicLength=0.10250982703962006 rxn_smarts="[C:1]1([H:7])([H:8])[C@@:2]2([H:9])[C@:3]3([H:10])[O:4][C@@:5]2([H:11])[C@:6]13[H:12]>>[C:1]1([H:7])([H:8])[C:2]([H:9])=[C:3]([H:10])[C@@:6]1([C:5](=[O:4])[H:11])[H:12]"
C        1.08410758      -0.65284159      -0.02093717
C       -0.10459967      -0.50542278       0.92504261
C       -0.25497778       0.88928624       0.64662463
O       -1.91710787       0.83781751      -0.39649789
C       -1.00274511      -0.06274248      -0.65551694
C        0.39190498       0.55660153      -0.67185245
H        1.11655191      -1.55808959      -0.63323060
H        2.06409000      -0.45417790       0.41209575
H       -0.43382175      -1.08320695       1.77842294
H       -0.48161071       1.78546469       1.20968935
H       -1.20181453      -1.01379118      -1.17605091
H        0.74002296       1.26110249      -1.41778930
12
Frame=3 idx=000614 GeodesicLength=0.15372532723151364 rxn_smarts="[C:1]1([H:7])([H:8])[C@@:2]2([H:9])[C@:3]3([H:10])[O:4][C@@:5]2([H:11])[C@:6]13[H:12]>>[C:1]1([H:7])([H:8])[C:2]([H:9])=[C:3]([H:10])[C@@:6]1([C:5](=[O:4])[H:11])[H:12]"
C        1.08460317      -0.65162197      -0.01859734
C       -0.10345261      -0.50641333       0.92802618
C       -0.25734972       0.88854969       0.65101769
O       -1.91512510       0.84452022      -0.41591993
C       -1.00736208      -0.06530045      -0.66833026
C        0.38691530       0.55449519      -0.67077561
H        1.11886381      -1.55849504      -0.62821682
H        2.06581589      -0.44856264       0.40966370
H       -0.42433206      -1.08430586       1.78486894
H       -0.47133049       1.78377627       1.22052195
H       -1.21478520      -1.01887015      -1.17970774
H        0.73753910       1.26222807      -1.41255077
12
Frame=4 idx=000614 GeodesicLength=0.20490951781128286 rxn_smarts="[C:1]1([H:7])([H:8])[C@@:2]2([H:9])[C@:3]3([H:10])[O:4][C@@:5]2([H:11])[C@:6]13[H:12]>>[C:1]1([H:7])([H:8])[C:2]([H:9])=[C:3]([H:10])[C@@:6]1([C:5](=[O:4])[H:11])[H:12]"
C        1.08507109      -0.65034673      -0.01621973
C       -0.10229944      -0.50738221       0.93108342
C       -0.25985892       0.88781329       0.65544462
O       -1.91305700       0.85099914      -0.43538684
C       -1.01192149      -0.06787569      -0.68142722
C        0.38184820       0.55239218      -0.66964448
H        1.12117026      -1.55882982      -0.62316578
H        2.06747830      -0.44286862       0.40723847
H       -0.41481234      -1.08535194       1.79132616
H       -0.46071794       1.78200185       1.23135195
H       -1.22793757      -1.02388753      -1.18338813
H        0.73503684       1.26333608      -1.40721245
12
Frame=5 idx=000614 GeodesicLength=0.25606718586818783 rxn_smarts="[C:1]1([H:7])([H:8])[C@@:2]2([H:9])[C@:3]3([H:10])[O:4][C@@:5]2([H:11])[C@:6]13[H:12]>>[C:1]1([H:7])([H:8])[C:2]([H:9])=[C:3]([H:10])[C@@:6]1([C:5](=[O:4])[H:11])[H:12]"
C        1.08551387      -0.64901354      -0.01380251
C       -0.10113520      -0.50832519       0.93421913
C       -0.26250391       0.88708215       0.65990900
O       -1.91091642       0.85724355      -0.45488652
C       -1.01641730      -0.07046997      -0.69481490
C        0.37670233       0.55029409      -0.66845714
H        1.12347367      -1.55909211      -0.61807688
H        2.06908018      -0.43709536       0.40482325
H       -0.40528084      -1.08634932       1.79778531
H       -0.44975875       1.78013667       1.24216927
H       -1.24126863      -1.02883445      -1.18709032
H        0.73251102       1.26442349      -1.40177769
12
Frame=6 idx=000614 GeodesicLength=0.30715219357225987 rxn_smarts="[C:1]1([H:7])([H:8])[C@@:2]2([H:9])[C@:3]3([H:10])[O:4][C@@:5]2([H:11])[C@:6]13[H:12]>>[C:1]1([H:7])([H:8])[C:2]([H:9])=[C:3]([H:10])[C@@:6]1([C:5](=[O:4])[H:11])[H:12]"
C        1.08592462      -0.64761870      -0.01134721
C       -0.09995578      -0.50923264       0.93744237
C       -0.26528885       0.88635347       0.66440884
O       -1.90869962       0.86322992      -0.47439740
C       -1.02082915      -0.07308255      -0.70849664
C        0.37147068       0.54819691      -0.66721571
H        1.12576494      -1.55927655      -0.61294828
H        2.07061344      -0.43124321       0.40241068
H       -0.39575624      -1.08729542       1.80424450
H       -0.43844107       1.77817927       1.25296825
H       -1.25475978      -1.03369752      -1.19082213
H        0.72995681       1.26548702      -1.39624727
12
Frame=7 idx=000614 GeodesicLength=0.3582172456978674 rxn_smarts="[C:1]1([H:7])([H:8])[C@@:2]2([H:9])[C@:3]3([H:10])[O:4][C@@:5]2([H:11])[C@:6]13[H:12]>>[C:1]1([H:7])([H:8])[C:2]([H:9])=[C:3]([H:10])[C@@:6]1([C:5](=[O:4])[H:11])[H:12]"
C        1.08630869      -0.64616238      -0.00884916
C       -0.09876372      -0.51011213       0.94075039
C       -0.26821529       0.88563047       0.66895191
O       -1.90642375       0.86896963      -0.49394209
C       -1.02516506      -0.07571502      -0.72248781
C        0.36615133       0.54610230      -0.66591555
H        1.12805389      -1.55938575      -0.60777760
H        2.07208248      -0.42530414       0.40001228
H       -0.38622371      -1.08819563       1.81070879
H       -0.42674526       1.77611556       1.26374169
H       -1.26842881      -1.03847133      -1.19457687
H        0.72736920       1.26652843      -1.39061599
12
Frame=8 idx=000614 GeodesicLength=0.40924349702915047 rxn_smarts="[C:1]1([H:7])([H:8])[C@@:2]2([H:9])[C@:3]3([H:10])[O:4][C@@:5]2([H:11])[C@:6]13[H:12]>>[C:1]1([H:7])([H:8])[C:2]([H:9])=[C:3]([H:10])[C@@:6]1([C:5](=[O:4])[H:11])[H:12]"
C        1.08665979      -0.64464028      -0.00630589
C       -0.09757085      -0.51096317       0.94414378
C       -0.27129973       0.88490977       0.67353883
O       -1.90408696       0.87446281      -0.51353041
C       -1.02940981      -0.07837438      -0.73679856
C        0.36073608       0.54400804      -0.66455623
H        1.13034231      -1.55941578      -0.60256091
H        2.07348022      -0.41926741       0.39762790
H       -0.37667260      -1.08903846       1.81719424
H       -0.41463724       1.77391859       1.27448879
H       -1.28228298      -1.04315116      -1.19836486
H        0.72474178       1.26755142      -1.38487668
12
Frame=9 idx=000614 GeodesicLength=0.46023628925911503 rxn_smarts="[C:1]1([H:7])([H:8])[C@@:2]2([H:9])[C@:3]3([H:10])[O:4][C@@:5]2([H:11])[C@:6]13[H:12]>>[C:1]1([H:7])([H:8])[C:2]([H:9])=[C:3]([H:10])[C@@:6]1([C:5](=[O:4])[H:11])[H:12]"
C        1.08697619      -0.64305371      -0.00371702
C       -0.09635824      -0.51178047       0.94763105
C       -0.27452364       0.88419396       0.67817099
O       -1.90169405       0.87969612      -0.53314438
C       -1.03356158      -0.08105741      -0.75143499
C        0.35522243       0.54191199      -0.66313658
H        1.13261946      -1.55936716      -0.59729061
H        2.07480158      -0.41313935       0.39525052
H       -0.36711424      -1.08982849       1.82369372
H       -0.40213955       1.77158177       1.28519134
H       -1.29629790      -1.04770574      -1.20218096
H        0.72206953       1.26854848      -1.37903307
12
Frame=10 idx=000614 GeodesicLength=0.5112104911890155 rxn_smarts="[C:1]1([H:7])([H:8])[C@@:2]2([H:9])[C@:3]3([H:10])[O:4][C@@:5]2([H:11])[C@:6]13[H:12]>>[C:1]1([H:7])([H:8])[C:2]([H:9])=[C:3]([H:10])[C@@:6]1([C:5](=[O:4])[H:11])[H:12]"
C        1.08725993      -0.64140223      -0.00107928
C       -0.09514085      -0.51256564       0.95121403
C       -0.27790581       0.88348307       0.68285594
O       -1.89925454       0.88467657      -0.55279809
C       -1.03761006      -0.08376960      -0.76641001
C        0.34960359       0.53981053      -0.66165605
H        1.13489576      -1.55924240      -0.59196903
H        2.07605359      -0.40691173       0.39288559
H       -0.35753357      -1.09055316       1.83022924
H       -0.38922096       1.76908776       1.29585342
H       -1.31049271      -1.05213543      -1.20604634
H        0.71934561       1.26952225      -1.37307942
12
Frame=11 idx=000614 GeodesicLength=0.5621551755930516 rxn_smarts="[C:1]1([H:7])([H:8])[C@@:2]2([H:9])[C@:3]3([H:10])[O:4][C@@:5]2([H:11])[C@:6]13[H:12]>>[C:1]1([H:7])([H:8])[C:2]([H:9])=[C:3]([H:10])[C@@:6]1([C:5](=[O:4])[H:11])[H:12]"
C        1.08750218      -0.63968258       0.00160980
C       -0.09392061      -0.51332369       0.95489044
C       -0.28144701       0.88277122       0.68759430
O       -1.89675843       0.88940203      -0.57250275
C       -1.04154846      -0.08651186      -0.78173386
C        0.34387260       0.53770066      -0.66010939
H        1.13716292      -1.55903968      -0.58658435
H        2.07721976      -0.40057188       0.39053137
H       -0.34790740      -1.09120763       1.83681139
H       -0.37587049       1.76640825       1.30645644
H       -1.32486744      -1.05641743      -1.20996019
H        0.71656237       1.27047258      -1.36700320
12
Frame=12 idx=000614 GeodesicLength=0.6130628030079566 rxn_smarts="[C:1]1([H:7])([H:8])[C@@:2]2([H:9])[C@:3]3([H:10])[O:4][C@@:5]2([H:11])[C@:6]13[H:12]>>[C:1]1([H:7])([H:8])[C:2]([H:9])=[C:3]([H:10])[C@@:6]1([C:5](=[O:4])[H:11])[H:12]"
C        1.08770639      -0.63789589       0.00435065
C       -0.09268758      -0.51404466       0.95867336
C       -0.28513624       0.88206594       0.69239460
O       -1.89421604       0.89386593      -0.59223365
C       -1.04536291      -0.08928687      -0.79740292
C        0.33802520       0.53557849      -0.65849674
H        1.13942022      -1.55875767      -0.58114137
H        2.07830898      -0.39412431       0.38818295
H       -0.33826693      -1.09179931       1.84342757
H       -0.36209859       1.76354726       1.31698683
H       -1.33940494      -1.06053871      -1.21392646
H        0.71371245       1.27138980      -1.36081485
12
Frame=13 idx=000614 GeodesicLength=0.6639588202421621 rxn_smarts="[C:1]1([H:7])([H:8])[C@@:2]2([H:9])[C@:3]3([H:10])[O:4][C@@:5]2([H:11])[C@:6]13[H:12]>>[C:1]1([H:7])([H:8])[C:2]([H:9])=[C:3]([H:10])[C@@:6]1([C:5](=[O:4])[H:11])[H:12]"
C        1.08787220      -0.63604142       0.00714701
C       -0.09144131      -0.51473123       0.96256691
C       -0.28897611       0.88136617       0.69726271
O       -1.89162654       0.89807670      -0.61200281
C       -1.04905230      -0.09209345      -0.81343111
C        0.33205406       0.53344026      -0.65681696
H        1.14167407      -1.55839780      -0.57563260
H        2.07931745      -0.38756241       0.38584233
H       -0.32859514      -1.09232646       1.85009341
H       -0.34789941       1.76047728       1.32743027
H       -1.35411268      -1.06447928      -1.21794841
H        0.71078570       1.27227163      -1.35451074
12
Frame=14 idx=000614 GeodesicLength=0.7148414774916032 rxn_smarts="[C:1]1([H:7])([H:8])[C@@:2]2([H:9])[C@:3]3([H:10])[O:4][C@@:5]2([H:11])[C@:6]13[H:12]>>[C:1]1([H:7])([H:8])[C:2]([H:9])=[C:3]([H:10])[C@@:6]1([C:5](=[O:4])[H:11])[H:12]"
C        1.08799328      -0.63412209       0.00999935
C       -0.09018595      -0.51538507       0.96657414
C       -0.29296685       0.88066977       0.70220441
O       -1.88898706       0.90203570      -0.63181559
C       -1.05260646      -0.09493388      -0.82982579
C        0.32595199       0.53127958      -0.65506672
H        1.14391465      -1.55796557      -0.57005303
H        2.08024085      -0.38088426       0.38350007
H       -0.31886144      -1.09277273       1.85683109
H       -0.33328602       1.75717748       1.33777406
H       -1.36898748      -1.06821597      -1.22204319
H        0.70778049       1.27311703      -1.34807879
12
Frame=15 idx=000614 GeodesicLength=0.7657200934720384 rxn_smarts="[C:1]1([H:7])([H:8])[C@@:2]2([H:9])[C@:3]3([H:10])[O:4][C@@:5]2([H:11])[C@:6]13[H:12]>>[C:1]1([H:7])([H:8])[C:2]([H:9])=[C:3]([H:10])[C@@:6]1([C:5](=[O:4])[H:11])[H:12]"
C        1.08806568      -0.63214104       0.01290790
C       -0.08892220      -0.51600723       0.97069901
C       -0.29710665       0.87997623       0.70722531
O       -1.88629640       0.90574861      -0.65167588
C       -1.05601817      -0.09780825      -0.84659599
C        0.31971078       0.52909036      -0.65324487
H        1.14613683      -1.55746838      -0.56439503
H        2.08107501      -0.37409020       0.38115037
H       -0.30903561      -1.09312485       1.86366062
H       -0.31827513       1.75362720       1.34800773
H       -1.38402632      -1.07172504      -1.22622727
H        0.70469217       1.27392260      -1.34151190
12
Frame=16 idx=000614 GeodesicLength=0.8165852452061227 rxn_smarts="[C:1]1([H:7])([H:8])[C@@:2]2([H:9])[C@:3]3([H:10])[O:4][C@@:5]2([H:11])[C@:6]13[H:12]>>[C:1]1([H:7])([H:8])[C:2]([H:9])=[C:3]([H:10])[C@@:6]1([C:5](=[O:4])[H:11])[H:12]"
C        1.08809066      -0.63010091       0.01587114
C       -0.08763648      -0.51659056       0.97495281
C       -0.30137501       0.87929149       0.71233451
O       -1.88355366       0.90921332      -0.67155849
C       -1.05927549      -0.10071412      -0.86373710
C        0.31332839       0.52686725      -0.65134917
H        1.14833186      -1.55691123      -0.55865587
H        2.08182501      -0.36718822       0.37877888
H       -0.29912624      -1.09338353       1.87058048
H       -0.30291263       1.74982160       1.35810865
H       -1.39921196      -1.07498071      -1.23051001
H        0.70151554       1.27467563      -1.33481582
