14
Frame=0 idx=003046 GeodesicLength=0.0 rxn_smarts="[O:1]([C:2]([C:3]1([O:4][H:10])[C:5]([H:11])([H:12])[C:6]1([H:13])[H:14])([H:8])[H:9])[H:7]>>[C:3]1([O:4][H:10])([H:9])[C:5]([H:11])([H:12])[C:6]1([H:13])[H:14].[O:1]([C:2][H:8])[H:7]"
O        2.42347031      -0.20274571       0.33765935
C        1.67365556      -0.18982983      -0.79609568
C       -0.21169423       0.39810055       0.12154798
O        0.13876029       1.04210948       1.28127906
C       -1.25338662      -0.66474201       0.09529785
C       -1.52292219       0.70086926      -0.50146469
H        2.35999695      -1.04716708       0.79928727
H        1.26072643      -1.18296807      -1.00681534
H        0.71094613       0.60565872      -0.76432104
H        1.04256039       0.77508018       1.49950605
H       -1.72632407      -0.88878829       1.04361758
H       -1.14797451      -1.50596793      -0.57835409
H       -1.57815162       0.78780336      -1.57958238
H       -2.16966284       1.37258740       0.04843808
14
Frame=1 idx=003046 GeodesicLength=0.07257488523793554 rxn_smarts="[O:1]([C:2]([C:3]1([O:4][H:10])[C:5]([H:11])([H:12])[C:6]1([H:13])[H:14])([H:8])[H:9])[H:7]>>[C:3]1([O:4][H:10])([H:9])[C:5]([H:11])([H:12])[C:6]1([H:13])[H:14].[O:1]([C:2][H:8])[H:7]"
O        2.40969186      -0.24779881       0.35285440
C        1.68397007      -0.18054612      -0.79403536
C       -0.20205493       0.41284771       0.11506227
O        0.13692532       1.06871219       1.27377281
C       -1.22977571      -0.66611690       0.10497961
C       -1.52249882       0.69078213      -0.49989784
H        2.27853896      -1.08863401       0.80751215
H        1.26477575      -1.15883474      -1.05781964
H        0.72448790       0.64467919      -0.77332769
H        1.03702850       0.80198974       1.50566366
H       -1.69358867      -0.89051415       1.05768365
H       -1.12308408      -1.51067634      -0.56435981
H       -1.58797231       0.76868958      -1.57808403
H       -2.17644383       1.35542052       0.04999584
14
Frame=2 idx=003046 GeodesicLength=0.14516442757422143 rxn_smarts="[O:1]([C:2]([C:3]1([O:4][H:10])[C:5]([H:11])([H:12])[C:6]1([H:13])[H:14])([H:8])[H:9])[H:7]>>[C:3]1([O:4][H:10])([H:9])[C:5]([H:11])([H:12])[C:6]1([H:13])[H:14].[O:1]([C:2][H:8])[H:7]"
O        2.39503354      -0.29096200       0.36579986
C        1.69348337      -0.17366908      -0.79156445
C       -0.19281837       0.42665630       0.10874482
O        0.13502109       1.09313747       1.26682019
C       -1.20731366      -0.66717124       0.11396743
C       -1.52157304       0.68125639      -0.49828820
H        2.20053447      -1.12405416       0.81281516
H        1.26951506      -1.13619029      -1.10353884
H        0.73782037       0.68183302      -0.78185935
H        1.03109582       0.82617916       1.51220759
H       -1.66249732      -0.89176832       1.07075717
H       -1.09953830      -1.51491027      -0.55125814
H       -1.59666548       0.75053802      -1.57639661
H       -2.18209755       1.33912501       0.05179335
14
Frame=3 idx=003046 GeodesicLength=0.2177801854734487 rxn_smarts="[O:1]([C:2]([C:3]1([O:4][H:10])[C:5]([H:11])([H:12])[C:6]1([H:13])[H:14])([H:8])[H:9])[H:7]>>[C:3]1([O:4][H:10])([H:9])[C:5]([H:11])([H:12])[C:6]1([H:13])[H:14].[O:1]([C:2][H:8])[H:7]"
O        2.37967597      -0.33251677       0.37677456
C        1.70225489      -0.16878340      -0.78882372
C       -0.18394036       0.43961195       0.10259392
O        0.13295692       1.11571125       1.26031790
C       -1.18586884      -0.66793319       0.12238978
C       -1.52020212       0.67218465      -0.49662187
H        2.12581311      -1.15440933       0.81568898
H        1.27483324      -1.11492812      -1.14490985
H        0.75097783       0.71746904      -0.78987576
H        1.02468261       0.84815069       1.51907351
H       -1.63287814      -0.89254752       1.08297956
H       -1.07716857      -1.51871987      -0.53885599
H       -1.60434133       0.73314353      -1.57450083
H       -2.18679520       1.32356709       0.05376981
14
Frame=4 idx=003046 GeodesicLength=0.2904268828857872 rxn_smarts="[O:1]([C:2]([C:3]1([O:4][H:10])[C:5]([H:11])([H:12])[C:6]1([H:13])[H:14])([H:8])[H:9])[H:7]>>[C:3]1([O:4][H:10])([H:9])[C:5]([H:11])([H:12])[C:6]1([H:13])[H:14].[O:1]([C:2][H:8])[H:7]"
O        2.36384680      -0.37261640       0.38599126
C        1.71032321      -0.16559150      -0.78594972
C       -0.17539418       0.45175914       0.09661021
O        0.13071074       1.13665209       1.25422708
C       -1.16541049      -0.66846462       0.13032065
C       -1.51845975       0.66352455      -0.49492124
H        2.05445059      -1.18035845       0.81666429
H        1.28056910      -1.09503775      -1.18263550
H        0.76396551       0.75185815      -0.79739813
H        1.01780476       0.86825339       1.52626268
H       -1.60466086      -0.89292645       1.09446625
H       -1.05596095      -1.52218779      -0.52706816
H       -1.61111923       0.71643852      -1.57244293
H       -2.19066524       1.30869711       0.05587326
14
Frame=5 idx=003046 GeodesicLength=0.3630381092883501 rxn_smarts="[O:1]([C:2]([C:3]1([O:4][H:10])[C:5]([H:11])([H:12])[C:6]1([H:13])[H:14])([H:8])[H:9])[H:7]>>[C:3]1([O:4][H:10])([H:9])[C:5]([H:11])([H:12])[C:6]1([H:13])[H:14].[O:1]([C:2][H:8])[H:7]"
O        2.34777656      -0.41124729       0.39356588
C        1.71770448      -0.16395971      -0.78299892
C       -0.16714801       0.46308791       0.09082668
O        0.12829038       1.15607250       1.24857410
C       -1.14596372      -0.66883334       0.13779595
C       -1.51637883       0.65527595      -0.49322280
H        1.98657561      -1.20215585       0.81598664
H        1.28654209      -1.07659110      -1.21708722
H        0.77679127       0.78513546      -0.80444740
H        1.01049298       0.88666918       1.53385933
H       -1.57784983      -0.89299166       1.10529003
H       -1.03599643      -1.52540844      -0.51587562
H       -1.61707769       0.70042221      -1.57030767
H       -2.19375886       1.29452418       0.05804101
14
Frame=6 idx=003046 GeodesicLength=0.4356760994448436 rxn_smarts="[O:1]([C:2]([C:3]1([O:4][H:10])[C:5]([H:11])([H:12])[C:6]1([H:13])[H:14])([H:8])[H:9])[H:7]>>[C:3]1([O:4][H:10])([H:9])[C:5]([H:11])([H:12])[C:6]1([H:13])[H:14].[O:1]([C:2][H:8])[H:7]"
O        2.33148698      -0.44872942       0.39967429
C        1.72446776      -0.16359666      -0.78005324
C       -0.15916133       0.47369985       0.08522969
O        0.12566434       1.17421800       1.24327428
C       -1.12740194      -0.66905830       0.14491853
C       -1.51400930       0.64735838      -0.49152408
H        1.92187341      -1.22059538       0.81402839
H        1.29276136      -1.05934417      -1.24891373
H        0.78947344       0.81756719      -0.81099572
H        1.00273332       0.90376903       1.54176356
H       -1.55228156      -0.89274873       1.11556924
H       -1.01708971      -1.52842077      -0.50511166
H       -1.62230124       0.68493943      -1.56808473
H       -2.19621552       1.28094154       0.06022519
14
Frame=7 idx=003046 GeodesicLength=0.5083475765467809 rxn_smarts="[O:1]([C:2]([C:3]1([O:4][H:10])[C:5]([H:11])([H:12])[C:6]1([H:13])[H:14])([H:8])[H:9])[H:7]>>[C:3]1([O:4][H:10])([H:9])[C:5]([H:11])([H:12])[C:6]1([H:13])[H:14].[O:1]([C:2][H:8])[H:7]"
O        2.31507117      -0.48519400       0.40443904
C        1.73065686      -0.16432857      -0.77716946
C       -0.15139496       0.48364563       0.07982097
O        0.12282345       1.19123841       1.23828976
C       -1.10965790      -0.66916728       0.15174931
C       -1.51137920       0.63973415      -0.48983479
H        1.86017757      -1.23615057       0.81102840
H        1.29916319      -1.04319084      -1.27851607
H        0.80201523       0.84932040      -0.81703106
H        0.99452778       0.91977264       1.54994839
H       -1.52786689      -0.89222375       1.12538076
H       -0.99916481      -1.53127461      -0.49469061
H       -1.62685455       0.66991449      -1.56579692
H       -2.19811695       1.26790391       0.06238226
14
Frame=8 idx=003046 GeodesicLength=0.5810281258941226 rxn_smarts="[O:1]([C:2]([C:3]1([O:4][H:10])[C:5]([H:11])([H:12])[C:6]1([H:13])[H:14])([H:8])[H:9])[H:7]>>[C:3]1([O:4][H:10])([H:9])[C:5]([H:11])([H:12])[C:6]1([H:13])[H:14].[O:1]([C:2][H:8])[H:7]"
O        2.29860474      -0.52072683       0.40793011
C        1.73629732      -0.16604809      -0.77439032
C       -0.14382843       0.49295254       0.07460362
O        0.11977196       1.20723130       1.23360655
C       -1.09271121      -0.66919209       0.15832291
C       -1.50851523       0.63238623      -0.48817132
H        1.80145983      -1.24910305       0.80720709
H        1.30567888      -1.02807979      -1.30617520
H        0.81441325       0.88051725      -0.82256447
H        0.98589712       0.93482111       1.55841813
H       -1.50456583      -0.89145915       1.13478084
H       -0.98220156      -1.53401509      -0.48456836
H       -1.63078277       0.65532168      -1.56347607
H       -2.19951807       1.25539398       0.06447651
14
Frame=9 idx=003046 GeodesicLength=0.6536298820679447 rxn_smarts="[O:1]([C:2]([C:3]1([O:4][H:10])[C:5]([H:11])([H:12])[C:6]1([H:13])[H:14])([H:8])[H:9])[H:7]>>[C:3]1([O:4][H:10])([H:9])[C:5]([H:11])([H:12])[C:6]1([H:13])[H:14].[O:1]([C:2][H:8])[H:7]"
O        2.28225115      -0.55525897       0.41018384
C        1.74138200      -0.16874369      -0.77173693
C       -0.13643776       0.50158300       0.06962085
O        0.11650413       1.22220979       1.22925847
C       -1.07659961      -0.66916269       0.16465855
C       -1.50541331       0.62531908      -0.48655914
H        1.74582369      -1.25943082       0.80258150
H        1.31218655      -1.01411049      -1.33201921
H        0.82667010       0.91119896      -0.82757595
H        0.97683803       0.94895307       1.56724177
H       -1.48242980      -0.89049198       1.14380189
H       -0.96627336      -1.53667426      -0.47473423
H       -1.63408069       0.64117977      -1.56117311
H       -2.20042113       1.24342922       0.06645170
14
Frame=10 idx=003046 GeodesicLength=0.7262355429876195 rxn_smarts="[O:1]([C:2]([C:3]1([O:4][H:10])[C:5]([H:11])([H:12])[C:6]1([H:13])[H:14])([H:8])[H:9])[H:7]>>[C:3]1([O:4][H:10])([H:9])[C:5]([H:11])([H:12])[C:6]1([H:13])[H:14].[O:1]([C:2][H:8])[H:7]"
O        2.26590859      -0.58910989       0.41130714
C        1.74597470      -0.17221736      -0.76926212
C       -0.12919238       0.50965815       0.06483302
O        0.11301929       1.23636673       1.22516115
C       -1.06118145      -0.66908199       0.17081615
C       -1.50211252       0.61847574      -0.48499042
H        1.69291170      -1.26776768       0.79749604
H        1.31871714      -1.00100063      -1.35645858
H        0.83878142       0.94156382      -0.83207733
H        0.96735958       0.96242164       1.57630582
H       -1.46126174      -0.88932110       1.15251531
H       -0.95117391      -1.53927564      -0.46508395
H       -1.63682366       0.62737223      -1.55886917
H       -2.20092674       1.23191597       0.06830695
14
Frame=11 idx=003046 GeodesicLength=0.7988481220604248 rxn_smarts="[O:1]([C:2]([C:3]1([O:4][H:10])[C:5]([H:11])([H:12])[C:6]1([H:13])[H:14])([H:8])[H:9])[H:7]>>[C:3]1([O:4][H:10])([H:9])[C:5]([H:11])([H:12])[C:6]1([H:13])[H:14].[O:1]([C:2][H:8])[H:7]"
O        2.24962515      -0.62234198       0.41134948
C        1.75010356      -0.17639402      -0.76699422
C       -0.12206418       0.51720719       0.06024171
O        0.10932595       1.24977918       1.22129415
C       -1.04641320      -0.66896484       0.17683090
C       -1.49862108       0.61183428      -0.48347355
H        1.64256261      -1.27435167       0.79206385
H        1.32524025      -0.98867882      -1.37967777
H        0.85073800       0.97170408      -0.83606935
H        0.95747123       0.97532480       1.58560011
H       -1.44101012      -0.88796543       1.16096868
H       -0.93685012      -1.54184384      -0.45556604
H       -1.63903462       0.61386257      -1.55658191
H       -2.20107342       1.22082849       0.07001396
14
Frame=12 idx=003046 GeodesicLength=0.871463697548354 rxn_smarts="[O:1]([C:2]([C:3]1([O:4][H:10])[C:5]([H:11])([H:12])[C:6]1([H:13])[H:14])([H:8])[H:9])[H:7]>>[C:3]1([O:4][H:10])([H:9])[C:5]([H:11])([H:12])[C:6]1([H:13])[H:14].[O:1]([C:2][H:8])[H:7]"
O        2.23342615      -0.65502251       0.41035240
C        1.75378893      -0.18122395      -0.76495333
C       -0.11503061       0.52425516       0.05584923
O        0.10542872       1.26251008       1.21764172
C       -1.03226176      -0.66882344       0.18272913
C       -1.49494478       0.60537940      -0.48201689
H        1.59467565      -1.27935181       0.78638472
H        1.33171875      -0.97709247      -1.40183329
H        0.86253065       1.00170012      -0.83955116
H        0.94717515       0.98773913       1.59511898
H       -1.42162845      -0.88643960       1.16919821
H       -0.92326103      -1.54439827      -0.44614277
H       -1.64072988       0.60062313      -1.55432703
H       -2.20088750       1.21014504       0.07155010
14
Frame=13 idx=003046 GeodesicLength=0.9440917368937162 rxn_smarts="[O:1]([C:2]([C:3]1([O:4][H:10])[C:5]([H:11])([H:12])[C:6]1([H:13])[H:14])([H:8])[H:9])[H:7]>>[C:3]1([O:4][H:10])([H:9])[C:5]([H:11])([H:12])[C:6]1([H:13])[H:14].[O:1]([C:2][H:8])[H:7]"
O        2.21731314      -0.68724691       0.40835281
C        1.75705594      -0.18665093      -0.76315800
C       -0.10806791       0.53083305       0.05165701
O        0.10133235       1.27462669       1.21418624
C       -1.01867960      -0.66866502       0.18853882
C       -1.49108473       0.59908956      -0.48062521
H        1.54910399      -1.28293460       0.78054225
H        1.33812421      -0.96617293      -1.42307194
H        0.87415146       1.03162970      -0.84252062
H        0.93647155       0.99974481       1.60485112
H       -1.40305675      -0.88475101       1.17724015
H       -0.91034659      -1.54695327      -0.43677287
H       -1.64192192       0.58761531      -1.55211551
H       -2.20039515       1.19983556       0.07289573
14
Frame=14 idx=003046 GeodesicLength=1.0167150998271537 rxn_smarts="[O:1]([C:2]([C:3]1([O:4][H:10])[C:5]([H:11])([H:12])[C:6]1([H:13])[H:14])([H:8])[H:9])[H:7]>>[C:3]1([O:4][H:10])([H:9])[C:5]([H:11])([H:12])[C:6]1([H:13])[H:14].[O:1]([C:2][H:8])[H:7]"
O        2.20128027      -0.71907556       0.40538762
C        1.75992059      -0.19264230      -0.76162615
C       -0.10115767       0.53696586       0.04766252
O        0.09704250       1.28618048       1.21090877
C       -1.00563292      -0.66849577       0.19427843
C       -1.48704446       0.59295310      -0.47930429
H        1.50577045      -1.28524268       0.77462650
H        1.34442717      -0.95587216      -1.44351587
H        0.88558771       1.06156117      -0.84497742
H        0.92536369       1.01140144       1.61478602
H       -1.38525104      -0.88291169       1.18512157
H       -0.89806593      -1.54952124      -0.42742725
H       -1.64262007       0.57481887      -1.54995593
H       -2.19962030       1.18988049       0.07403549
14
Frame=15 idx=003046 GeodesicLength=1.089335953375326 rxn_smarts="[O:1]([C:2]([C:3]1([O:4][H:10])[C:5]([H:11])([H:12])[C:6]1([H:13])[H:14])([H:8])[H:9])[H:7]>>[C:3]1([O:4][H:10])([H:9])[C:5]([H:11])([H:12])[C:6]1([H:13])[H:14].[O:1]([C:2][H:8])[H:7]"
O        2.18529651      -0.75060465       0.40148490
C        1.76240262      -0.19916394      -0.76036893
C       -0.09428001       0.54268175       0.04386557
O        0.09256465       1.29722562       1.20779336
C       -0.99308013      -0.66831947       0.19997006
C       -1.48282280       0.58695124      -0.47805819
H        1.46456922      -1.28639340       0.76870236
H        1.35060534      -0.94612824      -1.46328258
H        0.89683109       1.09156052      -0.84691840
H        0.91384793       1.02277170       1.62491417
H       -1.36815785      -0.88092572       1.19287264
H       -0.88636525      -1.55211097      -0.41807155
H       -1.64282922       0.56220172      -1.54785673
H       -2.19858209       1.18025382       0.07495331
14
Frame=16 idx=003046 GeodesicLength=1.1619499339864758 rxn_smarts="[O:1]([C:2]([C:3]1([O:4][H:10])[C:5]([H:11])([H:12])[C:6]1([H:13])[H:14])([H:8])[H:9])[H:7]>>[C:3]1([O:4][H:10])([H:9])[C:5]([H:11])([H:12])[C:6]1([H:13])[H:14].[O:1]([C:2][H:8])[H:7]"
O        2.16932791      -0.78190539       0.39667022
C        1.76452010      -0.20619203      -0.75939493
C       -0.08741538       0.54800651       0.04026610
O        0.08790500       1.30780883       1.20482577
C       -0.98098305      -0.66813918       0.20563219
C       -1.47841788       0.58107036      -0.47689126
H        1.42541019      -1.28649168       0.76282108
H        1.35663849      -0.93689513      -1.48246691
H        0.90787006       1.12168689      -0.84834154
H        0.90192220       1.03390803       1.63522766
H       -1.35172909      -0.87879909       1.20051891
H       -0.87519823      -1.55473037      -0.40867708
H       -1.64255358       0.54973910      -1.54582550
H       -2.19729674       1.17093316       0.07563529
