15
Frame=0 idx=009916 GeodesicLength=0.0 rxn_smarts="[N:1]([C@@:2]([C:3]([C:4]([O:5][H:15])([H:13])[H:14])([H:11])[H:12])([C:6]#[N:7])[H:10])([H:8])[H:9]>>[N:1]([C:2](=[C:6]=[N:7][C@:4]([C:3]([H:11])([H:12])[H:14])([O:5][H:15])[H:13])[H:10])([H:8])[H:9]"
N       -2.33093079      -0.49732993      -0.20341781
C       -1.29481397      -0.20404542       0.75962774
C        0.68092340      -0.68805956      -0.53150522
C        1.50988594       0.45373492      -0.41280483
O        2.44755699       0.46800868       0.53922444
C       -0.75575183       1.06343833       0.74715355
N       -0.09608833       2.02194761       0.61609515
H       -2.40881044      -1.49570905      -0.34011971
H       -3.24290499      -0.16756035       0.08908286
H       -1.31395157      -0.69817049       1.73004197
H       -0.07467561      -0.70572914      -1.30351623
H        0.86128590      -1.54177470       0.10311443
H        1.42004233       1.28438632      -1.09723955
H        1.74336493      -0.62980240      -1.27166869
H        2.85486798       1.33666523       0.57593194
15
Frame=1 idx=009916 GeodesicLength=0.04650138891657297 rxn_smarts="[N:1]([C@@:2]([C:3]([C:4]([O:5][H:15])([H:13])[H:14])([H:11])[H:12])([C:6]#[N:7])[H:10])([H:8])[H:9]>>[N:1]([C:2](=[C:6]=[N:7][C@:4]([C:3]([H:11])([H:12])[H:14])([O:5][H:15])[H:13])[H:10])([H:8])[H:9]"
N       -2.34352055      -0.50160411      -0.19530807
C       -1.29067636      -0.20423741       0.74787349
C        0.67634470      -0.68552524      -0.53425988
C        1.50737898       0.45934396      -0.40634140
O        2.44529307       0.46153572       0.55098129
C       -0.76798814       1.07088413       0.72809437
N       -0.09231533       2.01888288       0.59707145
H       -2.41947764      -1.50028311      -0.33108376
H       -3.25089464      -0.17595616       0.11516901
H       -1.29619777      -0.69136582       1.72224255
H       -0.06880975      -0.69911071      -1.31706513
H        0.85965420      -1.54387686       0.09416069
H        1.43084546       1.28705242      -1.09685482
H        1.75302698      -0.62329390      -1.26912827
H        2.85733678       1.32755421       0.59444846
15
Frame=2 idx=009916 GeodesicLength=0.09301090413973126 rxn_smarts="[N:1]([C@@:2]([C:3]([C:4]([O:5][H:15])([H:13])[H:14])([H:11])[H:12])([C:6]#[N:7])[H:10])([H:8])[H:9]>>[N:1]([C:2](=[C:6]=[N:7][C@:4]([C:3]([H:11])([H:12])[H:14])([O:5][H:15])[H:13])[H:10])([H:8])[H:9]"
N       -2.35605935      -0.50574906      -0.18682091
C       -1.28653735      -0.20440013       0.73585529
C        0.67188574      -0.68311092      -0.53735861
C        1.50491575       0.46485548      -0.40011462
O        2.44255522       0.45508116       0.56287836
C       -0.77988751       1.07797648       0.70884493
N       -0.08887271       2.01560419       0.57791377
H       -2.43035743      -1.50471134      -0.32160879
H       -3.25828305      -0.18394430       0.14176944
H       -1.27838696      -0.68437569       1.71401108
H       -0.06264146      -0.69252719      -1.33082380
H        0.85808800      -1.54596640       0.08495536
H        1.44164039       1.28960533      -1.09641187
H        1.76303231      -0.61689364      -1.26657228
H        2.85890842       1.31855603       0.61348265
15
Frame=3 idx=009916 GeodesicLength=0.13950876471258686 rxn_smarts="[N:1]([C@@:2]([C:3]([C:4]([O:5][H:15])([H:13])[H:14])([H:11])[H:12])([C:6]#[N:7])[H:10])([H:8])[H:9]>>[N:1]([C:2](=[C:6]=[N:7][C@:4]([C:3]([H:11])([H:12])[H:14])([O:5][H:15])[H:13])[H:10])([H:8])[H:9]"
N       -2.36856442      -0.50966304      -0.17806491
C       -1.28247498      -0.20465454       0.72357620
C        0.66760252      -0.68085831      -0.54063795
C        1.50245823       0.47031292      -0.39409826
O        2.43945365       0.44882124       0.57479990
C       -0.79144118       1.08458648       0.68963539
N       -0.08577094       2.01203652       0.55887120
H       -2.44157361      -1.50887546      -0.31189802
H       -3.26507809      -0.19133551       0.16869272
H       -1.26074271      -0.67744061       1.70529532
H       -0.05610120      -0.68616536      -1.34463796
H        0.85672935      -1.54799668       0.07577103
H        1.45221087       1.29206436      -1.09591526
H        1.77337946      -0.61059929      -1.26391443
H        2.85991305       1.30976727       0.63252502
15
Frame=4 idx=009916 GeodesicLength=0.18602330695979677 rxn_smarts="[N:1]([C@@:2]([C:3]([C:4]([O:5][H:15])([H:13])[H:14])([H:11])[H:12])([C:6]#[N:7])[H:10])([H:8])[H:9]>>[N:1]([C:2](=[C:6]=[N:7][C@:4]([C:3]([H:11])([H:12])[H:14])([O:5][H:15])[H:13])[H:10])([H:8])[H:9]"
N       -2.38103354      -0.51341540      -0.16893450
C       -1.27844346      -0.20495412       0.71101900
C        0.66345103      -0.67872336      -0.54422640
C        1.50002554       0.47569430      -0.38829146
O        2.43587459       0.44263208       0.58687087
C       -0.80267664       1.09080556       0.67031284
N       -0.08301022       2.00826527       0.53966959
H       -2.45305173      -1.51285270      -0.30179994
H       -3.27125398      -0.19827336       0.19612174
H       -1.24310725      -0.67043663       1.69611495
H       -0.04923028      -0.67986043      -1.35863440
H        0.85547288      -1.55000363       0.06638412
H        1.46274090       1.29443150      -1.09535157
H        1.78408144      -0.60439161      -1.26117802
H        2.86016070       1.30108252       0.65192318
15
Frame=5 idx=009916 GeodesicLength=0.2325270467374994 rxn_smarts="[N:1]([C@@:2]([C:3]([C:4]([O:5][H:15])([H:13])[H:14])([H:11])[H:12])([C:6]#[N:7])[H:10])([H:8])[H:9]>>[N:1]([C:2](=[C:6]=[N:7][C@:4]([C:3]([H:11])([H:12])[H:14])([O:5][H:15])[H:13])[H:10])([H:8])[H:9]"
N       -2.39347147      -0.51692820      -0.15953437
C       -1.27450871      -0.20539948       0.69818252
C        0.65947072      -0.67673608      -0.54797384
C        1.49757797       0.48103861      -0.38266455
O        2.43191927       0.43666202       0.59899116
C       -0.81358662       1.09652302       0.65106773
N       -0.08058990       2.00422319       0.52055303
H       -2.46489675      -1.51655243      -0.29145958
H       -3.27681905      -0.20459621       0.22384234
H       -1.22566130      -0.66357358       1.68641630
H       -0.04197393      -0.67376916      -1.37267409
H        0.85443631      -1.55193721       0.05704071
H        1.47302911       1.29672851      -1.09471547
H        1.79511366      -0.59825730      -1.25829164
H        2.85996070       1.29257429       0.67121976
15
Frame=6 idx=009916 GeodesicLength=0.2790645684917292 rxn_smarts="[N:1]([C@@:2]([C:3]([C:4]([O:5][H:15])([H:13])[H:14])([H:11])[H:12])([C:6]#[N:7])[H:10])([H:8])[H:9]>>[N:1]([C:2](=[C:6]=[N:7][C@:4]([C:3]([H:11])([H:12])[H:14])([O:5][H:15])[H:13])[H:10])([H:8])[H:9]"
N       -2.40588013      -0.52027532      -0.14975838
C       -1.27064151      -0.20594150       0.68505133
C        0.65562672      -0.67486031      -0.55201531
C        1.49514005       0.48632749      -0.37721921
O        2.42747117       0.43078546       0.61128651
C       -0.82421926       1.10184348       0.63174334
N       -0.07851358       2.00000839       0.50127386
H       -2.47703960      -1.52006896      -0.28070781
H       -3.28175474      -0.21043578       0.25203330
H       -1.20827217      -0.65672678       1.67622882
H       -0.03435628      -0.66773434      -1.38689576
H        0.85352054      -1.55385027       0.04751800
H        1.48326937       1.29897325      -1.09399468
H        1.80650870      -0.59218220      -1.25528862
H        2.85914073       1.28413739       0.69074460
15
Frame=7 idx=009916 GeodesicLength=0.32567553518815195 rxn_smarts="[N:1]([C@@:2]([C:3]([C:4]([O:5][H:15])([H:13])[H:14])([H:11])[H:12])([C:6]#[N:7])[H:10])([H:8])[H:9]>>[N:1]([C:2](=[C:6]=[N:7][C@:4]([C:3]([H:11])([H:12])[H:14])([O:5][H:15])[H:13])[H:10])([H:8])[H:9]"
N       -2.41825533      -0.52349203      -0.13948644
C       -1.26678830      -0.20652893       0.67159239
C        0.65188803      -0.67307115      -0.55648700
C        1.49273273       0.49152516      -0.37197781
O        2.42242705       0.42487232       0.62383949
C       -0.83457761       1.10684403       0.61217188
N       -0.07675470       1.99568913       0.48157542
H       -2.48940874      -1.52344402      -0.26939919
H       -3.28601485      -0.21591201       0.28092510
H       -1.19075966      -0.64977600       1.66553543
H       -0.02640807      -0.66162401      -1.40142725
H        0.85263710      -1.55578205       0.03760509
H        1.49363897       1.30114844      -1.09319349
H        1.81828620      -0.58617458      -1.25220204
H        2.85735718       1.27572569       0.71092842
15
Frame=8 idx=009916 GeodesicLength=0.3723983067358866 rxn_smarts="[N:1]([C@@:2]([C:3]([C:4]([O:5][H:15])([H:13])[H:14])([H:11])[H:12])([C:6]#[N:7])[H:10])([H:8])[H:9]>>[N:1]([C:2](=[C:6]=[N:7][C@:4]([C:3]([H:11])([H:12])[H:14])([O:5][H:15])[H:13])[H:10])([H:8])[H:9]"
N       -2.43058677      -0.52661972      -0.12860118
C       -1.26290781      -0.20710321       0.65777423
C        0.64822385      -0.67133812      -0.56152069
C        1.49037204       0.49660301      -0.36695130
O        2.41666612       0.41879232       0.63673804
C       -0.84468968       1.11161086       0.59217424
N       -0.07529126       1.99133169       0.46122895
H       -2.50192092      -1.52672784      -0.25737668
H       -3.28954382      -0.22115717       0.31072287
H       -1.17295112      -0.64258854       1.65432070
H       -0.01815200      -0.65530328      -1.41639696
H        0.85169307      -1.55776844       0.02709519
H        1.50430694       1.30324584      -1.09229623
H        1.83046599      -0.58023806      -1.24905120
H        2.85431539       1.26726066       0.73214002
15
Frame=9 idx=009916 GeodesicLength=0.41921292777248614 rxn_smarts="[N:1]([C@@:2]([C:3]([C:4]([O:5][H:15])([H:13])[H:14])([H:11])[H:12])([C:6]#[N:7])[H:10])([H:8])[H:9]>>[N:1]([C:2](=[C:6]=[N:7][C@:4]([C:3]([H:11])([H:12])[H:14])([O:5][H:15])[H:13])[H:10])([H:8])[H:9]"
N       -2.44285938      -0.52960162      -0.11718839
C       -1.25906295      -0.20775848       0.64360055
C        0.64466534      -0.66968558      -0.56699438
C        1.48801776       0.50159697      -0.36211401
O        2.41026013       0.41267592       0.64989712
C       -0.85455899       1.11604891       0.57192645
N       -0.07412641       1.98686791       0.44044533
H       -2.51465672      -1.52985321      -0.24476090
H       -3.29231168      -0.22600975       0.34123036
H       -1.15503424      -0.63533857       1.64255085
H       -0.00953924      -0.64889899      -1.43168887
H        0.85079034      -1.55976905       0.01618478
H        1.51509666       1.30528790      -1.09128934
H        1.84303077      -0.57435713      -1.24576669
H        2.85028860       1.25879476       0.75396715
15
Frame=10 idx=009916 GeodesicLength=0.46608706615137924 rxn_smarts="[N:1]([C@@:2]([C:3]([C:4]([O:5][H:15])([H:13])[H:14])([H:11])[H:12])([C:6]#[N:7])[H:10])([H:8])[H:9]>>[N:1]([C:2](=[C:6]=[N:7][C@:4]([C:3]([H:11])([H:12])[H:14])([O:5][H:15])[H:13])[H:10])([H:8])[H:9]"
N       -2.45505374      -0.53239957      -0.10533042
C       -1.25531546      -0.20855638       0.62908534
C        0.64122498      -0.66812562      -0.57279694
C        1.48563293       0.50653895      -0.35743353
O        2.40327820       0.40661909       0.66324352
C       -0.86420872       1.12010226       0.55156463
N       -0.07325370       1.98225175       0.41942606
H       -2.52764577      -1.53277370      -0.23166104
H       -3.29431114      -0.23038473       0.37225158
H       -1.13716787      -0.62815284       1.63021730
H       -0.00053722      -0.64250319      -1.44720136
H        0.84999462      -1.56174795       0.00504397
H        1.52585724       1.30729870      -1.09015524
H        1.85594568      -0.56851179      -1.24228855
H        2.84555996       1.25034501       0.77603470
15
Frame=11 idx=009916 GeodesicLength=0.5129827591363991 rxn_smarts="[N:1]([C@@:2]([C:3]([C:4]([O:5][H:15])([H:13])[H:14])([H:11])[H:12])([C:6]#[N:7])[H:10])([H:8])[H:9]>>[N:1]([C:2](=[C:6]=[N:7][C@:4]([C:3]([H:11])([H:12])[H:14])([O:5][H:15])[H:13])[H:10])([H:8])[H:9]"
N       -2.46714270      -0.53498343      -0.09310861
C       -1.25171616      -0.20955018       0.61424772
C        0.63790751      -0.66666952      -0.57882833
C        1.48318724       0.51145264      -0.35288838
O        2.39579891       0.40070218       0.67669115
C       -0.87365180       1.12372821       0.53121955
N       -0.07264770       1.97743649       0.39836160
H       -2.54090911      -1.53545252      -0.21816802
H       -3.29553414      -0.23420340       0.40358849
H       -1.11949878      -0.62114505       1.61732532
H        0.00887535      -0.63619901      -1.46283876
H        0.84935892      -1.56367370      -0.00617719
H        1.53645208       1.30929610      -1.08888783
H        1.86916729      -0.56268412      -1.23857322
H        2.84035309       1.24194532       0.79803652
15
Frame=12 idx=009916 GeodesicLength=0.5599503529589043 rxn_smarts="[N:1]([C@@:2]([C:3]([C:4]([O:5][H:15])([H:13])[H:14])([H:11])[H:12])([C:6]#[N:7])[H:10])([H:8])[H:9]>>[N:1]([C:2](=[C:6]=[N:7][C@:4]([C:3]([H:11])([H:12])[H:14])([O:5][H:15])[H:13])[H:10])([H:8])[H:9]"
N       -2.47910881      -0.53738509      -0.08039205
C       -1.24820981      -0.21068346       0.59905493
C        0.63468522      -0.66529597      -0.58523852
C        1.48069869       0.51630040      -0.34850522
O        2.38769012       0.39478767       0.69033107
C       -0.88289178       1.12700664       0.51071040
N       -0.07229733       1.97249527       0.37699165
H       -2.55436349      -1.53793100      -0.20411312
H       -3.29590915      -0.23757418       0.43547767
H       -1.10183854      -0.61418650       1.60385586
H        0.01867624      -0.62985134      -1.47874119
H        0.84879596      -1.56559412      -0.01770567
H        1.54706074       1.31126379      -1.08748767
H        1.88272453      -0.55689330      -1.23464943
H        2.83428739       1.23354119       0.82041128
15
Frame=13 idx=009916 GeodesicLength=0.6069497736206251 rxn_smarts="[N:1]([C@@:2]([C:3]([C:4]([O:5][H:15])([H:13])[H:14])([H:11])[H:12])([C:6]#[N:7])[H:10])([H:8])[H:9]>>[N:1]([C:2](=[C:6]=[N:7][C@:4]([C:3]([H:11])([H:12])[H:14])([O:5][H:15])[H:13])[H:10])([H:8])[H:9]"
N       -2.49090605      -0.53958999      -0.06726527
C       -1.24484428      -0.21200363       0.58353080
C        0.63155862      -0.66401525      -0.59193525
C        1.47813800       0.52110270      -0.34426558
O        2.37903766       0.38894070       0.70406586
C       -0.89194491       1.12989870       0.49016048
N       -0.07216826       1.96738209       0.35551807
H       -2.56801864      -1.54019318      -0.18953834
H       -3.29542058      -0.24039805       0.46768069
H       -1.08432791      -0.60737817       1.58982058
H        0.02887890      -0.62353531      -1.49481604
H        0.84835308      -1.56748138      -0.02940430
H        1.55754668       1.31322217      -1.08594625
H        1.89656282      -0.55111765      -1.23049112
H        2.82755486       1.22516625       0.84288567
15
Frame=14 idx=009916 GeodesicLength=0.654041857219769 rxn_smarts="[N:1]([C@@:2]([C:3]([C:4]([O:5][H:15])([H:13])[H:14])([H:11])[H:12])([C:6]#[N:7])[H:10])([H:8])[H:9]>>[N:1]([C:2](=[C:6]=[N:7][C@:4]([C:3]([H:11])([H:12])[H:14])([O:5][H:15])[H:13])[H:10])([H:8])[H:9]"
N       -2.50251189      -0.54163488      -0.05359558
C       -1.24157083      -0.21345284       0.56764039
C        0.62849963      -0.66279984      -0.59907006
C        1.47551906       0.52582620      -0.34018870
O        2.36968711       0.38302709       0.71799857
C       -0.90082602       1.13248377       0.46938284
N       -0.07225920       1.96215953       0.33367770
H       -2.58178447      -1.54228445      -0.17426572
H       -3.29398466      -0.24278621       0.50042967
H       -1.06678396      -0.60058036       1.57519664
H        0.03946502      -0.61710876      -1.51120542
H        0.84793862      -1.56937460      -0.04150068
H        1.56808891       1.31515705      -1.08424955
H        1.91071717      -0.54537129      -1.22610868
H        2.81980551       1.21673957       0.86585858
15
Frame=15 idx=009916 GeodesicLength=0.7011878283734807 rxn_smarts="[N:1]([C@@:2]([C:3]([C:4]([O:5][H:15])([H:13])[H:14])([H:11])[H:12])([C:6]#[N:7])[H:10])([H:8])[H:9]>>[N:1]([C:2](=[C:6]=[N:7][C@:4]([C:3]([H:11])([H:12])[H:14])([O:5][H:15])[H:13])[H:10])([H:8])[H:9]"
N       -2.51387435      -0.54351280      -0.03947003
C       -1.23843841      -0.21506692       0.55142126
C        0.62549792      -0.66165152      -0.60655237
C        1.47280233       0.53049612      -0.33624299
O        2.35968524       0.37711015       0.73207220
C       -0.90956116       1.13473525       0.44849612
N       -0.07256765       1.95680075       0.31164452
H       -2.59563113      -1.54419613      -0.15835976
H       -3.29159529      -0.24467390       0.53349202
H       -1.04934225      -0.59387573       1.56001298
H        0.05044191      -0.61062630      -1.52782020
H        0.84758214      -1.57124540      -0.05386768
H        1.57855898       1.31709224      -1.08237742
H        1.92513241      -0.53963091      -1.22145914
H        2.81130931       1.20824511       0.88901050
15
Frame=16 idx=009916 GeodesicLength=0.7484519790175841 rxn_smarts="[N:1]([C@@:2]([C:3]([C:4]([O:5][H:15])([H:13])[H:14])([H:11])[H:12])([C:6]#[N:7])[H:10])([H:8])[H:9]>>[N:1]([C:2](=[C:6]=[N:7][C@:4]([C:3]([H:11])([H:12])[H:14])([O:5][H:15])[H:13])[H:10])([H:8])[H:9]"
N       -2.52495791      -0.54524157      -0.02474820
C       -1.23538943      -0.21679718       0.53482892
C        0.62253287      -0.66055284      -0.61453601
C        1.47000367       0.53507113      -0.33246091
O        2.34888290       0.37105682       0.74635243
C       -0.91814408       1.13671460       0.42732126
N       -0.07306748       1.95134888       0.28916255
H       -2.60947741      -1.54595138      -0.14163103
H       -3.28813430      -0.24613623       0.56710480
H       -1.03181259      -0.58714147       1.54422070
H        0.06179478      -0.60396324      -1.54479359
H        0.84720446      -1.57313328      -0.06673063
H        1.58912474       1.31900310      -1.08031870
H        1.93983701      -0.53392224      -1.21655422
H        2.80160276       1.19964491       0.91278263
