15
Frame=0 idx=009601 GeodesicLength=0.0 rxn_smarts="[O:1]([C@@:2]1([H:9])[C:3]([H:10])([H:11])[C@@:4]2([O:5][H:12])[C:6]([H:13])([H:14])[C@@:7]12[H:15])[H:8]>>[O:1]([C@@:2]1([H:9])[C:3]([H:10])([H:11])[C@:7]1([C:6]([C:4][O:5][H:12])([H:13])[H:14])[H:15])[H:8]"
O        2.21302367       0.33748560      -0.67102235
C        1.33505583       0.35531328       0.41390929
C        0.12936950       1.20102122       0.20100055
C       -1.35096147       0.08108985      -0.56231267
O       -2.34104892      -0.19736583       0.35697796
C       -0.49699437      -1.14753317      -0.74941781
C        0.18092338      -0.57370647       0.41854079
H        2.68669438      -0.49714780      -0.66900336
H        1.82954775       0.44506806       1.38047296
H       -0.25225966       1.72766451       1.06549214
H        0.16534066       1.78538561      -0.70516449
H       -2.93246232       0.55564750       0.35329676
H       -1.00910501      -2.08211508      -0.54348554
H        0.06930770      -1.16096090      -1.67582856
H       -0.22643118      -0.82984638       1.38654433
15
Frame=1 idx=009601 GeodesicLength=0.05573154417853505 rxn_smarts="[O:1]([C@@:2]1([H:9])[C:3]([H:10])([H:11])[C@@:4]2([O:5][H:12])[C:6]([H:13])([H:14])[C@@:7]12[H:15])[H:8]>>[O:1]([C@@:2]1([H:9])[C:3]([H:10])([H:11])[C@:7]1([C:6]([C:4][O:5][H:12])([H:13])[H:14])[H:15])[H:8]"
O        2.21535309       0.32456305      -0.67798723
C        1.34234520       0.35337314       0.41108259
C        0.13872689       1.20578701       0.20343535
C       -1.35547143       0.08551075      -0.53753865
O       -2.36089158      -0.20476861       0.35710443
C       -0.49933019      -1.13658162      -0.74256141
C        0.18128189      -0.56851130       0.42895221
H        2.68821634      -0.51047478      -0.67020078
H        1.84378132       0.44728312       1.37377751
H       -0.22776105       1.74427210       1.06753496
H        0.17488020       1.78748826      -0.70517221
H       -2.98584620       0.51927877       0.30857597
H       -1.00521324      -2.07607255      -0.54303626
H        0.05946387      -1.13246494      -1.67391002
H       -0.20953513      -0.83868240       1.39994354
15
Frame=2 idx=009601 GeodesicLength=0.1099266680513592 rxn_smarts="[O:1]([C@@:2]1([H:9])[C:3]([H:10])([H:11])[C@@:4]2([O:5][H:12])[C:6]([H:13])([H:14])[C@@:7]12[H:15])[H:8]>>[O:1]([C@@:2]1([H:9])[C:3]([H:10])([H:11])[C@:7]1([C:6]([C:4][O:5][H:12])([H:13])[H:14])[H:15])[H:8]"
O        2.21716998       0.31163301      -0.68492763
C        1.34935333       0.35148020       0.40831605
C        0.14788558       1.21066763       0.20603486
C       -1.36015590       0.09003292      -0.51201666
O       -2.38149076      -0.21206867       0.35620476
C       -0.50197817      -1.12532079      -0.73535290
C        0.18145113      -0.56312436       0.43971150
H        2.68909002      -0.52384851      -0.67158235
H        1.85789593       0.44949271       1.36697871
H       -0.20297870       1.76106608       1.06946750
H        0.18404945       1.78960017      -0.70507800
H       -3.03543620       0.48159057       0.26280331
H       -1.00155321      -2.06968959      -0.54240479
H        0.04899487      -1.10362988      -1.67140783
H       -0.19229735      -0.84788149       1.41325345
15
Frame=3 idx=009601 GeodesicLength=0.16269398128491505 rxn_smarts="[O:1]([C@@:2]1([H:9])[C:3]([H:10])([H:11])[C@@:4]2([O:5][H:12])[C:6]([H:13])([H:14])[C@@:7]12[H:15])[H:8]>>[O:1]([C@@:2]1([H:9])[C:3]([H:10])([H:11])[C@:7]1([C:6]([C:4][O:5][H:12])([H:13])[H:14])[H:15])[H:8]"
O        2.21840252       0.29879782      -0.69186071
C        1.35602577       0.34964307       0.40560441
C        0.15673359       1.21559144       0.20881521
C       -1.36501244       0.09447876      -0.48577771
O       -2.40286207      -0.21936765       0.35406221
C       -0.50488465      -1.11387406      -0.72778314
C        0.18144767      -0.55761628       0.45082338
H        2.68930841      -0.53713338      -0.67319147
H        1.87183931       0.45172138       1.36006308
H       -0.17806847       1.77792026       1.07129434
H        0.19268665       1.79167494      -0.70484944
H       -3.08085059       0.44338487       0.21624070
H       -0.99805302      -2.06309289      -0.54157521
H        0.03798050      -1.07458811      -1.66829125
H       -0.17469318      -0.85754017       1.42642562
15
Frame=4 idx=009601 GeodesicLength=0.21421205008664584 rxn_smarts="[O:1]([C@@:2]1([H:9])[C:3]([H:10])([H:11])[C@@:4]2([O:5][H:12])[C:6]([H:13])([H:14])[C@@:7]12[H:15])[H:8]>>[O:1]([C@@:2]1([H:9])[C:3]([H:10])([H:11])[C@:7]1([C:6]([C:4][O:5][H:12])([H:13])[H:14])[H:15])[H:8]"
O        2.21902585       0.28610228      -0.69880259
C        1.36234421       0.34787108       0.40293749
C        0.16521010       1.22051246       0.21177898
C       -1.37005661       0.09872753      -0.45878507
O       -2.42496391      -0.22674119       0.35057321
C       -0.50802014      -1.10230794      -0.71984155
C        0.18130583      -0.55203740       0.46228894
H        2.68890206      -0.55025863      -0.67502537
H        1.88558926       0.45399362       1.35301596
H       -0.15311366       1.79476087       1.07300366
H        0.20069204       1.79366858      -0.70448457
H       -3.12206647       0.40521276       0.16900959
H       -0.99465451      -2.05636003      -0.54053688
H        0.02644685      -1.04539778      -1.66454752
H       -0.15664088      -0.86774622       1.43941573
15
Frame=5 idx=009601 GeodesicLength=0.2644576891259528 rxn_smarts="[O:1]([C@@:2]1([H:9])[C:3]([H:10])([H:11])[C@@:4]2([O:5][H:12])[C:6]([H:13])([H:14])[C@@:7]12[H:15])[H:8]>>[O:1]([C@@:2]1([H:9])[C:3]([H:10])([H:11])[C@:7]1([C:6]([C:4][O:5][H:12])([H:13])[H:14])[H:15])[H:8]"
O        2.21898266       0.27370043      -0.70571417
C        1.36819653       0.34619325       0.40031874
C        0.17309940       1.22530495       0.21487068
C       -1.37528569       0.10243717      -0.43120244
O       -2.44781559      -0.23448893       0.34530029
C       -0.51125296      -1.09086539      -0.71158683
C        0.18103501      -0.54651599       0.47406954
H        2.68794689      -0.56299848      -0.67701636
H        1.89897025       0.45641266       1.34586164
H       -0.12847433       1.81140784       1.07450243
H        0.20781768       1.79546572      -0.70403243
H       -3.15848987       0.36864635       0.12205078
H       -0.99117608      -2.04975339      -0.53934724
H        0.01459879      -1.01630099      -1.66018938
H       -0.13815268      -0.87864519       1.45211478
15
Frame=6 idx=009601 GeodesicLength=0.31376929814603727 rxn_smarts="[O:1]([C@@:2]1([H:9])[C:3]([H:10])([H:11])[C@@:4]2([O:5][H:12])[C:6]([H:13])([H:14])[C@@:7]12[H:15])[H:8]>>[O:1]([C@@:2]1([H:9])[C:3]([H:10])([H:11])[C@:7]1([C:6]([C:4][O:5][H:12])([H:13])[H:14])[H:15])[H:8]"
O        2.21829624       0.26150584      -0.71268360
C        1.37369837       0.34460190       0.39771811
C        0.18054301       1.23000982       0.21817241
C       -1.38071990       0.10572005      -0.40271071
O       -2.47121949      -0.24237320       0.33857782
C       -0.51467367      -1.07941527      -0.70290155
C        0.18072930      -0.54101482       0.48622047
H        2.68643715      -0.57545474      -0.67924315
H        1.91217091       0.45893508       1.33852700
H       -0.10390193       1.82790976       1.07588423
H        0.21414013       1.79708739      -0.70341842
H       -3.19104699       0.33302105       0.07435831
H       -0.98770897      -2.04313024      -0.53788629
H        0.00221659      -0.98714075      -1.65515719
H       -0.11896075      -0.89026185       1.46454255
15
Frame=7 idx=009601 GeodesicLength=0.36211538619862227 rxn_smarts="[O:1]([C@@:2]1([H:9])[C:3]([H:10])([H:11])[C@@:4]2([O:5][H:12])[C:6]([H:13])([H:14])[C@@:7]12[H:15])[H:8]>>[O:1]([C@@:2]1([H:9])[C:3]([H:10])([H:11])[C@:7]1([C:6]([C:4][O:5][H:12])([H:13])[H:14])[H:15])[H:8]"
O        2.21689971       0.24971364      -0.71971168
C        1.37875026       0.34312451       0.39513167
C        0.18730784       1.23448584       0.22166174
C       -1.38633454       0.10818218      -0.37346373
O       -2.49520357      -0.25068311       0.32989106
C       -0.51812600      -1.06825557      -0.69380693
C        0.18042230      -0.53569016       0.49873131
H        2.68446359      -0.58735315      -0.68171602
H        1.92505530       0.46167323       1.33101223
H       -0.07977519       1.84407082       1.07710221
H        0.21936579       1.79842701      -0.70264979
H       -3.21923283       0.30006589       0.02678327
H       -0.98405528      -2.03680193      -0.53614930
H       -0.01047428      -0.95823150      -1.64943395
H       -0.09906311      -0.90272768       1.47661791
15
Frame=8 idx=009601 GeodesicLength=0.40968051600010974 rxn_smarts="[O:1]([C@@:2]1([H:9])[C:3]([H:10])([H:11])[C@@:4]2([O:5][H:12])[C:6]([H:13])([H:14])[C@@:7]12[H:15])[H:8]>>[O:1]([C@@:2]1([H:9])[C:3]([H:10])([H:11])[C@:7]1([C:6]([C:4][O:5][H:12])([H:13])[H:14])[H:15])[H:8]"
O        2.21476674       0.23833044      -0.72689025
C        1.38341131       0.34176046       0.39253176
C        0.19342940       1.23872281       0.22542415
C       -1.39212603       0.10978782      -0.34324463
O       -2.51964017      -0.25925469       0.31930020
C       -0.52163764      -1.05738682      -0.68418740
C        0.18019760      -0.53056304       0.51166550
H        2.68201968      -0.59868008      -0.68455845
H        1.93775110       0.46462302       1.32324130
H       -0.05600796       1.85987144       1.07824989
H        0.22344696       1.79948343      -0.70163371
H       -3.24350692       0.26969642      -0.02131073
H       -0.98024666      -2.03075531      -0.53399816
H       -0.02359107      -0.92956927      -1.64294069
H       -0.07826633      -0.91606662       1.48835123
15
Frame=9 idx=009601 GeodesicLength=0.4564774122312748 rxn_smarts="[O:1]([C@@:2]1([H:9])[C:3]([H:10])([H:11])[C@@:4]2([O:5][H:12])[C:6]([H:13])([H:14])[C@@:7]12[H:15])[H:8]>>[O:1]([C@@:2]1([H:9])[C:3]([H:10])([H:11])[C@:7]1([C:6]([C:4][O:5][H:12])([H:13])[H:14])[H:15])[H:8]"
O        2.21186594       0.22747766      -0.73421819
C        1.38762341       0.34054084       0.38991090
C        0.19874259       1.24261156       0.22943610
C       -1.39808424       0.11021373      -0.31209457
O       -2.54446127      -0.26826988       0.30641426
C       -0.52509817      -1.04703013      -0.67403929
C        0.18010872      -0.52575321       0.52502117
H        2.67920151      -0.60924599      -0.68774383
H        1.95016821       0.46790216       1.31520398
H       -0.03287518       1.87518429       1.07927218
H        0.22615945       1.80014562      -0.70039435
H       -3.26372880       0.24320317      -0.06936603
H       -0.97613091      -2.02522174      -0.53140920
H       -0.03701212      -0.90137130      -1.63565801
H       -0.05647915      -0.93038679       1.49966488
15
Frame=10 idx=009601 GeodesicLength=0.5026408862526773 rxn_smarts="[O:1]([C@@:2]1([H:9])[C:3]([H:10])([H:11])[C@@:4]2([O:5][H:12])[C:6]([H:13])([H:14])[C@@:7]12[H:15])[H:8]>>[O:1]([C@@:2]1([H:9])[C:3]([H:10])([H:11])[C@:7]1([C:6]([C:4][O:5][H:12])([H:13])[H:14])[H:15])[H:8]"
O        2.20817037       0.21706591      -0.74178634
C        1.39146189       0.33945931       0.38723990
C        0.20335153       1.24619740       0.23379733
C       -1.40423091       0.10956331      -0.27969654
O       -2.56944224      -0.27728947       0.29154304
C       -0.52862189      -1.03706140      -0.66322321
C        0.18021931      -0.52122147       0.53887281
H        2.67594449      -0.61916201      -0.69137344
H        1.96246115       0.47147099       1.30681455
H       -0.01017050       1.89007287       1.08027057
H        0.22753894       1.80044707      -0.69883091
H       -3.28037978       0.21969040      -0.11844813
H       -0.97185782      -2.02004955      -0.52823580
H       -0.05099145      -0.87349766      -1.62749742
H       -0.03345309      -0.94568569       1.51055361
15
Frame=11 idx=009601 GeodesicLength=0.5482070081291609 rxn_smarts="[O:1]([C@@:2]1([H:9])[C:3]([H:10])([H:11])[C@@:4]2([O:5][H:12])[C:6]([H:13])([H:14])[C@@:7]12[H:15])[H:8]>>[O:1]([C@@:2]1([H:9])[C:3]([H:10])([H:11])[C@:7]1([C:6]([C:4][O:5][H:12])([H:13])[H:14])[H:15])[H:8]"
O        2.20357385       0.20732683      -0.74966442
C        1.39485515       0.33854607       0.38449663
C        0.20702598       1.24931567       0.23854976
C       -1.41051559       0.10736859      -0.24605492
O       -2.59457793      -0.28649705       0.27399137
C       -0.53205064      -1.02783330      -0.65165782
C        0.18062349      -0.51714812       0.55327078
H        2.67230888      -0.62810991      -0.69559488
H        1.97457491       0.47547503       1.29800711
H        0.01176431       1.90434057       1.08126962
H        0.22721706       1.80025082      -0.69688223
H       -3.29308142       0.20090982      -0.16803738
H       -0.96723542      -2.01559159      -0.52432665
H       -0.06537049      -0.84632997      -1.61836630
H       -0.00911213      -0.96202346       1.52099932
15
Frame=12 idx=009601 GeodesicLength=0.5932390532954536 rxn_smarts="[O:1]([C@@:2]1([H:9])[C:3]([H:10])([H:11])[C@@:4]2([O:5][H:12])[C:6]([H:13])([H:14])[C@@:7]12[H:15])[H:8]>>[O:1]([C@@:2]1([H:9])[C:3]([H:10])([H:11])[C@:7]1([C:6]([C:4][O:5][H:12])([H:13])[H:14])[H:15])[H:8]"
O        2.19803924       0.19828113      -0.75790156
C        1.39780288       0.33781780       0.38166045
C        0.20971169       1.25193102       0.24373552
C       -1.41696461       0.10348515      -0.21100131
O       -2.61966350      -0.29561633       0.25369973
C       -0.53540463      -1.01941431      -0.63925514
C        0.18138105      -0.51358757       0.56826025
H        2.66831477      -0.63604294      -0.70044749
H        1.98653621       0.47996700       1.28872424
H        0.03286966       1.91796807       1.08228875
H        0.22505982       1.79951061      -0.69451010
H       -3.30186772       0.18698599      -0.21844054
H       -0.96230340      -2.01190651      -0.51956842
H       -0.08024927      -0.81992703      -1.60819873
H        0.01673781      -0.97945208       1.53095434
15
Frame=13 idx=009601 GeodesicLength=0.6377326033185244 rxn_smarts="[O:1]([C@@:2]1([H:9])[C:3]([H:10])([H:11])[C@@:4]2([O:5][H:12])[C:6]([H:13])([H:14])[C@@:7]12[H:15])[H:8]>>[O:1]([C@@:2]1([H:9])[C:3]([H:10])([H:11])[C@:7]1([C:6]([C:4][O:5][H:12])([H:13])[H:14])[H:15])[H:8]"
O        2.19147522       0.18988184      -0.76657016
C        1.40029331       0.33726905       0.37870164
C        0.21140549       1.25403720       0.24944501
C       -1.42359780       0.09789874      -0.17430083
O       -2.64438869      -0.30408419       0.23086780
C       -0.53876537      -1.01176143      -0.62589900
C        0.18252440      -0.51053959       0.58389797
H        2.66385532      -0.64301081      -0.70603655
H        1.99837793       0.48493364       1.27887729
H        0.05317873       1.93096329       1.08340183
H        0.22099203       1.79820752      -0.69160867
H       -3.30660878       0.17729843      -0.27040656
H       -0.95719763      -2.00891132      -0.51383325
H       -0.09581930      -0.79425450      -1.59690410
H        0.04427512      -0.99792788       1.54036758
15
Frame=14 idx=009601 GeodesicLength=0.6817868781589187 rxn_smarts="[O:1]([C@@:2]1([H:9])[C:3]([H:10])([H:11])[C@@:4]2([O:5][H:12])[C:6]([H:13])([H:14])[C@@:7]12[H:15])[H:8]>>[O:1]([C@@:2]1([H:9])[C:3]([H:10])([H:11])[C@:7]1([C:6]([C:4][O:5][H:12])([H:13])[H:14])[H:15])[H:8]"
O        2.18377177       0.18237529      -0.77570957
C        1.40220847       0.33695992       0.37559414
C        0.21177817       1.25542017       0.25566255
C       -1.43039969       0.08995773      -0.13593899
O       -2.66862614      -0.31200749       0.20459270
C       -0.54195535      -1.00533691      -0.61151792
C        0.18415928      -0.50823376       0.60021693
H        2.65907313      -0.64862409      -0.71239514
H        2.00995767       0.49062987       1.26840286
H        0.07220826       1.94312688       1.08454008
H        0.21451644       1.79610278      -0.68819805
H       -3.30672514       0.17407086      -0.32306848
H       -0.95170012      -2.00708177      -0.50695935
H       -0.11192216      -0.76978802      -1.58439943
H        0.07365540      -1.01757144       1.54917767
15
Frame=15 idx=009601 GeodesicLength=0.7255104111515993 rxn_smarts="[O:1]([C@@:2]1([H:9])[C:3]([H:10])([H:11])[C@@:4]2([O:5][H:12])[C:6]([H:13])([H:14])[C@@:7]12[H:15])[H:8]>>[O:1]([C@@:2]1([H:9])[C:3]([H:10])([H:11])[C@:7]1([C:6]([C:4][O:5][H:12])([H:13])[H:14])[H:15])[H:8]"
O        2.17475628       0.17576919      -0.78546154
C        1.40352777       0.33688137       0.37229258
C        0.21079811       1.25606290       0.26256284
C       -1.43740765       0.07959659      -0.09557646
O       -2.69199481      -0.31855565       0.17502226
C       -0.54508602      -1.00013850      -0.59591244
C        0.18633530      -0.50669193       0.61732759
H        2.65373473      -0.65291411      -0.71981661
H        2.02136290       0.49702760       1.25715235
H        0.09000156       1.95445475       1.08587259
H        0.20545063       1.79319193      -0.68407017
H       -3.30171178       0.17651309      -0.37755486
H       -0.94601790      -2.00637241      -0.49870682
H       -0.12883113      -0.74653637      -1.57052856
H        0.10508201      -1.03828845       1.55739723
15
Frame=16 idx=009601 GeodesicLength=0.7690300337478919 rxn_smarts="[O:1]([C@@:2]1([H:9])[C:3]([H:10])([H:11])[C@@:4]2([O:5][H:12])[C:6]([H:13])([H:14])[C@@:7]12[H:15])[H:8]>>[O:1]([C@@:2]1([H:9])[C:3]([H:10])([H:11])[C@:7]1([C:6]([C:4][O:5][H:12])([H:13])[H:14])[H:15])[H:8]"
O        2.16428209       0.17027073      -0.79583382
C        1.40405963       0.33709615       0.36876531
C        0.20807713       1.25572697       0.27009576
C       -1.44463826       0.06611906      -0.05322320
O       -2.71407562      -0.32347184       0.14140593
C       -0.54800149      -0.99663019      -0.57903700
C        0.18911289      -0.50613203       0.63523029
H        2.64794370      -0.65550975      -0.72826773
H        2.03232574       0.50439983       1.24506290
H        0.10599406       1.96476381       1.08726140
H        0.19325060       1.78916093      -0.67928062
H       -3.29065743       0.18662284      -0.43292145
H       -0.93999507      -2.00723847      -0.48893723
H       -0.14640025      -0.72500563      -1.55522462
H        0.13872227      -1.06017241       1.56490407
