13
Frame=0 idx=004551 GeodesicLength=0.0 rxn_smarts="[O:1]=[C:2]([C:3]([N:4]1[C:5]([H:10])([H:11])[C:6]1([H:12])[H:13])([H:8])[H:9])[H:7]>>[O:1]([C@:2]1([H:7])[C:3]([H:8])([H:9])[N:4]2[C@:5]1([H:11])[C:6]2([H:12])[H:13])[H:10]"
O       -1.63308174       0.87750605      -0.83756235
C       -1.22999915      -0.07128542      -0.01460823
C       -0.38609245       0.23893025       1.21699406
N        0.82616219      -0.43244249       0.69872342
C        0.32292857      -0.72034265      -0.69550979
C        1.39611731       0.27784766      -0.40198928
H       -1.81939722      -0.99652248       0.06740360
H       -0.73057722      -0.24570364       2.12902164
H       -0.25708769       1.30923552       1.37854419
H       -0.57990174       0.14787716      -1.22544004
H        0.51202248      -1.69182013      -1.13321962
H        2.40433631      -0.02761663      -0.65288834
H        1.17457034       1.33433680      -0.52946924
13
Frame=1 idx=004551 GeodesicLength=0.08929471452500659 rxn_smarts="[O:1]=[C:2]([C:3]([N:4]1[C:5]([H:10])([H:11])[C:6]1([H:12])[H:13])([H:8])[H:9])[H:7]>>[O:1]([C@:2]1([H:7])[C:3]([H:8])([H:9])[N:4]2[C@:5]1([H:11])[C:6]2([H:12])[H:13])[H:10]"
O       -1.65705031       0.86823944      -0.82824735
C       -1.24305288      -0.07664584      -0.00779528
C       -0.38550829       0.24044914       1.21239558
N        0.82130125      -0.44022186       0.69582473
C        0.32700130      -0.71443463      -0.70222048
C        1.40409892       0.27416032      -0.39701286
H       -1.82563950      -1.00527885       0.07933449
H       -0.72562690      -0.23382115       2.13149275
H       -0.25484675       1.31241805       1.36388063
H       -0.58183953       0.16007975      -1.24221712
H        0.51842245      -1.68345076      -1.14497520
H        2.41345180      -0.03398499      -0.63998512
H        1.18928843       1.33249140      -0.52047477
13
Frame=2 idx=004551 GeodesicLength=0.1785463148242286 rxn_smarts="[O:1]=[C:2]([C:3]([N:4]1[C:5]([H:10])([H:11])[C:6]1([H:12])[H:13])([H:8])[H:9])[H:7]>>[O:1]([C@:2]1([H:7])[C:3]([H:8])([H:9])[N:4]2[C@:5]1([H:11])[C:6]2([H:12])[H:13])[H:10]"
O       -1.68123447       0.85805022      -0.81905388
C       -1.25637289      -0.08234576      -0.00057026
C       -0.38497785       0.24204125       1.20764987
N        0.81624373      -0.44802399       0.69273776
C        0.33102792      -0.70809572      -0.70910397
C        1.41225098       0.27032960      -0.39187808
H       -1.83179429      -1.01449406       0.09176967
H       -0.72036104      -0.22153887       2.13393582
H       -0.25289066       1.31565724       1.34868486
H       -0.58358534       0.17333684      -1.25920819
H        0.52457747      -1.67458308      -1.15706433
H        2.42256145      -0.04088553      -0.62686765
H        1.20455499       1.33055185      -0.51103160
13
Frame=3 idx=004551 GeodesicLength=0.26777612248761384 rxn_smarts="[O:1]=[C:2]([C:3]([N:4]1[C:5]([H:10])([H:11])[C:6]1([H:12])[H:13])([H:8])[H:9])[H:7]>>[O:1]([C@:2]1([H:7])[C:3]([H:8])([H:9])[N:4]2[C@:5]1([H:11])[C:6]2([H:12])[H:13])[H:10]"
O       -1.70560646       0.84688028      -0.81001305
C       -1.26996890      -0.08840772       0.00709908
C       -0.38450806       0.24371116       1.20274984
N        0.81098001      -0.45584045       0.68945204
C        0.33500162      -0.70129919      -0.71615894
C        1.42057175       0.26634580      -0.38658246
H       -1.83785113      -1.02419152       0.10474298
H       -0.71476520      -0.20883539       2.13634102
H       -0.25124464       1.31895262       1.33292826
H       -0.58511971       0.18771974      -1.27641185
H        0.53046731      -1.66518924      -1.16949200
H        2.43164974      -0.04835053      -0.61354778
H        1.22039366       1.32850446      -0.50110714
13
Frame=4 idx=004551 GeodesicLength=0.357016779263262 rxn_smarts="[O:1]=[C:2]([C:3]([N:4]1[C:5]([H:10])([H:11])[C:6]1([H:12])[H:13])([H:8])[H:9])[H:7]>>[O:1]([C@:2]1([H:7])[C:3]([H:8])([H:9])[N:4]2[C@:5]1([H:11])[C:6]2([H:12])[H:13])[H:10]"
O       -1.73012675       0.83464558      -0.80117148
C       -1.28385525      -0.09486159       0.01525932
C       -0.38410760       0.24546542       1.19768835
N        0.80549701      -0.46366264       0.68595435
C        0.33890957      -0.69400864      -0.72338658
C        1.42905782       0.26219471      -0.38112114
H       -1.84379413      -1.03440448       0.11829855
H       -0.70881718      -0.19567681       2.13869548
H       -0.24994046       1.32230216       1.31657540
H       -0.58641317       0.20332568      -1.29382665
H        0.53606338      -1.65522846      -1.18226903
H        2.44069326      -0.05642383      -0.60003979
H        1.23683349       1.32633290      -0.49065677
13
Frame=5 idx=004551 GeodesicLength=0.4462703484742183 rxn_smarts="[O:1]=[C:2]([C:3]([N:4]1[C:5]([H:10])([H:11])[C:6]1([H:12])[H:13])([H:8])[H:9])[H:7]>>[O:1]([C@:2]1([H:7])[C:3]([H:8])([H:9])[N:4]2[C@:5]1([H:11])[C:6]2([H:12])[H:13])[H:10]"
O       -1.75474673       0.82128292      -0.79257495
C       -1.29804021      -0.10172916       0.02394931
C       -0.38378521       0.24730952       1.19245927
N        0.79978572      -0.47147980       0.68223526
C        0.34274411      -0.68619562      -0.73078197
C        1.43770271       0.25786567      -0.37549423
H       -1.84961058      -1.04515287       0.13247248
H       -0.70250284      -0.18204245       2.14098710
H       -0.24900474       1.32570303       1.29959875
H       -0.58744877       0.22022785      -1.31144545
H        0.54134289      -1.64467074      -1.19539781
H        2.44967158      -0.06513567      -0.58636333
H        1.25389208       1.32401733      -0.47964442
13
Frame=6 idx=004551 GeodesicLength=0.5355366070994512 rxn_smarts="[O:1]=[C:2]([C:3]([N:4]1[C:5]([H:10])([H:11])[C:6]1([H:12])[H:13])([H:8])[H:9])[H:7]>>[O:1]([C@:2]1([H:7])[C:3]([H:8])([H:9])[N:4]2[C@:5]1([H:11])[C:6]2([H:12])[H:13])[H:10]"
O       -1.77940297       0.80670469      -0.78428469
C       -1.31253395      -0.10903423       0.03321976
C       -0.38355162       0.24924748       1.18705536
N        0.79383441      -0.47928032       0.67828139
C        0.34649316      -0.67782534      -0.73834271
C        1.44649773       0.25334648      -0.36970042
H       -1.85528249      -1.05645959       0.14731156
H       -0.69580060      -0.16789992       2.14319558
H       -0.24846907       1.32914765       1.28196573
H       -0.58820421       0.23852074      -1.32925695
H        0.54627756      -1.63347749      -1.20888263
H        2.45855396      -0.07452633      -0.57254047
H        1.27158808       1.32153619      -0.46802150
13
Frame=7 idx=004551 GeodesicLength=0.6248173232434966 rxn_smarts="[O:1]=[C:2]([C:3]([N:4]1[C:5]([H:10])([H:11])[C:6]1([H:12])[H:13])([H:8])[H:9])[H:7]>>[O:1]([C@:2]1([H:7])[C:3]([H:8])([H:9])[N:4]2[C@:5]1([H:11])[C:6]2([H:12])[H:13])[H:10]"
O       -1.80401963       0.79083342      -0.77636703
C       -1.32734448      -0.11679555       0.04312271
C       -0.38341674       0.25128357       1.18147424
N        0.78763349      -0.48705331       0.67408310
C        0.35014648      -0.66886739      -0.74605863
C        1.45542915       0.24862514      -0.36374288
H       -1.86079390      -1.06834199       0.16285606
H       -0.68869658      -0.15322692       2.14530480
H       -0.24836160       1.33263007       1.26364960
H       -0.58865873       0.25828762      -1.34725245
H        0.55083953      -1.62161539      -1.22272096
H        2.46731000      -0.08462434      -0.55860297
H        1.28993303       1.31886507      -0.45574559
13
Frame=8 idx=004551 GeodesicLength=0.7140981765078762 rxn_smarts="[O:1]=[C:2]([C:3]([N:4]1[C:5]([H:10])([H:11])[C:6]1([H:12])[H:13])([H:8])[H:9])[H:7]>>[O:1]([C@:2]1([H:7])[C:3]([H:8])([H:9])[N:4]2[C@:5]1([H:11])[C:6]2([H:12])[H:13])[H:10]"
O       -1.82850701       0.77357820      -0.76890170
C       -1.34247588      -0.12502778       0.05371692
C       -0.38339306       0.25342324       1.17570965
N        0.78117176      -0.49478166       0.66962889
C        0.35369221      -0.65928598      -0.75392082
C        1.46448082       0.24368977      -0.35762580
H       -1.86612146      -1.08081215       0.17915479
H       -0.68117239      -0.13800089       2.14729098
H       -0.24871485       1.33613708       1.24462686
H       -0.58879341       0.27961857      -1.36541982
H        0.55499972      -1.60904468      -1.23690625
H        2.47590057      -0.09546744      -0.54458438
H        1.30893299       1.31597373      -0.44276932
13
Frame=9 idx=004551 GeodesicLength=0.8032693088161165 rxn_smarts="[O:1]=[C:2]([C:3]([N:4]1[C:5]([H:10])([H:11])[C:6]1([H:12])[H:13])([H:8])[H:9])[H:7]>>[O:1]([C@:2]1([H:7])[C:3]([H:8])([H:9])[N:4]2[C@:5]1([H:11])[C:6]2([H:12])[H:13])[H:10]"
O       -1.85270043       0.75472196      -0.76196389
C       -1.35794007      -0.13369391       0.06504223
C       -0.38350058       0.25567445       1.16975178
N        0.77443130      -0.50246548       0.66490458
C        0.35711538      -0.64906114      -0.76193313
C        1.47362189       0.23852523      -0.35135607
H       -1.87122267      -1.09384250       0.19628416
H       -0.67325079      -0.12219354       2.14912973
H       -0.24953405       1.33965456       1.22486983
H       -0.58858024       0.30267526      -1.38370389
H        0.55872227      -1.59574283      -1.25145480
H        2.48427141      -0.10706442      -0.53052592
H        1.32856658       1.31281238      -0.42904461
13
Frame=10 idx=004551 GeodesicLength=0.8923820460093935 rxn_smarts="[O:1]=[C:2]([C:3]([N:4]1[C:5]([H:10])([H:11])[C:6]1([H:12])[H:13])([H:8])[H:9])[H:7]>>[O:1]([C@:2]1([H:7])[C:3]([H:8])([H:9])[N:4]2[C@:5]1([H:11])[C:6]2([H:12])[H:13])[H:10]"
O       -1.87651977       0.73428425      -0.75564029
C       -1.37373800      -0.14282391       0.07717023
C       -0.38374579       0.25803412       1.16360299
N        0.76740869      -0.51007762       0.65990149
C        0.36041227      -0.63816056      -0.77006871
C        1.48283647       0.23312754      -0.34494352
H       -1.87609823      -1.10744524       0.21425382
H       -0.66488645      -0.10579767       2.15079663
H       -0.25086380       1.34316187       1.20437378
H       -0.58802755       0.32745500      -1.40211872
H        0.56199336      -1.58167695      -1.26632658
H        2.49239379      -0.11944725      -0.51646777
H        1.34883500       1.30936641      -0.41453333
13
Frame=11 idx=004551 GeodesicLength=0.9814565453546631 rxn_smarts="[O:1]=[C:2]([C:3]([N:4]1[C:5]([H:10])([H:11])[C:6]1([H:12])[H:13])([H:8])[H:9])[H:7]>>[O:1]([C@:2]1([H:7])[C:3]([H:8])([H:9])[N:4]2[C@:5]1([H:11])[C:6]2([H:12])[H:13])[H:10]"
O       -1.89985635       0.71220274      -0.74998774
C       -1.38987285      -0.15239901       0.09014953
C       -0.38413967       0.26050063       1.15726181
N        0.76009859      -0.51760337       0.65461116
C        0.36358147      -0.62657331      -0.77831404
C        1.49209889       0.22749192      -0.33839741
H       -1.88073751      -1.12159279       0.23309784
H       -0.65607360      -0.08880949       2.15226243
H       -0.25271794       1.34663922       1.18313744
H       -0.58712171       0.35399379      -1.42066819
H        0.56480114      -1.56683766      -1.28150229
H        2.50023061      -0.13261600      -0.50244691
H        1.36970894       1.30560331      -0.39920363
13
Frame=12 idx=004551 GeodesicLength=1.0704818837179007 rxn_smarts="[O:1]=[C:2]([C:3]([N:4]1[C:5]([H:10])([H:11])[C:6]1([H:12])[H:13])([H:8])[H:9])[H:7]>>[O:1]([C@:2]1([H:7])[C:3]([H:8])([H:9])[N:4]2[C@:5]1([H:11])[C:6]2([H:12])[H:13])[H:10]"
O       -1.92256502       0.68838924      -0.74508577
C       -1.40634709      -0.16239609       0.10403764
C       -0.38469747       0.26307171       1.15072791
N        0.75249123      -0.52502953       0.64902375
C        0.36661699      -0.61428109      -0.78665305
C        1.50137486       0.22161255      -0.33173024
H       -1.88511929      -1.13625384       0.25285773
H       -0.64680177      -0.07121971       2.15349769
H       -0.25511373       1.35006092       1.16116007
H       -0.58585023       0.38234343      -1.43934899
H        0.56712875      -1.55120492      -1.29696174
H        2.50773195      -0.14657814      -0.48850887
H        1.39115083       1.30148546      -0.38301613
13
Frame=13 idx=004551 GeodesicLength=1.1594583321976428 rxn_smarts="[O:1]=[C:2]([C:3]([N:4]1[C:5]([H:10])([H:11])[C:6]1([H:12])[H:13])([H:8])[H:9])[H:7]>>[O:1]([C@:2]1([H:7])[C:3]([H:8])([H:9])[N:4]2[C@:5]1([H:11])[C:6]2([H:12])[H:13])[H:10]"
O       -1.94450865       0.66278485      -0.74099057
C       -1.42316054      -0.17277250       0.11888053
C       -0.38543097       0.26574341       1.14400158
N        0.74458189      -0.53234306       0.64313103
C        0.36952196      -0.60128249      -0.79507124
C        1.51063369       0.21549136      -0.32495604
H       -1.88923459      -1.15137647       0.27356282
H       -0.63707521      -0.05303967       2.15447283
H       -0.25805511       1.35340186       1.13845999
H       -0.58421393       0.41251498      -1.45816779
H        0.56897336      -1.53478090      -1.31267973
H        2.51485890      -0.16131815      -0.47469321
H        1.41310921       1.29697678      -0.36595019
13
Frame=14 idx=004551 GeodesicLength=1.2483923409874438 rxn_smarts="[O:1]=[C:2]([C:3]([N:4]1[C:5]([H:10])([H:11])[C:6]1([H:12])[H:13])([H:8])[H:9])[H:7]>>[O:1]([C@:2]1([H:7])[C:3]([H:8])([H:9])[N:4]2[C@:5]1([H:11])[C:6]2([H:12])[H:13])[H:10]"
O       -1.96553145       0.63531990      -0.73776387
C       -1.44031508      -0.18347696       0.13472880
C       -0.38635543       0.26850722       1.13708348
N        0.73636138      -0.53953261       0.63692212
C        0.37229983      -0.58757633      -0.80355171
C        1.51983792       0.20912709      -0.31808937
H       -1.89307044      -1.16689634       0.29524661
H       -0.62688918      -0.03427935       2.15514983
H       -0.26154760       1.35662948       1.11506015
H       -0.58221279       0.44452189      -1.47713611
H        0.57033487      -1.51756371      -1.32862571
H        2.52156590      -0.17681787      -0.46104377
H        1.43552206       1.29203758      -0.34798046
13
Frame=15 idx=004551 GeodesicLength=1.3372959081825893 rxn_smarts="[O:1]=[C:2]([C:3]([N:4]1[C:5]([H:10])([H:11])[C:6]1([H:12])[H:13])([H:8])[H:9])[H:7]>>[O:1]([C@:2]1([H:7])[C:3]([H:8])([H:9])[N:4]2[C@:5]1([H:11])[C:6]2([H:12])[H:13])[H:10]"
O       -1.98548263       0.60594388      -0.73544480
C       -1.45781057      -0.19444006       0.15162048
C       -0.38748384       0.27135353       1.12997539
N        0.72782452      -0.54658996       0.63038764
C        0.37496245      -0.57317241      -0.81208160
C        1.52894991       0.20252354      -0.31114622
H       -1.89662110      -1.18273166       0.31793644
H       -0.61625722      -0.01496802       2.15549769
H       -0.26558262       1.35971308       1.09099797
H       -0.57985643       0.47834667      -1.49627513
H        0.57122646      -1.49956785      -1.34477098
H        2.52781628      -0.19304389      -0.44759667
H        1.45831478       1.28663315      -0.32910019
13
Frame=16 idx=004551 GeodesicLength=1.4261657138946895 rxn_smarts="[O:1]=[C:2]([C:3]([N:4]1[C:5]([H:10])([H:11])[C:6]1([H:12])[H:13])([H:8])[H:9])[H:7]>>[O:1]([C@:2]1([H:7])[C:3]([H:8])([H:9])[N:4]2[C@:5]1([H:11])[C:6]2([H:12])[H:13])[H:10]"
O       -2.00419767       0.57460785      -0.73405781
C       -1.47564752      -0.20557686       0.16958648
C       -0.38882979       0.27426681       1.12267855
N        0.71896482      -0.55351209       0.62351519
C        0.37752639      -0.55808541      -0.82065036
C        1.53793281       0.19568938      -0.30414172
H       -1.89988218      -1.19878057       0.34165671
H       -0.60519276       0.00486169       2.15547600
H       -0.27014890       1.36261642       1.06631698
H       -0.57717190       0.51395121      -1.51560538
H        0.57167178      -1.48081073      -1.36108842
H        2.53357281      -0.20995658      -0.43438292
H        1.48140209       1.28072888      -0.30930328
