14
Frame=0 idx=010570 GeodesicLength=0.0 rxn_smarts="[C:1]([C@@:2]1([C:5](=[O:6])[N:7]([H:13])[H:14])[C:3]([H:11])([H:12])[O:4]1)([H:8])([H:9])[H:10]>>[C:1]([C@@:2]1([H:14])[C:3]([H:11])([H:12])[O:4]1)([H:8])([H:9])[H:10].[C:5](=[O:6])=[N:7][H:13]"
C        1.02908845      -1.28225782      -0.08815883
C        0.21671230      -0.04213313      -0.31379661
C        0.84441055       1.26503155      -0.52181772
O        0.32089909       0.56774216      -1.62600010
C       -1.17426576       0.19744888       0.98791714
O       -0.74023203       0.22625137       2.08032322
N       -2.20045717       0.20907762       0.19847833
H        2.01437481      -1.18088496      -0.54631654
H        1.15623501      -1.45822022       0.98056916
H        0.53719725      -2.15256247      -0.52542414
H        0.31838017       2.17569547      -0.24761164
H        1.92944300       1.31607988      -0.47916954
H       -3.12870337       0.28590115       0.60552122
H       -1.12308224      -0.12716943      -0.50451399
14
Frame=1 idx=010570 GeodesicLength=0.07397634058041436 rxn_smarts="[C:1]([C@@:2]1([C:5](=[O:6])[N:7]([H:13])[H:14])[C:3]([H:11])([H:12])[O:4]1)([H:8])([H:9])[H:10]>>[C:1]([C@@:2]1([H:14])[C:3]([H:11])([H:12])[O:4]1)([H:8])([H:9])[H:10].[C:5](=[O:6])=[N:7][H:13]"
C        1.03574197      -1.28182080      -0.08820112
C        0.21769231      -0.04551792      -0.31811892
C        0.84280165       1.26320720      -0.52575378
O        0.32917588       0.55879123      -1.63074366
C       -1.17893638       0.20122364       0.99765192
O       -0.74967961       0.19532794       2.09264231
N       -2.20333889       0.22754563       0.20746726
H        2.02266435      -1.17716914      -0.54198438
H        1.16242066      -1.45787385       0.98050520
H        0.54948331      -2.15514810      -0.52574816
H        0.31003592       2.17303180      -0.26194608
H        1.92721267       1.32018821      -0.47666616
H       -3.13210081       0.30605595       0.61102972
H       -1.13317304      -0.12784180      -0.52013416
14
Frame=2 idx=010570 GeodesicLength=0.1478679158849352 rxn_smarts="[C:1]([C@@:2]1([C:5](=[O:6])[N:7]([H:13])[H:14])[C:3]([H:11])([H:12])[O:4]1)([H:8])([H:9])[H:10]>>[C:1]([C@@:2]1([H:14])[C:3]([H:11])([H:12])[O:4]1)([H:8])([H:9])[H:10].[C:5](=[O:6])=[N:7][H:13]"
C        1.04229212      -1.28132541      -0.08817755
C        0.21864884      -0.04885609      -0.32248342
C        0.84125585       1.26138067      -0.52976606
O        0.33746351       0.54991154      -1.63545160
C       -1.18341793       0.20560468       1.00784214
O       -0.75966319       0.16396671       2.10454719
N       -2.20576782       0.24561213       0.21675367
H        2.03080947      -1.17346973      -0.53761840
H        1.16845659      -1.45737722       0.98052847
H        0.56159108      -2.15763511      -0.52591201
H        0.30195108       2.17031553      -0.27636551
H        1.92498248       1.32423184      -0.47432056
H       -3.13515648       0.32570479       0.61657477
H       -1.14344559      -0.12806433      -0.53615112
14
Frame=3 idx=010570 GeodesicLength=0.22162154462855016 rxn_smarts="[C:1]([C@@:2]1([C:5](=[O:6])[N:7]([H:13])[H:14])[C:3]([H:11])([H:12])[O:4]1)([H:8])([H:9])[H:10]>>[C:1]([C@@:2]1([H:14])[C:3]([H:11])([H:12])[O:4]1)([H:8])([H:9])[H:10].[C:5](=[O:6])=[N:7][H:13]"
C        1.04862972      -1.28078960      -0.08810592
C        0.21957656      -0.05209597      -0.32690620
C        0.83987578       1.25955954      -0.53382335
O        0.34581043       0.54118286      -1.64011780
C       -1.18767021       0.21073827       1.01851939
O       -0.77006927       0.13266141       2.11596083
N       -2.20772158       0.26342611       0.22634197
H        2.03871383      -1.16988039      -0.53322886
H        1.17418777      -1.45675957       0.98062493
H        0.57333603      -2.15999596      -0.52594645
H        0.29430438       2.16759195      -0.29079792
H        1.92286348       1.32812739      -0.47210105
H       -3.13793026       0.34387915       0.62217897
H       -1.15390666      -0.12764520      -0.55259853
14
Frame=4 idx=010570 GeodesicLength=0.2952522337190851 rxn_smarts="[C:1]([C@@:2]1([C:5](=[O:6])[N:7]([H:13])[H:14])[C:3]([H:11])([H:12])[O:4]1)([H:8])([H:9])[H:10]>>[C:1]([C@@:2]1([H:14])[C:3]([H:11])([H:12])[O:4]1)([H:8])([H:9])[H:10].[C:5](=[O:6])=[N:7][H:13]"
C        1.05482675      -1.28022731      -0.08799453
C        0.22046973      -0.05529981      -0.33138846
C        0.83857213       1.25772852      -0.53790240
O        0.35417908       0.53256907      -1.64473662
C       -1.19169190       0.21647531       1.02971881
O       -0.78088189       0.10137870       2.12685056
N       -2.20921886       0.28077663       0.23624351
H        2.04644766      -1.16634500      -0.52881436
H        1.17968742      -1.45603871       0.98078688
H        0.58484926      -2.16227372      -0.52587488
H        0.28694202       2.16481109      -0.30520601
H        1.92076478       1.33192945      -0.46997654
H       -3.14039072       0.36122740       0.62779601
H       -1.16455547      -0.12671163      -0.56950196
14
Frame=5 idx=010570 GeodesicLength=0.3687468011277457 rxn_smarts="[C:1]([C@@:2]1([C:5](=[O:6])[N:7]([H:13])[H:14])[C:3]([H:11])([H:12])[O:4]1)([H:8])([H:9])[H:10]>>[C:1]([C@@:2]1([H:14])[C:3]([H:11])([H:12])[O:4]1)([H:8])([H:9])[H:10].[C:5](=[O:6])=[N:7][H:13]"
C        1.06091030      -1.27965378      -0.08785730
C        0.22131941      -0.05850683      -0.33593862
C        0.83729626       1.25587271      -0.54197360
O        0.36255866       0.52406064      -1.64930107
C       -1.19547985       0.22271603       1.04147101
O       -0.79204023       0.07024570       2.13718610
N       -2.21026972       0.29753235       0.24645324
H        2.05404329      -1.16283806      -0.52436796
H        1.18496348      -1.45524150       0.98100003
H        0.59619333      -2.16449227      -0.52573407
H        0.27977906       2.16193667      -0.31954368
H        1.91863662       1.33565715      -0.46790241
H       -3.14251535       0.37802001       0.63340534
H       -1.17539525      -0.12530880      -0.58689700
14
Frame=6 idx=010570 GeodesicLength=0.4421004028821092 rxn_smarts="[C:1]([C@@:2]1([C:5](=[O:6])[N:7]([H:13])[H:14])[C:3]([H:11])([H:12])[O:4]1)([H:8])([H:9])[H:10]>>[C:1]([C@@:2]1([H:14])[C:3]([H:11])([H:12])[O:4]1)([H:8])([H:9])[H:10].[C:5](=[O:6])=[N:7][H:13]"
C        1.06689030      -1.27908591      -0.08770874
C        0.22211591      -0.06174646      -0.34056733
C        0.83601572       1.25398097      -0.54600742
O        0.37094936       0.51565873      -1.65380748
C       -1.19903210       0.22939047       1.05379935
O       -0.80346469       0.03943513       2.14695310
N       -2.21088260       0.31358944       0.25696199
H        2.06151863      -1.15934628      -0.51987852
H        1.18999992      -1.45440148       0.98125057
H        0.60740500      -2.16667086      -0.52556594
H        0.27275806       2.15894405      -0.33376666
H        1.91644531       1.33931980      -0.46582936
H       -3.14428791       0.39438856       0.63899677
H       -1.18643090      -0.12345614      -0.60483034
14
Frame=7 idx=010570 GeodesicLength=0.5153161591099825 rxn_smarts="[C:1]([C@@:2]1([C:5](=[O:6])[N:7]([H:13])[H:14])[C:3]([H:11])([H:12])[O:4]1)([H:8])([H:9])[H:10]>>[C:1]([C@@:2]1([H:14])[C:3]([H:11])([H:12])[O:4]1)([H:8])([H:9])[H:10].[C:5](=[O:6])=[N:7][H:13]"
C        1.07276521      -1.27854281      -0.08756476
C        0.22284864      -0.06504152      -0.34528750
C        0.83470661       1.25204486      -0.54997372
O        0.37935825       0.50737126      -1.65825389
C       -1.20235191       0.23644900       1.06672300
O       -0.81505522       0.00915337       2.15616073
N       -2.21106592       0.32885090       0.26775632
H        2.06888132      -1.15586608      -0.51533192
H        1.19476525      -1.45355876       0.98152331
H        0.61850480      -2.16882701      -0.52541750
H        0.26583711       2.15581770      -0.34783265
H        1.91416498       1.34292008      -0.46370333
H       -3.14569479       0.41038001       0.64456021
H       -1.19766434      -0.12115100      -0.62335830
14
Frame=8 idx=010570 GeodesicLength=0.5884594339544001 rxn_smarts="[C:1]([C@@:2]1([C:5](=[O:6])[N:7]([H:13])[H:14])[C:3]([H:11])([H:12])[O:4]1)([H:8])([H:9])[H:10]>>[C:1]([C@@:2]1([H:14])[C:3]([H:11])([H:12])[O:4]1)([H:8])([H:9])[H:10].[C:5](=[O:6])=[N:7][H:13]"
C        1.07852621      -1.27805515      -0.08742612
C        0.22350580      -0.06840360      -0.35011023
C        0.83335927       1.25008616      -0.55385876
O        0.38778308       0.49921698      -1.66266402
C       -1.20542910       0.24388462       1.08026897
O       -0.82672389      -0.02048048       2.16485053
N       -2.21082342       0.34326145       0.27881682
H        2.07612834      -1.15241357      -0.51071456
H        1.19924818      -1.45276068       0.98183431
H        0.62948416      -2.17100721      -0.52531101
H        0.25899895       2.15259284      -0.36172590
H        1.91179070       1.34648828      -0.46148415
H       -3.14673283       0.42597294       0.65007948
H       -1.20911546      -0.11838259      -0.64255535
14
Frame=9 idx=010570 GeodesicLength=0.6612559364933902 rxn_smarts="[C:1]([C@@:2]1([C:5](=[O:6])[N:7]([H:13])[H:14])[C:3]([H:11])([H:12])[O:4]1)([H:8])([H:9])[H:10]>>[C:1]([C@@:2]1([H:14])[C:3]([H:11])([H:12])[O:4]1)([H:8])([H:9])[H:10].[C:5](=[O:6])=[N:7][H:13]"
C        1.08404059      -1.27768000      -0.08742696
C        0.22406079      -0.07185038      -0.35510195
C        0.83202200       1.24801798      -0.55750163
O        0.39635407       0.49130101      -1.66696479
C       -1.20830021       0.25158724       1.09436833
O       -0.83788634      -0.04789545       2.17320337
N       -2.21023272       0.35656221       0.29008156
H        2.08321924      -1.14900908      -0.50591111
H        1.20298520      -1.45226162       0.98201322
H        0.64030177      -2.17312710      -0.52565020
H        0.25232872       2.14916666      -0.37523629
H        1.90935439       1.34985769      -0.45893077
H       -3.14749897       0.44025455       0.65556644
H       -1.22074853      -0.11492371      -0.66250921
14
Frame=10 idx=010570 GeodesicLength=0.7339649547482145 rxn_smarts="[C:1]([C@@:2]1([C:5](=[O:6])[N:7]([H:13])[H:14])[C:3]([H:11])([H:12])[O:4]1)([H:8])([H:9])[H:10]>>[C:1]([C@@:2]1([H:14])[C:3]([H:11])([H:12])[O:4]1)([H:8])([H:9])[H:10].[C:5](=[O:6])=[N:7][H:13]"
C        1.08956229      -1.27727026      -0.08740070
C        0.22453616      -0.07543038      -0.36016168
C        0.83050055       1.24584833      -0.56109762
O        0.40490306       0.48337588      -1.67117807
C       -1.21096518       0.25955417       1.10912677
O       -0.84933075      -0.07541915       2.18096341
N       -2.20919427       0.36881166       0.30160379
H        2.09026728      -1.14549328      -0.50108965
H        1.20669980      -1.45161580       0.98221047
H        0.65118529      -2.17522116      -0.52585270
H        0.24549341       2.14547808      -0.38862735
H        1.90665398       1.35321754      -0.45633113
H       -3.14773612       0.45534477       0.66098808
H       -1.23257550      -0.11118042      -0.68315361
14
Frame=11 idx=010570 GeodesicLength=0.8065924474841007 rxn_smarts="[C:1]([C@@:2]1([C:5](=[O:6])[N:7]([H:13])[H:14])[C:3]([H:11])([H:12])[O:4]1)([H:8])([H:9])[H:10]>>[C:1]([C@@:2]1([H:14])[C:3]([H:11])([H:12])[O:4]1)([H:8])([H:9])[H:10].[C:5](=[O:6])=[N:7][H:13]"
C        1.09493197      -1.27698257      -0.08744935
C        0.22489523      -0.07913833      -0.36537399
C        0.82887943       1.24362548      -0.56451213
O        0.41351774       0.47562376      -1.67534808
C       -1.21342773       0.26777695       1.12451834
O       -0.86039656      -0.10148700       2.18847058
N       -2.20779035       0.37980988       0.31329963
H        2.09720664      -1.14199156      -0.49611173
H        1.20994769      -1.45120129       0.98237166
H        0.66200748      -2.17737564      -0.52632617
H        0.23864471       2.14165061      -0.40173046
H        1.90378277       1.35652914      -0.45343321
H       -3.14758311       0.47004928       0.66630674
H       -1.24461593      -0.10688871      -0.70468183
14
Frame=12 idx=010570 GeodesicLength=0.8790982932210321 rxn_smarts="[C:1]([C@@:2]1([C:5](=[O:6])[N:7]([H:13])[H:14])[C:3]([H:11])([H:12])[O:4]1)([H:8])([H:9])[H:10]>>[C:1]([C@@:2]1([H:14])[C:3]([H:11])([H:12])[O:4]1)([H:8])([H:9])[H:10].[C:5](=[O:6])=[N:7][H:13]"
C        1.10009350      -1.27680671      -0.08758866
C        0.22512946      -0.08295332      -0.37074219
C        0.82718884       1.24132913      -0.56772425
O        0.42223510       0.46806281      -1.67944900
C       -1.21569169       0.27634182       1.14053775
O       -0.87096407      -0.12588372       2.19579978
N       -2.20601404       0.38952229       0.32515735
H        2.10398387      -1.13852842      -0.49098420
H        1.21265671      -1.45102082       0.98245966
H        0.67268997      -2.17954630      -0.52708391
H        0.23184097       2.13767224      -0.41452640
H        1.90076608       1.35973312      -0.45020431
H       -3.14705806       0.48401350       0.67148942
H       -1.25685663      -0.10193563      -0.72714103
14
Frame=13 idx=010570 GeodesicLength=0.9515181015316195 rxn_smarts="[C:1]([C@@:2]1([C:5](=[O:6])[N:7]([H:13])[H:14])[C:3]([H:11])([H:12])[O:4]1)([H:8])([H:9])[H:10]>>[C:1]([C@@:2]1([H:14])[C:3]([H:11])([H:12])[O:4]1)([H:8])([H:9])[H:10].[C:5](=[O:6])=[N:7][H:13]"
C        1.10498857      -1.27676487      -0.08783186
C        0.22522615      -0.08685713      -0.37627866
C        0.82545958       1.23897330      -0.57071564
O        0.43108130       0.46073089      -1.68348977
C       -1.21776253       0.28533858       1.15719239
O       -0.88086635      -0.14835342       2.20309090
N       -2.20387065       0.39787601       0.33715379
H        2.11054998      -1.13514580      -0.48569812
H        1.21474693      -1.45112729       0.98246455
H        0.68315328      -2.18174115      -0.52816660
H        0.22514348       2.13358692      -0.42699980
H        1.89763592       1.36280992      -0.44659784
H       -3.14619285       0.49688127       0.67648723
H       -1.26929281      -0.09620723      -0.75061057
14
Frame=14 idx=010570 GeodesicLength=1.0237402550246932 rxn_smarts="[C:1]([C@@:2]1([C:5](=[O:6])[N:7]([H:13])[H:14])[C:3]([H:11])([H:12])[O:4]1)([H:8])([H:9])[H:10]>>[C:1]([C@@:2]1([H:14])[C:3]([H:11])([H:12])[O:4]1)([H:8])([H:9])[H:10].[C:5](=[O:6])=[N:7][H:13]"
C        1.10955290      -1.27684791      -0.08821953
C        0.22517478      -0.09082835      -0.38198871
C        0.82371740       1.23650693      -0.57343335
O        0.44010193       0.45365101      -1.68740521
C       -1.21966375       0.29485897       1.17443163
O       -0.88988262      -0.16846326       2.21044540
N       -2.20137021       0.40476147       0.34927799
H        2.11685210      -1.13187555      -0.48024757
H        1.21609900      -1.45155055       0.98229998
H        0.69332859      -2.18388400      -0.52964338
H        0.21861013       2.12934732      -0.43909341
H        1.89440950       1.36564715      -0.44254147
H       -3.14503417       0.50821594       0.68124976
H       -1.28189560      -0.08953916      -0.77513213
14
Frame=15 idx=010570 GeodesicLength=1.0958831354631247 rxn_smarts="[C:1]([C@@:2]1([C:5](=[O:6])[N:7]([H:13])[H:14])[C:3]([H:11])([H:12])[O:4]1)([H:8])([H:9])[H:10]>>[C:1]([C@@:2]1([H:14])[C:3]([H:11])([H:12])[O:4]1)([H:8])([H:9])[H:10].[C:5](=[O:6])=[N:7][H:13]"
C        1.11364604      -1.27711587      -0.08875940
C        0.22495928      -0.09479395      -0.38789414
C        0.82208128       1.23401002      -0.57586620
O        0.44933289       0.44693090      -1.69124964
C       -1.22137816       0.30516467       1.19227801
O       -0.89774606      -0.18575735       2.21809936
N       -2.19850892       0.41016455       0.36149124
H        2.12276399      -1.12885526      -0.47463575
H        1.21655407      -1.45238912       0.98199359
H        0.70297074      -2.18602461      -0.53155556
H        0.21246201       2.12513248      -0.45078851
H        1.89122417       1.36822685      -0.43798881
H       -3.14370070       0.51699361       0.68569924
H       -1.29466064      -0.08168692      -0.80082344
14
Frame=16 idx=010570 GeodesicLength=1.167935174276275 rxn_smarts="[C:1]([C@@:2]1([C:5](=[O:6])[N:7]([H:13])[H:14])[C:3]([H:11])([H:12])[O:4]1)([H:8])([H:9])[H:10]>>[C:1]([C@@:2]1([H:14])[C:3]([H:11])([H:12])[O:4]1)([H:8])([H:9])[H:10].[C:5](=[O:6])=[N:7][H:13]"
C        1.11726451      -1.27757026      -0.08946917
C        0.22456650      -0.09877125      -0.39400134
C        0.82051463       1.23145240      -0.57799415
O        0.45878157       0.44055202      -1.69499811
C       -1.22294536       0.31626016       1.21070462
O       -0.90432297      -0.20013022       2.22618335
N       -2.19528864       0.41391019       0.37377427
H        2.12829051      -1.12606393      -0.46882940
H        1.21607585      -1.45367613       0.98150473
H        0.71212323      -2.18814760      -0.53395978
H        0.20664993       2.12090581      -0.46208593
H        1.88803194       1.37052594      -0.43288627
H       -3.14217209       0.52333357       0.68978801
H       -1.30756961      -0.07258070      -0.82773085
