15
Frame=0 idx=009115 GeodesicLength=0.0 rxn_smarts="[C:1]1([H:8])([H:9])[C@:2]2([H:10])[O:3][C:4]([H:11])([H:12])[C:5]([H:13])([H:14])[O:6][C@:7]12[H:15]>>[C:1]1([H:9])=[C:7]([H:15])[C:2]1([O:3][C:4]([C:5]([O:6][H:8])([H:13])[H:14])([H:11])[H:12])[H:10]"
C       -1.57688208       0.14767043       0.79209759
C       -1.22845759       0.05432554      -0.63818158
O       -0.21780560       0.80656294      -1.29760749
C        0.94549950       1.03315229      -0.55255456
C        1.50378572      -0.24677021       0.03920334
O        0.55460791      -0.81927119       0.97333047
C       -0.90419961      -1.03048936       0.31524449
H       -0.01290036      -0.02455546       1.42060833
H       -2.58177304       0.19799232       1.18427478
H       -1.96774096      -0.17831505      -1.40040037
H        0.77297107       1.76401399       0.24841395
H        1.67857076       1.45571684      -1.24223969
H        1.68801967      -0.99932082      -0.72720352
H        2.42105050      -0.06337982       0.59938645
H       -1.07474590      -2.09733248       0.28562788
15
Frame=1 idx=009115 GeodesicLength=0.1126995825397792 rxn_smarts="[C:1]1([H:8])([H:9])[C@:2]2([H:10])[O:3][C:4]([H:11])([H:12])[C:5]([H:13])([H:14])[O:6][C@:7]12[H:15]>>[C:1]1([H:9])=[C:7]([H:15])[C:2]1([O:3][C:4]([C:5]([O:6][H:8])([H:13])[H:14])([H:11])[H:12])[H:10]"
C       -1.58078069       0.14006312       0.79286433
C       -1.23360981       0.05461001      -0.63917929
O       -0.20977536       0.78143714      -1.30121353
C        0.94779953       1.02893211      -0.55397235
C        1.51726946      -0.24360562       0.04245444
O        0.57271229      -0.82051196       0.97531715
C       -0.91795881      -1.03823657       0.30848074
H       -0.01707397      -0.02295977       1.43160335
H       -2.58230540       0.20337726       1.19132709
H       -1.98152823      -0.15713207      -1.39909802
H        0.76690304       1.76150241       0.24341389
H        1.67480955       1.45886363      -1.24577012
H        1.71125152      -0.99449594      -0.72388832
H        2.43301551      -0.04900247       0.60131053
H       -1.10072862      -2.10284128       0.27635011
15
Frame=2 idx=009115 GeodesicLength=0.22530246387850672 rxn_smarts="[C:1]1([H:8])([H:9])[C@:2]2([H:10])[O:3][C:4]([H:11])([H:12])[C:5]([H:13])([H:14])[O:6][C@:7]12[H:15]>>[C:1]1([H:9])=[C:7]([H:15])[C:2]1([O:3][C:4]([C:5]([O:6][H:8])([H:13])[H:14])([H:11])[H:12])[H:10]"
C       -1.58474140       0.13212687       0.79366014
C       -1.23865652       0.05488476      -0.64009577
O       -0.20175887       0.75582623      -1.30431862
C        0.95002292       1.02451771      -0.55546945
C        1.53097488      -0.24026917       0.04578668
O        0.59136967      -0.82156107       0.97769455
C       -0.93218636      -1.04629347       0.30147749
H       -0.02145612      -0.02122144       1.44279469
H       -2.58265909       0.20868139       1.19843907
H       -1.99469709      -0.13513707      -1.39774820
H        0.76086156       1.75883364       0.23822346
H        1.67057607       1.46166659      -1.24975219
H        1.73475414      -0.98948267      -0.72037047
H        2.44512289      -0.03413219       0.60310197
H       -1.12752668      -2.10844012       0.26657664
15
Frame=3 idx=009115 GeodesicLength=0.33783495904700495 rxn_smarts="[C:1]1([H:8])([H:9])[C@:2]2([H:10])[O:3][C:4]([H:11])([H:12])[C:5]([H:13])([H:14])[O:6][C@:7]12[H:15]>>[C:1]1([H:9])=[C:7]([H:15])[C:2]1([O:3][C:4]([C:5]([O:6][H:8])([H:13])[H:14])([H:11])[H:12])[H:10]"
C       -1.58876586       0.12383902       0.79448053
C       -1.24357873       0.05512516      -0.64092620
O       -0.19376512       0.72973442      -1.30688558
C        0.95216832       1.01990453      -0.55704103
C        1.54490886      -0.23674892       0.04919635
O        0.61062220      -0.82238833       0.98050013
C       -0.94691067      -1.05467980       0.29422550
H       -0.02606448      -0.01930979       1.45419225
H       -2.58282212       0.21388988       1.20560456
H       -2.00718570      -0.11232565      -1.39634469
H        0.75485391       1.75600478       0.23284976
H        1.66585612       1.46410678      -1.25419203
H        1.75850665      -0.98427175      -0.71665760
H        2.45738757      -0.01875503       0.60471999
H       -1.15521093      -2.11412531       0.25627807
15
Frame=4 idx=009115 GeodesicLength=0.4503264190928715 rxn_smarts="[C:1]1([H:8])([H:9])[C@:2]2([H:10])[O:3][C:4]([H:11])([H:12])[C:5]([H:13])([H:14])[O:6][C@:7]12[H:15]>>[C:1]1([H:9])=[C:7]([H:15])[C:2]1([O:3][C:4]([C:5]([O:6][H:8])([H:13])[H:14])([H:11])[H:12])[H:10]"
C       -1.59285527       0.11517021       0.79531907
C       -1.24835730       0.05530096      -0.64166833
O       -0.18580100       0.70316212      -1.30887737
C        0.95423442       1.01508761      -0.55868033
C        1.55907915      -0.23303066       0.05268100
O        0.63051772      -0.82295044       0.98377932
C       -0.96216523      -1.06341990       0.28670907
H       -0.03091783      -0.01719390       1.46580636
H       -2.58277149       0.21898690       1.21282016
H       -2.01892934      -0.08869123      -1.39487283
H        0.74888366       1.75301312       0.22729906
H        1.66063491       1.46616326      -1.25909426
H        1.78248650      -0.97885587      -0.71275213
H        2.46982839      -0.00285263       0.60611838
H       -1.18386731      -2.11988955       0.24541283
15
Frame=5 idx=009115 GeodesicLength=0.5627985739971513 rxn_smarts="[C:1]1([H:8])([H:9])[C@:2]2([H:10])[O:3][C:4]([H:11])([H:12])[C:5]([H:13])([H:14])[O:6][C@:7]12[H:15]>>[C:1]1([H:9])=[C:7]([H:15])[C:2]1([O:3][C:4]([C:5]([O:6][H:8])([H:13])[H:14])([H:11])[H:12])[H:10]"
C       -1.59701168       0.10609805       0.79617185
C       -1.25297372       0.05538481      -0.64231527
O       -0.17787358       0.67611521      -1.31025392
C        0.95622036       1.01006241      -0.56037954
C        1.57349366      -0.22910213       0.05623385
O        0.65110290      -0.82321526       0.98757029
C       -0.97798374      -1.07253260       0.27891742
H       -0.03603785      -0.01483737       1.47764679
H       -2.58249962       0.22395356       1.22007864
H       -2.02985971      -0.06422937      -1.39332765
H        0.74295813       1.74985545       0.22158086
H        1.65489710       1.46781680      -1.26446265
H        1.80667016      -0.97322762      -0.70866508
H        2.48246271       0.01358665       0.60725070
H       -1.21356512      -2.12572858       0.23395369
15
Frame=6 idx=009115 GeodesicLength=0.6752628812178717 rxn_smarts="[C:1]1([H:8])([H:9])[C@:2]2([H:10])[O:3][C:4]([H:11])([H:12])[C:5]([H:13])([H:14])[O:6][C@:7]12[H:15]>>[C:1]1([H:9])=[C:7]([H:15])[C:2]1([O:3][C:4]([C:5]([O:6][H:8])([H:13])[H:14])([H:11])[H:12])[H:10]"
C       -1.60123426       0.09658787       0.79703251
C       -1.25740988       0.05533795      -0.64286538
O       -0.16998611       0.64859132      -1.31097939
C        0.95812537       1.00482343      -0.56213020
C        1.58816269      -0.22494650       0.05985128
O        0.67243008      -0.82312574       0.99192375
C       -0.99440451      -1.08204568       0.27083138
H       -0.04144565      -0.01220677       1.48972419
H       -2.58197864       0.22876667       1.22737774
H       -2.03990047      -0.03894035      -1.39168334
H        0.73707670       1.74652898       0.21570391
H        1.64862931       1.46904622      -1.27029614
H        1.83103307      -0.96738235      -0.70440016
H        2.49531318       0.03058355       0.60806182
H       -1.24441087      -2.13161859       0.22184803
15
Frame=7 idx=009115 GeodesicLength=0.7877373467834216 rxn_smarts="[C:1]1([H:8])([H:9])[C@:2]2([H:10])[O:3][C:4]([H:11])([H:12])[C:5]([H:13])([H:14])[O:6][C@:7]12[H:15]>>[C:1]1([H:9])=[C:7]([H:15])[C:2]1([O:3][C:4]([C:5]([O:6][H:8])([H:13])[H:14])([H:11])[H:12])[H:10]"
C       -1.60552133       0.08660757       0.79789512
C       -1.26165117       0.05512822      -0.64331601
O       -0.16213910       0.62058863      -1.31101862
C        0.95994967       0.99936541      -0.56392292
C        1.60309589      -0.22054905       0.06352931
O        0.69455348      -0.82262616       0.99689143
C       -1.01147107      -1.09198458       0.26242645
H       -0.04716923      -0.00926115       1.50204564
H       -2.58118951       0.23340405       1.23471478
H       -2.04897545      -0.01282235      -1.38991020
H        0.73124028       1.74303000       0.20967702
H        1.64181863       1.46983108      -1.27658889
H        1.85554572      -0.96131979      -0.69996414
H        2.50840645       0.04815698       0.60849361
H       -1.27649326      -2.13754887       0.20904743
15
Frame=8 idx=009115 GeodesicLength=0.9002445571783011 rxn_smarts="[C:1]1([H:8])([H:9])[C@:2]2([H:10])[O:3][C:4]([H:11])([H:12])[C:5]([H:13])([H:14])[O:6][C@:7]12[H:15]>>[C:1]1([H:9])=[C:7]([H:15])[C:2]1([O:3][C:4]([C:5]([O:6][H:8])([H:13])[H:14])([H:11])[H:12])[H:10]"
C       -1.60986945       0.07611530       0.79875863
C       -1.26567960       0.05471714      -0.64366154
O       -0.15433011       0.59209923      -1.31033069
C        0.96169389       0.99368132      -0.56574733
C        1.61830802      -0.21588833       0.06726188
O        0.71753700      -0.82164117       1.00253037
C       -1.02923581      -1.10237706       0.25367479
H       -0.05323123      -0.00596025       1.51462321
H       -2.58010783       0.23782789       1.24208907
H       -2.05699986       0.01413220      -1.38798368
H        0.72544715       1.73935546       0.20350803
H        1.63444807       1.47014352      -1.28333819
H        1.88018198      -0.95504080      -0.69535455
H        2.52176572       0.06632835       0.60847832
H       -1.30992794      -2.14349279       0.19549168
15
Frame=9 idx=009115 GeodesicLength=1.012927964026723 rxn_smarts="[C:1]1([H:8])([H:9])[C@:2]2([H:10])[O:3][C:4]([H:11])([H:12])[C:5]([H:13])([H:14])[O:6][C@:7]12[H:15]>>[C:1]1([H:9])=[C:7]([H:15])[C:2]1([O:3][C:4]([C:5]([O:6][H:8])([H:13])[H:14])([H:11])[H:12])[H:10]"
C       -1.61423584       0.06501070       0.79961735
C       -1.26949164       0.05407454      -0.64390339
O       -0.14650294       0.56304868      -1.30890553
C        0.96338010       0.98776000      -0.56759145
C        1.63384388      -0.21091711       0.07107397
O        0.74151492      -0.81993794       1.00899096
C       -1.04780914      -1.11327693       0.24443312
H       -0.05965479      -0.00229047       1.52745778
H       -2.57866104       0.24197284       1.24954363
H       -2.06399864       0.04187756      -1.38575149
H        0.71968447       1.73552779       0.19717252
H        1.62652753       1.46993672      -1.29052394
H        1.90490924      -0.94858921      -0.69049176
H        2.53546227       0.08516448       0.60792546
H       -1.34496837      -2.14936164       0.18095277
15
Frame=10 idx=009115 GeodesicLength=1.125642875127304 rxn_smarts="[C:1]1([H:8])([H:9])[C@:2]2([H:10])[O:3][C:4]([H:11])([H:12])[C:5]([H:13])([H:14])[O:6][C@:7]12[H:15]>>[C:1]1([H:9])=[C:7]([H:15])[C:2]1([O:3][C:4]([C:5]([O:6][H:8])([H:13])[H:14])([H:11])[H:12])[H:10]"
C       -1.61865299       0.05329180       0.80047252
C       -1.27306149       0.05315733      -0.64402767
O       -0.13870030       0.53348472      -1.30666610
C        0.96498879       0.98159428      -0.56944531
C        1.64968767      -0.20563778       0.07493838
O        0.76647990      -0.81757158       1.01624884
C       -1.06720011      -1.12468291       0.23476010
H       -0.06647613       0.00181659       1.54056725
H       -2.57685483       0.24581046       1.25704767
H       -2.06976944       0.07045912      -1.38327462
H        0.71395909       1.73152025       0.19069981
H        1.61801519       1.46919046      -1.29816554
H        1.92970504      -0.94193593      -0.68544225
H        2.54948117       0.10465468       0.60678740
H       -1.38160156      -2.15515150       0.16549953
15
Frame=11 idx=009115 GeodesicLength=1.2383647169008667 rxn_smarts="[C:1]1([H:8])([H:9])[C@:2]2([H:10])[O:3][C:4]([H:11])([H:12])[C:5]([H:13])([H:14])[O:6][C@:7]12[H:15]>>[C:1]1([H:9])=[C:7]([H:15])[C:2]1([O:3][C:4]([C:5]([O:6][H:8])([H:13])[H:14])([H:11])[H:12])[H:10]"
C       -1.62311557       0.04090953       0.80132211
C       -1.27637999       0.05193216      -0.64402683
O       -0.13091107       0.50339019      -1.30357165
C        0.96652074       0.97517406      -0.57129923
C        1.66585381      -0.20002805       0.07885275
O        0.79249157      -0.81445401       1.02436748
C       -1.08747104      -1.13661743       0.22460640
H       -0.07373335       0.00640340       1.55395641
H       -2.57465384       0.24930152       1.26461224
H       -2.07423348       0.09988015      -1.38050135
H        0.70826842       1.72733123       0.18409354
H        1.60889471       1.46787011      -1.30626206
H        1.95454220      -0.93509223      -0.68019950
H        2.56385057       0.12482583       0.60500031
H       -1.41992369      -2.16082647       0.14904939
15
Frame=12 idx=009115 GeodesicLength=1.351088312617609 rxn_smarts="[C:1]1([H:8])([H:9])[C@:2]2([H:10])[O:3][C:4]([H:11])([H:12])[C:5]([H:13])([H:14])[O:6][C@:7]12[H:15]>>[C:1]1([H:9])=[C:7]([H:15])[C:2]1([O:3][C:4]([C:5]([O:6][H:8])([H:13])[H:14])([H:11])[H:12])[H:10]"
C       -1.62761863       0.02779937       0.80216928
C       -1.27943176       0.05036275      -0.64388928
O       -0.12312273       0.47273938      -1.29956731
C        0.96797678       0.96848649      -0.57314213
C        1.68236132      -0.19406009       0.08281802
O        0.81962098      -0.81047717       1.03341826
C       -1.10869324      -1.14910733       0.21392269
H       -0.08146239       0.01152221       1.56763432
H       -2.57202290       0.25237471       1.27224722
H       -2.07728090       0.13014003      -1.37737047
H        0.70260840       1.72295786       0.17735070
H        1.59914507       1.46593058      -1.31481568
H        1.97939564      -0.92807080      -0.67475330
H        2.57860040       0.14571372       0.60248023
H       -1.46007604      -2.16631171       0.13149745
15
Frame=13 idx=009115 GeodesicLength=1.4637804815296247 rxn_smarts="[C:1]1([H:8])([H:9])[C@:2]2([H:10])[O:3][C:4]([H:11])([H:12])[C:5]([H:13])([H:14])[O:6][C@:7]12[H:15]>>[C:1]1([H:9])=[C:7]([H:15])[C:2]1([O:3][C:4]([C:5]([O:6][H:8])([H:13])[H:14])([H:11])[H:12])[H:10]"
C       -1.63215150       0.01389563       0.80301773
C       -1.28220736       0.04842300      -0.64360178
O       -0.11531897       0.44150532      -1.29459840
C        0.96935944       0.96151767      -0.57496577
C        1.69922714      -0.18770669       0.08683539
O        0.84793701      -0.80551778       1.04347221
C       -1.13094560      -1.16217194       0.20264205
H       -0.08970615       0.01721685       1.58160400
H       -2.56892645       0.25495922       1.27997090
H       -2.07881970       0.16124779      -1.37381596
H        0.69697751       1.71839921       0.17046562
H        1.58874706       1.46331973      -1.32383216
H        2.00423830      -0.92089186      -0.66908103
H        2.59376205       0.16735376       0.59914811
H       -1.50217279      -2.17154995       0.11273909
15
Frame=14 idx=009115 GeodesicLength=1.5764482436269003 rxn_smarts="[C:1]1([H:8])([H:9])[C@:2]2([H:10])[O:3][C:4]([H:11])([H:12])[C:5]([H:13])([H:14])[O:6][C@:7]12[H:15]>>[C:1]1([H:9])=[C:7]([H:15])[C:2]1([O:3][C:4]([C:5]([O:6][H:8])([H:13])[H:14])([H:11])[H:12])[H:10]"
C       -1.63670406      -0.00088795       0.80387482
C       -1.28469622       0.04607447      -0.64314698
O       -0.10748023       0.40963833      -1.28860624
C        0.97067242       0.95424600      -0.57675964
C        1.71647660      -0.18093195       0.09090801
O        0.87752546      -0.79943105       1.05461399
C       -1.15432265      -1.17583250       0.19068754
H       -0.09850577       0.02354354       1.59587685
H       -2.56532668       0.25695490       1.28780541
H       -2.07873536       0.19321893      -1.36975201
H        0.69136488       1.71365065       0.16342396
H        1.57767907       1.45997299      -1.33331687
H        2.02905045      -0.91357916      -0.66315605
H        2.60937090       0.18979714       0.59490830
H       -1.54636882      -2.17643433       0.09263892
15
Frame=15 idx=009115 GeodesicLength=1.6890540684272877 rxn_smarts="[C:1]1([H:8])([H:9])[C@:2]2([H:10])[O:3][C:4]([H:11])([H:12])[C:5]([H:13])([H:14])[O:6][C@:7]12[H:15]>>[C:1]1([H:9])=[C:7]([H:15])[C:2]1([O:3][C:4]([C:5]([O:6][H:8])([H:13])[H:14])([H:11])[H:12])[H:10]"
C       -1.64126143      -0.01664172       0.80474747
C       -1.28688971       0.04329312      -0.64250706
O       -0.09958409       0.37709279      -1.28152326
C        0.97192101       0.94665053      -0.57851486
C        1.73413324      -0.17369891       0.09504147
O        0.90846527      -0.79205487       1.06692577
C       -1.17892112      -1.19010305       0.17796975
H       -0.10790915       0.03055033       1.61045588
H       -2.56117632       0.25825660       1.29578065
H       -2.07692350       0.22605259      -1.36508551
H        0.68576651       1.70871040       0.15621019
H        1.56591962       1.45581932      -1.34328122
H        2.05380815      -0.90616317      -0.65694122
H        2.62545987       0.21309251       0.58966626
H       -1.59280836      -2.18085645       0.07105568
15
Frame=16 idx=009115 GeodesicLength=1.8015818310280454 rxn_smarts="[C:1]1([H:8])([H:9])[C@:2]2([H:10])[O:3][C:4]([H:11])([H:12])[C:5]([H:13])([H:14])[O:6][C@:7]12[H:15]>>[C:1]1([H:9])=[C:7]([H:15])[C:2]1([O:3][C:4]([C:5]([O:6][H:8])([H:13])[H:14])([H:11])[H:12])[H:10]"
C       -1.64580815      -0.03347655       0.80564519
C       -1.28877775       0.04005001      -0.64165938
O       -0.09160738       0.34380503      -1.27327065
C        0.97311034       0.93870310      -0.58022635
C        1.75222522      -0.16596346       0.09924432
O        0.94084604      -0.78320135       1.08049982
C       -1.20485661      -1.20499149       0.16438169
H       -0.11796131       0.03829118       1.62535060
H       -2.55642740       0.25872630       1.30393299
H       -2.07326109       0.25976175      -1.35970055
H        0.68017541       1.70357833       0.14879557
H        1.55344453       1.45076927      -1.35374557
H        2.07849342      -0.89868036      -0.65038561
H        2.64206261       0.23730247       0.58331628
H       -1.64165788      -2.18467424       0.04782163
