16
Frame=0 idx=008938 GeodesicLength=0.0 rxn_smarts="[C:1]([C@@:2]1([H:11])[C:3]([H:12])([H:13])[N:4]([C:5]([H:14])([H:15])[H:16])[C:6]1=[O:7])([H:8])([H:9])[H:10]>>[C:1]([C:2](=[C:6]=[O:7])[H:11])([H:8])([H:9])[H:10].[C:3](=[N:4][C:5]([H:14])([H:15])[H:16])([H:12])[H:13]"
C        2.55920575       0.16883453       0.41564724
C        1.15830397       0.23303542      -0.08735054
C       -0.67378037      -0.80585637      -1.21719298
N       -1.05764380      -0.18962271      -0.10939844
C       -2.37889574       0.32882384       0.16242672
C        0.05560269      -0.03227705       0.77025230
O       -0.01654992      -0.15697126       1.98268958
H        2.66448917      -0.59196379       1.18956371
H        2.87174224       1.12456680       0.85175436
H        3.25437196      -0.05234408      -0.39721441
H        0.95583323       0.86284960      -0.94364388
H       -1.21328254      -0.60033594      -2.14057314
H       -0.04194664      -1.67590635      -1.17535123
H       -2.29479383       1.13504772       0.88784970
H       -2.81970682       0.70152081      -0.76431279
H       -3.02294935      -0.44940115       0.57485376
16
Frame=1 idx=008938 GeodesicLength=0.08348128767491308 rxn_smarts="[C:1]([C@@:2]1([H:11])[C:3]([H:12])([H:13])[N:4]([C:5]([H:14])([H:15])[H:16])[C:6]1=[O:7])([H:8])([H:9])[H:10]>>[C:1]([C:2](=[C:6]=[O:7])[H:11])([H:8])([H:9])[H:10].[C:3](=[N:4][C:5]([H:14])([H:15])[H:16])([H:12])[H:13]"
C        2.56771853       0.15159774       0.40876275
C        1.16238887       0.24554265      -0.08104894
C       -0.66238716      -0.78824538      -1.21660187
N       -1.06302707      -0.17929855      -0.10873585
C       -2.39484176       0.31377207       0.15647134
C        0.06396443      -0.00186993       0.78737980
O       -0.01730895      -0.11184303       1.99830663
H        2.66543997      -0.61670643       1.17632710
H        2.90117950       1.09798940       0.84906931
H        3.25222623      -0.07680946      -0.41102877
H        0.96485412       0.89808846      -0.92166231
H       -1.19747644      -0.58588157      -2.14376597
H       -0.04551555      -1.66994396      -1.17394555
H       -2.32927169       1.13510481       0.86695303
H       -2.85069463       0.66110240      -0.77306101
H       -3.01724843      -0.47259923       0.58658029
16
Frame=2 idx=008938 GeodesicLength=0.1669084761643105 rxn_smarts="[C:1]([C@@:2]1([H:11])[C:3]([H:12])([H:13])[N:4]([C:5]([H:14])([H:15])[H:16])[C:6]1=[O:7])([H:8])([H:9])[H:10]>>[C:1]([C:2](=[C:6]=[O:7])[H:11])([H:8])([H:9])[H:10].[C:3](=[N:4][C:5]([H:14])([H:15])[H:16])([H:12])[H:13]"
C        2.57548883       0.13449776       0.40211658
C        1.16656743       0.25763580      -0.07490101
C       -0.65133059      -0.77039456      -1.21626032
N       -1.06840951      -0.16903017      -0.10833871
C       -2.41014336       0.29843978       0.15080346
C        0.07272527       0.02871530       0.80437715
O       -0.01804167      -0.06628680       2.01352657
H        2.66528991      -0.64060873       1.16388449
H        2.92945030       1.07149232       0.84585669
H        3.24949549      -0.10136580      -0.42415414
H        0.97501384       0.93202024      -0.89986870
H       -1.18203956      -0.57041341      -2.14699263
H       -0.04968392      -1.66358316      -1.17384499
H       -2.36322946       1.13436629       0.84582826
H       -2.88058765       0.61950177      -0.78112106
H       -3.01056536      -0.49498666       0.59908835
16
Frame=3 idx=008938 GeodesicLength=0.2502915992046616 rxn_smarts="[C:1]([C@@:2]1([H:11])[C:3]([H:12])([H:13])[N:4]([C:5]([H:14])([H:15])[H:16])[C:6]1=[O:7])([H:8])([H:9])[H:10]>>[C:1]([C:2](=[C:6]=[O:7])[H:11])([H:8])([H:9])[H:10].[C:3](=[N:4][C:5]([H:14])([H:15])[H:16])([H:12])[H:13]"
C        2.58253178       0.11749334       0.39570817
C        1.17081180       0.26940648      -0.06889052
C       -0.64058813      -0.75230494      -1.21615595
N       -1.07380322      -0.15883428      -0.10819148
C       -2.42482913       0.28279993       0.14541657
C        0.08189708       0.05955494       0.82126192
O       -0.01875486      -0.02019041       2.02834950
H        2.66405670      -0.66378913       1.15217623
H        2.95663470       1.04499618       0.84221376
H        3.24615518      -0.12604116      -0.43663703
H        0.98627470       0.96474181      -0.87829081
H       -1.16699415      -0.55397278      -2.15023331
H       -0.05435814      -1.65677130      -1.17505665
H       -2.39673570       1.13279813       0.82446722
H       -2.90936106       0.57668290      -0.78847832
H       -3.00293753      -0.51656968       0.61234069
16
Frame=4 idx=008938 GeodesicLength=0.33363868759872534 rxn_smarts="[C:1]([C@@:2]1([H:11])[C:3]([H:12])([H:13])[N:4]([C:5]([H:14])([H:15])[H:16])[C:6]1=[O:7])([H:8])([H:9])[H:10]>>[C:1]([C:2](=[C:6]=[O:7])[H:11])([H:8])([H:9])[H:10].[C:3](=[N:4][C:5]([H:14])([H:15])[H:16])([H:12])[H:13]"
C        2.58885447       0.10054653       0.38953891
C        1.17509845       0.28093224      -0.06300201
C       -0.63013952      -0.73397052      -1.21628214
N       -1.07921764      -0.14873107      -0.10828021
C       -2.43892013       0.26682328       0.14030828
C        0.09149389       0.09071756       0.83804863
O       -0.01945637       0.02654632       2.04276816
H        2.66174461      -0.68634137       1.14115983
H        2.98279903       1.01842884       0.83821442
H        3.24217579      -0.15087229      -0.44851216
H        0.99860599       0.99633807      -0.85695192
H       -1.15236045      -0.53658173      -2.15347199
H       -0.05945270      -1.64945580      -1.17759676
H       -2.42984634       1.13036273       0.80286047
H       -2.93698386       0.53260838      -0.79511098
H       -2.99439522      -0.53735118       0.62630946
16
Frame=5 idx=008938 GeodesicLength=0.41695411584727293 rxn_smarts="[C:1]([C@@:2]1([H:11])[C:3]([H:12])([H:13])[N:4]([C:5]([H:14])([H:15])[H:16])[C:6]1=[O:7])([H:8])([H:9])[H:10]>>[C:1]([C:2](=[C:6]=[O:7])[H:11])([H:8])([H:9])[H:10].[C:3](=[N:4][C:5]([H:14])([H:15])[H:16])([H:12])[H:13]"
C        2.59445803       0.08363047       0.38361113
C        1.17940684       0.29227333      -0.05722379
C       -0.61997044      -0.71539099      -1.21663254
N       -1.08466040      -0.13874991      -0.10858844
C       -2.45242818       0.25048840       0.13547774
C        0.10153364       0.12226163       0.85474949
O       -0.02015060       0.07399460       2.05676977
H        2.65835496      -0.70833636       1.13080035
H        3.00798661       0.99173323       0.83392334
H        3.23752893      -0.17587953      -0.45980612
H        1.01198018       1.02687250      -0.83587881
H       -1.13816570      -0.51826541      -2.15669153
H       -0.06489422      -1.64159577      -1.18148165
H       -2.46260092       1.12701474       0.78101484
H       -2.96340260       0.48727403      -0.80099515
H       -2.98497613      -0.55732496       0.64095136
16
Frame=6 idx=008938 GeodesicLength=0.5002448865823366 rxn_smarts="[C:1]([C@@:2]1([H:11])[C:3]([H:12])([H:13])[N:4]([C:5]([H:14])([H:15])[H:16])[C:6]1=[O:7])([H:8])([H:9])[H:10]>>[C:1]([C:2](=[C:6]=[O:7])[H:11])([H:8])([H:9])[H:10].[C:3](=[N:4][C:5]([H:14])([H:15])[H:16])([H:12])[H:13]"
C        2.59933710       0.06671010       0.37792827
C        1.18372021       0.30349289      -0.05154144
C       -0.61006293      -0.69654893      -1.21720650
N       -1.09013553      -0.12891339      -0.10910354
C       -2.46536377       0.23376115       0.13092840
C        0.11203491       0.15425574       0.87137464
O       -0.02084679       0.12224294       2.07033477
H        2.65386972      -0.72983771       1.12107656
H        3.03224653       0.96484173       0.82938518
H        3.23217411      -0.20111289      -0.47053930
H        1.02638103       1.05641187      -0.81509230
H       -1.12442698      -0.49901889      -2.15987910
H       -0.07060831      -1.63313608      -1.18673600
H       -2.49504227       1.12270426       0.75892558
H       -2.98857561       0.44064356      -0.80609994
H       -2.97470142      -0.57649636       0.65624472
16
Frame=7 idx=008938 GeodesicLength=0.583514483042408 rxn_smarts="[C:1]([C@@:2]1([H:11])[C:3]([H:12])([H:13])[N:4]([C:5]([H:14])([H:15])[H:16])[C:6]1=[O:7])([H:8])([H:9])[H:10]>>[C:1]([C:2](=[C:6]=[O:7])[H:11])([H:8])([H:9])[H:10].[C:3](=[N:4][C:5]([H:14])([H:15])[H:16])([H:12])[H:13]"
C        2.60348108       0.04976153       0.37249411
C        1.18802259       0.31464097      -0.04594343
C       -0.60040424      -0.67743590      -1.21800153
N       -1.09564525      -0.11925570      -0.10980919
C       -2.47772909       0.21661609       0.12666352
C        0.12302034       0.18675875       0.88793292
O       -0.02155025       0.17134920       2.08343928
H        2.64827131      -0.75089224       1.11196926
H        3.05560685       0.93770020       0.82464192
H        3.22607075      -0.22660143      -0.48072765
H        1.04179198       1.08500528      -0.79461587
H       -1.11116885      -0.47884611      -2.16301886
H       -0.07652966      -1.62403305      -1.19338219
H       -2.52719559       1.11737699       0.73660161
H       -3.01243927       0.39271567      -0.81039625
H       -2.96360267      -0.59486025       0.67215235
16
Frame=8 idx=008938 GeodesicLength=0.6667707029642831 rxn_smarts="[C:1]([C@@:2]1([H:11])[C:3]([H:12])([H:13])[N:4]([C:5]([H:14])([H:15])[H:16])[C:6]1=[O:7])([H:8])([H:9])[H:10]>>[C:1]([C:2](=[C:6]=[O:7])[H:11])([H:8])([H:9])[H:10].[C:3](=[N:4][C:5]([H:14])([H:15])[H:16])([H:12])[H:13]"
C        2.60687531       0.03275889       0.36731364
C        1.19230106       0.32576481      -0.04041769
C       -0.59098077      -0.65803578      -1.21902001
N       -1.10118921      -0.10980923      -0.11069106
C       -2.48952424       0.19902258       0.12268960
C        0.13451437       0.21983087       0.90443248
O       -0.02227066       0.22137438       2.09605585
H        2.64153370      -0.77153590       1.10347303
H        3.07809408       0.91025499       0.81971964
H        3.21917142      -0.25239036      -0.49038257
H        1.05820472       1.11269941      -0.77447058
H       -1.09841169      -0.45773458      -2.16609864
H       -0.08259569      -1.61423855      -1.20144960
H       -2.55908566       1.11097486       0.71405272
H       -3.03493112       0.34348282      -0.81385184
H       -2.95170563      -0.61241924       0.68864503
16
Frame=9 idx=008938 GeodesicLength=0.7500059237689501 rxn_smarts="[C:1]([C@@:2]1([H:11])[C:3]([H:12])([H:13])[N:4]([C:5]([H:14])([H:15])[H:16])[C:6]1=[O:7])([H:8])([H:9])[H:10]>>[C:1]([C:2](=[C:6]=[O:7])[H:11])([H:8])([H:9])[H:10].[C:3](=[N:4][C:5]([H:14])([H:15])[H:16])([H:12])[H:13]"
C        2.60950354       0.01569441       0.36238793
C        1.19654074       0.33689375      -0.03495542
C       -0.58179166      -0.63835716      -1.22024653
N       -1.10676800      -0.10063561      -0.11171728
C       -2.50073732       0.18096853       0.11900753
C        0.14655358       0.25350086       0.92088085
O       -0.02300825       0.27236020       2.10815553
H        2.63364730      -0.79179086       1.09556513
H        3.09970707       0.88246708       0.81465523
H        3.21143165      -0.27847394      -0.49951814
H        1.07559096       1.13951418      -0.75467542
H       -1.08618840      -0.43569989      -2.16908854
H       -0.08875117      -1.60372204      -1.21095527
H       -2.59070663       1.10342889       0.69131122
H       -3.05595591       0.29301145      -0.81644329
H       -2.93906750      -0.62915983       0.70563647
16
Frame=10 idx=008938 GeodesicLength=0.8331559103363108 rxn_smarts="[C:1]([C@@:2]1([H:11])[C:3]([H:12])([H:13])[N:4]([C:5]([H:14])([H:15])[H:16])[C:6]1=[O:7])([H:8])([H:9])[H:10]>>[C:1]([C:2](=[C:6]=[O:7])[H:11])([H:8])([H:9])[H:10].[C:3](=[N:4][C:5]([H:14])([H:15])[H:16])([H:12])[H:13]"
C        2.61143070      -0.00116419       0.35772269
C        1.20066702       0.34775102      -0.02957010
C       -0.57295123      -0.61873966      -1.22164882
N       -1.11243072      -0.09212122      -0.11280937
C       -2.51132042       0.16273190       0.11555852
C        0.15919384       0.28723685       0.93734687
O       -0.02371423       0.32353149       2.11976964
H        2.62500633      -0.81138204       1.08824892
H        3.12018032       0.85479327       0.80947068
H        3.20303335      -0.30433634      -0.50813328
H        1.09367224       1.16522815      -0.73518089
H       -1.07465286      -0.41307287      -2.17193070
H       -0.09508699      -1.59279948      -1.22190521
H       -2.62165745       1.09497659       0.66842629
H       -3.07525505       0.24202475      -0.81826550
H       -2.92611485      -0.64465822       0.72290025
16
Frame=11 idx=008938 GeodesicLength=0.9162347232576248 rxn_smarts="[C:1]([C@@:2]1([H:11])[C:3]([H:12])([H:13])[N:4]([C:5]([H:14])([H:15])[H:16])[C:6]1=[O:7])([H:8])([H:9])[H:10]>>[C:1]([C:2](=[C:6]=[O:7])[H:11])([H:8])([H:9])[H:10].[C:3](=[N:4][C:5]([H:14])([H:15])[H:16])([H:12])[H:13]"
C        2.61266235      -0.01785140       0.35330623
C        1.20466936       0.35840587      -0.02423280
C       -0.56443212      -0.59916519      -1.22320885
N       -1.11816943      -0.08430142      -0.11394220
C       -2.52130443       0.14427701       0.11233722
C        0.17246887       0.32110518       0.95386090
O       -0.02440667       0.37496160       2.13089242
H        2.61560239      -0.83036702       1.08149308
H        3.13959214       0.82716874       0.80417157
H        3.19393250      -0.33004006      -0.51626698
H        1.11242948       1.18990375      -0.71598275
H       -1.06377844      -0.38982051      -2.17460248
H       -0.10153145      -1.58141530      -1.23429497
H       -2.65197746       1.08559320       0.64537225
H       -3.09285147       0.19050141      -0.81932172
H       -2.91290561      -0.65895586       0.74041908
16
Frame=12 idx=008938 GeodesicLength=0.9992551423580102 rxn_smarts="[C:1]([C@@:2]1([H:11])[C:3]([H:12])([H:13])[N:4]([C:5]([H:14])([H:15])[H:16])[C:6]1=[O:7])([H:8])([H:9])[H:10]>>[C:1]([C:2](=[C:6]=[O:7])[H:11])([H:8])([H:9])[H:10].[C:3](=[N:4][C:5]([H:14])([H:15])[H:16])([H:12])[H:13]"
C        2.61320336      -0.03437464       0.34911970
C        1.20853019       0.36890926      -0.01891241
C       -0.55621015      -0.57965355      -1.22490016
N       -1.12397435      -0.07724082      -0.11508295
C       -2.53071260       0.12559723       0.10932927
C        0.18641508       0.35512842       0.97046782
O       -0.02509958       0.42663610       2.14153418
H        2.60545619      -0.84877927       1.07525949
H        3.15799077       0.79957050       0.79875421
H        3.18409047      -0.35559559      -0.52397139
H        1.13181702       1.21359316      -0.69706700
H       -1.05354038      -0.36595275      -2.17707558
H       -0.10802454      -1.56955665      -1.24810010
H       -2.68166619       1.07528193       0.62212869
H       -3.10874088       0.13849561      -0.81963600
H       -2.89953440      -0.67205895       0.75815224
16
Frame=13 idx=008938 GeodesicLength=1.0822861784509727 rxn_smarts="[C:1]([C@@:2]1([H:11])[C:3]([H:12])([H:13])[N:4]([C:5]([H:14])([H:15])[H:16])[C:6]1=[O:7])([H:8])([H:9])[H:10]>>[C:1]([C:2](=[C:6]=[O:7])[H:11])([H:8])([H:9])[H:10].[C:3](=[N:4][C:5]([H:14])([H:15])[H:16])([H:12])[H:13]"
C        2.61305864      -0.05074421       0.34514381
C        1.21223507       0.37931308      -0.01357322
C       -0.54825706      -0.56022261      -1.22672217
N       -1.12983443      -0.07101239      -0.11619955
C       -2.53956896       0.10668081       0.10652594
C        0.20106738       0.38931629       0.98724261
O       -0.02582495       0.47854541       2.15175099
H        2.59459097      -0.86664836       1.06954938
H        3.17543345       0.77199795       0.79318312
H        3.17345655      -0.38104972      -0.53131595
H        1.15179855       1.23637685      -0.67841369
H       -1.04390089      -0.34145446      -2.17935834
H       -0.11450846      -1.55722527      -1.26333766
H       -2.71071562       1.06408017       0.59865295
H       -3.12292949       0.08601955      -0.81923918
H       -2.88610076      -0.68397310       0.77611096
16
Frame=14 idx=008938 GeodesicLength=1.1651984561180657 rxn_smarts="[C:1]([C@@:2]1([H:11])[C:3]([H:12])([H:13])[N:4]([C:5]([H:14])([H:15])[H:16])[C:6]1=[O:7])([H:8])([H:9])[H:10]>>[C:1]([C:2](=[C:6]=[O:7])[H:11])([H:8])([H:9])[H:10].[C:3](=[N:4][C:5]([H:14])([H:15])[H:16])([H:12])[H:13]"
C        2.61215741      -0.06715277       0.34138485
C        1.21582557       0.38979387      -0.00819809
C       -0.54049874      -0.54059666      -1.22863011
N       -1.13569567      -0.06545793      -0.11728788
C       -2.54788485       0.08727770       0.10396587
C        0.21648302       0.42403819       1.00408567
O       -0.02662846       0.53137403       2.16129370
H        2.58273348      -0.88401867       1.06444637
H        3.19212365       0.74408012       0.78734577
H        3.16178224      -0.40688489      -0.53823120
H        1.17256266       1.25834571      -0.66002067
H       -1.03483588      -0.31605211      -2.18133541
H       -0.12087803      -1.54405878      -1.28002206
H       -2.73939888       1.05154337       0.57507902
H       -3.13545209       0.03286927      -0.81801241
H       -2.87239542      -0.69510045       0.79413659
16
Frame=15 idx=008938 GeodesicLength=1.2479907969812634 rxn_smarts="[C:1]([C@@:2]1([H:11])[C:3]([H:12])([H:13])[N:4]([C:5]([H:14])([H:15])[H:16])[C:6]1=[O:7])([H:8])([H:9])[H:10]>>[C:1]([C:2](=[C:6]=[O:7])[H:11])([H:8])([H:9])[H:10].[C:3](=[N:4][C:5]([H:14])([H:15])[H:16])([H:12])[H:13]"
C        2.61051993      -0.08345901       0.33780280
C        1.21924054       0.40030929      -0.00270668
C       -0.53295163      -0.52098341      -1.23054860
N       -1.14156535      -0.06079719      -0.11832966
C       -2.55566641       0.06757261       0.10156827
C        0.23270273       0.45902768       1.02111134
O       -0.02747769       0.58438318       2.17021966
H        2.57008141      -0.90094460       1.05966232
H        3.20792054       0.71595968       0.78137113
H        3.14915292      -0.43257453      -0.54482682
H        1.19388126       1.27943927      -0.64181723
H       -1.02631004      -0.28991201      -2.18290947
H       -0.12710138      -1.53019025      -1.29799820
H       -2.76744822       1.03807777       0.55097889
H       -3.14628803      -0.02100296      -0.81601680
H       -2.85869060      -0.70490553       0.81243903
16
Frame=16 idx=008938 GeodesicLength=1.330870771894121 rxn_smarts="[C:1]([C@@:2]1([H:11])[C:3]([H:12])([H:13])[N:4]([C:5]([H:14])([H:15])[H:16])[C:6]1=[O:7])([H:8])([H:9])[H:10]>>[C:1]([C:2](=[C:6]=[O:7])[H:11])([H:8])([H:9])[H:10].[C:3](=[N:4][C:5]([H:14])([H:15])[H:16])([H:12])[H:13]"
C        2.60804573      -0.09989301       0.33442867
C        1.22254368       0.41106948       0.00288738
C       -0.52553985      -0.50111438      -1.23259602
N       -1.14738034      -0.05684400      -0.11933179
C       -2.56290279       0.04728235       0.09943209
C        0.24978858       0.49474654       1.03832778
O       -0.02845902       0.63845249       2.17850907
H        2.55627701      -0.91758250       1.05541621
H        3.22298936       0.68731203       0.77520441
H        3.13531091      -0.45870194      -0.55110490
H        1.21603159       1.29988040      -0.62392676
H       -1.01830663      -0.26273176      -2.18421401
H       -0.13308905      -1.51537692      -1.31748217
H       -2.79515309       1.02329129       0.52664147
H       -3.15541598      -0.07584447      -0.81318449
H       -2.84474011      -0.71394560       0.83099306
