14
Frame=0 idx=009412 GeodesicLength=0.0 rxn_smarts="[O:1]([C@@:2]1([H:9])[C:3]([H:10])([H:11])[O:4][C:5]([H:12])=[N:6][C:7]1([H:13])[H:14])[H:8]>>[O:1]([C@@:2]1([H:9])[C-:3]([H:10])[O+:4]=[C:5]([H:12])[N:6]([H:11])[C:7]1([H:13])[H:14])[H:8]"
O       -2.11259268      -0.19488965       0.66388246
C       -0.99906961       0.11679957      -0.14391317
C       -0.08314320       1.08497470       0.57925096
O        1.06090463       1.40579603      -0.15164518
C        1.74596049       0.34948410      -0.45800357
N        1.26322544      -0.80359734       0.00573903
C       -0.12005203      -1.09462625      -0.49040106
H       -1.78506173      -0.37071333       1.55121635
H       -1.42259334       0.55712022      -1.05418134
H       -0.54225649       2.00534909       0.92304530
H        0.81708461      -0.27829917       0.97321996
H        2.73226563       0.51826524      -0.87026873
H       -0.07683684      -1.31137561      -1.55667906
H       -0.47783484      -1.98428765       0.02873799
14
Frame=1 idx=009412 GeodesicLength=0.09439931390245855 rxn_smarts="[O:1]([C@@:2]1([H:9])[C:3]([H:10])([H:11])[O:4][C:5]([H:12])=[N:6][C:7]1([H:13])[H:14])[H:8]>>[O:1]([C@@:2]1([H:9])[C-:3]([H:10])[O+:4]=[C:5]([H:12])[N:6]([H:11])[C:7]1([H:13])[H:14])[H:8]"
O       -2.09726948      -0.21756034       0.68854919
C       -1.00301025       0.11600868      -0.13818732
C       -0.08832367       1.09524706       0.56936496
O        1.06674183       1.40186579      -0.15734416
C        1.74863889       0.34031602      -0.45496681
N        1.25436029      -0.80686740       0.00585454
C       -0.12377493      -1.08882435      -0.50342861
H       -1.75435303      -0.37987214       1.57236820
H       -1.45063562       0.55284041      -1.03836386
H       -0.55046380       2.03088969       0.86637881
H        0.81236105      -0.26997273       1.00116775
H        2.75103361       0.50214134      -0.82987615
H       -0.08342763      -1.28482686      -1.57410355
H       -0.48187727      -1.99138517      -0.00741299
14
Frame=2 idx=009412 GeodesicLength=0.18861769784447757 rxn_smarts="[O:1]([C@@:2]1([H:9])[C:3]([H:10])([H:11])[O:4][C:5]([H:12])=[N:6][C:7]1([H:13])[H:14])[H:8]>>[O:1]([C@@:2]1([H:9])[C-:3]([H:10])[O+:4]=[C:5]([H:12])[N:6]([H:11])[C:7]1([H:13])[H:14])[H:8]"
O       -2.08116638      -0.23991187       0.71259041
C       -1.00676239       0.11524298      -0.13253065
C       -0.09361660       1.10543876       0.55950093
O        1.07269453       1.39789721      -0.16226616
C        1.75122239       0.33118730      -0.45165141
N        1.24543296      -0.81013682       0.00590852
C       -0.12749019      -1.08290920      -0.51636139
H       -1.72344943      -0.38864923       1.59265408
H       -1.47819361       0.54820808      -1.02218414
H       -0.55813510       2.05423498       0.80930645
H        0.80766671      -0.26081870       1.02978415
H        2.76775840       0.48588149      -0.79018929
H       -0.08996199      -1.25805890      -1.59101952
H       -0.48599931      -1.99760610      -0.04354198
14
Frame=3 idx=009412 GeodesicLength=0.28269813814144884 rxn_smarts="[O:1]([C@@:2]1([H:9])[C:3]([H:10])([H:11])[O:4][C:5]([H:12])=[N:6][C:7]1([H:13])[H:14])[H:8]>>[O:1]([C@@:2]1([H:9])[C-:3]([H:10])[O+:4]=[C:5]([H:12])[N:6]([H:11])[C:7]1([H:13])[H:14])[H:8]"
O       -2.06431855      -0.26198616       0.73599818
C       -1.01034294       0.11449021      -0.12693348
C       -0.09902678       1.11554231       0.54964835
O        1.07872971       1.39388928      -0.16644567
C        1.75368634       0.32209267      -0.44809521
N        1.23644166      -0.81342191       0.00584747
C       -0.13121294      -1.07688602      -0.52922245
H       -1.69239351      -0.39705186       1.61209793
H       -1.50528521       0.54321908      -1.00562959
H       -0.56521556       2.07540886       0.75188623
H        0.80301472      -0.25075747       1.05908884
H        2.78260571       0.46950847      -0.75115343
H       -0.09647572      -1.23107989      -1.60744900
H       -0.49020692      -2.00296757      -0.07963817
14
Frame=4 idx=009412 GeodesicLength=0.3766737691228028 rxn_smarts="[O:1]([C@@:2]1([H:9])[C:3]([H:10])([H:11])[O:4][C:5]([H:12])=[N:6][C:7]1([H:13])[H:14])[H:8]>>[O:1]([C@@:2]1([H:9])[C-:3]([H:10])[O+:4]=[C:5]([H:12])[N:6]([H:11])[C:7]1([H:13])[H:14])[H:8]"
O       -2.04676858      -0.28381272       0.75873293
C       -1.01375754       0.11374239      -0.12139195
C       -0.10456155       1.12555253       0.53981389
O        1.08483183       1.38983933      -0.16987708
C        1.75602657       0.31302837      -0.44428460
N        1.22739079      -0.81674067       0.00564786
C       -0.13494476      -1.07075815      -0.54202132
H       -1.66125866      -0.40508577       1.63070032
H       -1.53188858       0.53787837      -0.98870720
H       -0.57166067       2.09441330       0.69419943
H        0.79841672      -0.23971291       1.08913557
H        2.79565351       0.45303905      -0.71286527
H       -0.10297474      -1.20390184      -1.62339985
H       -0.49450433      -2.00748126      -0.11568272
14
Frame=5 idx=009412 GeodesicLength=0.470775718221309 rxn_smarts="[O:1]([C@@:2]1([H:9])[C:3]([H:10])([H:11])[O:4][C:5]([H:12])=[N:6][C:7]1([H:13])[H:14])[H:8]>>[O:1]([C@@:2]1([H:9])[C-:3]([H:10])[O+:4]=[C:5]([H:12])[N:6]([H:11])[C:7]1([H:13])[H:14])[H:8]"
O       -2.02850382      -0.30546506       0.78085826
C       -1.01701725       0.11297946      -0.11586699
C       -0.11020299       1.13545869       0.52997651
O        1.09096091       1.38572870      -0.17263240
C        1.75822250       0.30396948      -0.44024831
N        1.21828861      -0.82014588       0.00518129
C       -0.13871721      -1.06452875      -0.55481622
H       -1.63002104      -0.41279642       1.64853440
H       -1.55807392       0.53219360      -0.97133950
H       -0.57748571       2.11135353       0.63615825
H        0.79384488      -0.22754647       1.11994748
H        2.80715941       0.43646836      -0.67509214
H       -0.10954756      -1.17648867      -1.63893151
H       -0.49890680      -2.01118057      -0.15172913
14
Frame=6 idx=009412 GeodesicLength=0.5648785714042054 rxn_smarts="[O:1]([C@@:2]1([H:9])[C:3]([H:10])([H:11])[O:4][C:5]([H:12])=[N:6][C:7]1([H:13])[H:14])[H:8]>>[O:1]([C@@:2]1([H:9])[C-:3]([H:10])[O+:4]=[C:5]([H:12])[N:6]([H:11])[C:7]1([H:13])[H:14])[H:8]"
O       -2.00957723      -0.32695491       0.80230479
C       -1.02012882       0.11219510      -0.11037354
C       -0.11597348       1.14526035       0.52013942
O        1.09710656       1.38156064      -0.17469298
C        1.76027353       0.29492176      -0.43597218
N        1.20913518      -0.82363844       0.00445909
C       -0.14252377      -1.05819932      -0.56760075
H       -1.59877252      -0.42016524       1.66557933
H       -1.58379104       0.52616428      -0.95356602
H       -0.58261017       2.12616628       0.57791641
H        0.78932917      -0.21418856       1.15157804
H        2.81712117       0.41981699      -0.63799904
H       -0.11616913      -1.14886868      -1.65403300
H       -0.50341945      -2.01407024      -0.18773957
14
Frame=7 idx=009412 GeodesicLength=0.6590303276124253 rxn_smarts="[O:1]([C@@:2]1([H:9])[C:3]([H:10])([H:11])[O:4][C:5]([H:12])=[N:6][C:7]1([H:13])[H:14])[H:8]>>[O:1]([C@@:2]1([H:9])[C-:3]([H:10])[O+:4]=[C:5]([H:12])[N:6]([H:11])[C:7]1([H:13])[H:14])[H:8]"
O       -1.98999168      -0.34833099       0.82309003
C       -1.02310253       0.11137091      -0.10489928
C       -0.12187815       1.15495163       0.51028072
O        1.10323712       1.37732805      -0.17610160
C        1.76216174       0.28587200      -0.43147517
N        1.19993270      -0.82724820       0.00341349
C       -0.14638233      -1.05177130      -0.58041065
H       -1.56752261      -0.42720621       1.68187280
H       -1.60905943       0.51978984      -0.93536167
H       -0.58700192       2.13886616       0.51949944
H        0.78486519      -0.19950198       1.18406050
H        2.82567658       0.40307526      -0.60149044
H       -0.12287454      -1.12102430      -1.66873664
H       -0.50806015      -2.01617087      -0.22374152
14
Frame=8 idx=009412 GeodesicLength=0.7532400731671864 rxn_smarts="[O:1]([C@@:2]1([H:9])[C:3]([H:10])([H:11])[O:4][C:5]([H:12])=[N:6][C:7]1([H:13])[H:14])[H:8]>>[O:1]([C@@:2]1([H:9])[C-:3]([H:10])[O+:4]=[C:5]([H:12])[N:6]([H:11])[C:7]1([H:13])[H:14])[H:8]"
O       -1.96975479      -0.36962704       0.84320728
C       -1.02594297       0.11049355      -0.09943782
C       -0.12792163       1.16453195       0.50038540
O        1.10933431       1.37301856      -0.17688289
C        1.76388675       0.27681036      -0.42675233
N        1.19068481      -0.83100405       0.00198812
C       -0.15030377      -1.04524506      -0.59327083
H       -1.53629894      -0.43393134       1.69743506
H       -1.63387995       0.51307622      -0.91671216
H       -0.59063150       2.14944422       0.46095397
H        0.78045107      -0.18336717       1.21744390
H        2.83290888       0.38624738      -0.56554607
H       -0.12968713      -1.09295113      -1.68306323
H       -0.51284513      -2.01749645      -0.25974839
14
Frame=9 idx=009412 GeodesicLength=0.8477670090324503 rxn_smarts="[O:1]([C@@:2]1([H:9])[C:3]([H:10])([H:11])[O:4][C:5]([H:12])=[N:6][C:7]1([H:13])[H:14])[H:8]>>[O:1]([C@@:2]1([H:9])[C-:3]([H:10])[O+:4]=[C:5]([H:12])[N:6]([H:11])[C:7]1([H:13])[H:14])[H:8]"
O       -1.94879645      -0.39092787       0.86274051
C       -1.02864660       0.10953511      -0.09394614
C       -0.13408217       1.17399085       0.49042015
O        1.11537306       1.36859485      -0.17710571
C        1.76544661       0.26769082      -0.42176704
N        1.18139997      -0.83498739       0.00003931
C       -0.15432295      -1.03861424      -0.60626230
H       -1.50501259      -0.44040295       1.71234713
H       -1.65832024       0.50602227      -0.89750962
H       -0.59353945       2.15798363       0.40213738
H        0.77601965      -0.16552762       1.25178815
H        2.83898221       0.36927980      -0.52991284
H       -0.13668308      -1.06456522      -1.69708632
H       -0.51781797      -2.01807205      -0.29588266
14
Frame=10 idx=009412 GeodesicLength=0.9423798423873783 rxn_smarts="[O:1]([C@@:2]1([H:9])[C:3]([H:10])([H:11])[O:4][C:5]([H:12])=[N:6][C:7]1([H:13])[H:14])[H:8]>>[O:1]([C@@:2]1([H:9])[C-:3]([H:10])[O+:4]=[C:5]([H:12])[N:6]([H:11])[C:7]1([H:13])[H:14])[H:8]"
O       -1.92714244      -0.41223487       0.88163672
C       -1.03122171       0.10848582      -0.08844615
C       -0.14038821       1.18333259       0.48036507
O        1.12133896       1.36405973      -0.17677147
C        1.76683527       0.25851932      -0.41653244
N        1.17207333      -0.83919755      -0.00243697
C       -0.15843903      -1.03188055      -0.61938367
H       -1.47372084      -0.44660087       1.72659044
H       -1.68233542       0.49862785      -0.87779354
H       -0.59564828       2.16438481       0.34322570
H        0.77159754      -0.14589143       1.28712675
H        2.84388677       0.35218496      -0.49467223
H       -0.14384260      -1.03589273      -1.71079566
H       -0.52299334      -2.01789707      -0.33211253
14
Frame=11 idx=009412 GeodesicLength=1.0371013158367879 rxn_smarts="[O:1]([C@@:2]1([H:9])[C:3]([H:10])([H:11])[O:4][C:5]([H:12])=[N:6][C:7]1([H:13])[H:14])[H:8]>>[O:1]([C@@:2]1([H:9])[C-:3]([H:10])[O+:4]=[C:5]([H:12])[N:6]([H:11])[C:7]1([H:13])[H:14])[H:8]"
O       -1.90474247      -0.43359561       0.89993037
C       -1.03366686       0.10732146      -0.08292587
C       -0.14683991       1.19255355       0.47017696
O        1.12720844       1.35939180      -0.17593148
C        1.76804465       0.24926924      -0.41104156
N        1.16270974      -0.84368236      -0.00553583
C       -0.16267488      -1.02504021      -0.63268768
H       -1.44237042      -0.45255319       1.74020512
H       -1.70594772       0.49088447      -0.85751561
H       -0.59694333       2.16864035       0.28422966
H        0.76713828      -0.12424288       1.32350048
H        2.84770082       0.33492647      -0.45966598
H       -0.15120499      -1.00689244      -1.72423198
H       -0.52841137      -2.01698065      -0.36850661
14
Frame=12 idx=009412 GeodesicLength=1.1318730732051483 rxn_smarts="[O:1]([C@@:2]1([H:9])[C:3]([H:10])([H:11])[O:4][C:5]([H:12])=[N:6][C:7]1([H:13])[H:14])[H:8]>>[O:1]([C@@:2]1([H:9])[C-:3]([H:10])[O+:4]=[C:5]([H:12])[N:6]([H:11])[C:7]1([H:13])[H:14])[H:8]"
O       -1.88155305      -0.45504190       0.91763124
C       -1.03597998       0.10602333      -0.07738186
C       -0.15344139       1.20164917       0.45982195
O        1.13296800       1.35456687      -0.17461324
C        1.76907559       0.23991562      -0.40527074
N        1.15330709      -0.84848652      -0.00933268
C       -0.16704811      -1.01808882      -0.64621616
H       -1.41092107      -0.45828559       1.75320972
H       -1.72915983       0.48279171      -0.83664436
H       -0.59741685       2.17072541       0.22518815
H        0.76261183      -0.10038824       1.36095470
H        2.85045989       0.31747988      -0.42481158
H       -0.15878929      -0.97753720      -1.73742195
H       -0.53411283      -2.01532372      -0.40511320
14
Frame=13 idx=009412 GeodesicLength=1.2268501013185849 rxn_smarts="[O:1]([C@@:2]1([H:9])[C:3]([H:10])([H:11])[O:4][C:5]([H:12])=[N:6][C:7]1([H:13])[H:14])[H:8]>>[O:1]([C@@:2]1([H:9])[C-:3]([H:10])[O+:4]=[C:5]([H:12])[N:6]([H:11])[C:7]1([H:13])[H:14])[H:8]"
O       -1.85744429      -0.47665762       0.93482171
C       -1.03814695       0.10455798      -0.07177835
C       -0.16018059       1.21061372       0.44924960
O        1.13860616       1.34953575      -0.17285942
C        1.76993083       0.23039650      -0.39913740
N        1.14386804      -0.85370723      -0.01398431
C       -0.17159695      -1.01100923      -0.66006125
H       -1.37921315      -0.46386824       1.76566849
H       -1.75201997       0.47433341      -0.81505778
H       -0.59710192       2.17065490       0.16596554
H        0.75789906      -0.07397370       1.39955268
H        2.85222620       0.29976220      -0.38985484
H       -0.16665196      -0.94771891      -1.75043352
H       -0.54017452      -2.01291952      -0.44209113
14
Frame=14 idx=009412 GeodesicLength=1.321796605891801 rxn_smarts="[O:1]([C@@:2]1([H:9])[C:3]([H:10])([H:11])[O:4][C:5]([H:12])=[N:6][C:7]1([H:13])[H:14])[H:8]>>[O:1]([C@@:2]1([H:9])[C-:3]([H:10])[O+:4]=[C:5]([H:12])[N:6]([H:11])[C:7]1([H:13])[H:14])[H:8]"
O       -1.83237598      -0.49844087       0.95147582
C       -1.04016589       0.10290620      -0.06613598
C       -0.16707699       1.21944278       0.43841154
O        1.14410542       1.34429040      -0.17069458
C        1.77059485       0.22070615      -0.39267247
N        1.13439154      -0.85936427      -0.01955116
C       -0.17633468      -1.00380311      -0.67424814
H       -1.34720943      -0.46930445       1.77756227
H       -1.77450021       0.46549829      -0.79276231
H       -0.59594672       2.16834301       0.10673954
H        0.75297309      -0.04482072       1.43930248
H        2.85298263       0.28175329      -0.35471587
H       -0.17480158      -0.91744758      -1.76327288
H       -0.54663605      -2.00975913      -0.47943827
14
Frame=15 idx=009412 GeodesicLength=1.4166732761871221 rxn_smarts="[O:1]([C@@:2]1([H:9])[C:3]([H:10])([H:11])[O:4][C:5]([H:12])=[N:6][C:7]1([H:13])[H:14])[H:8]>>[O:1]([C@@:2]1([H:9])[C-:3]([H:10])[O+:4]=[C:5]([H:12])[N:6]([H:11])[C:7]1([H:13])[H:14])[H:8]"
O       -1.80622756      -0.52043266       0.96763315
C       -1.04202328       0.10103900      -0.06044428
C       -0.17413172       1.22812789       0.42725458
O        1.14945335       1.33879403      -0.16814475
C        1.77105977       0.21079989      -0.38583165
N        1.12487837      -0.86552881      -0.02616333
C       -0.18129284      -0.99645843      -0.68884746
H       -1.31475389      -0.47465155       1.78890872
H       -1.79661389       0.45626544      -0.76968183
H       -0.59395326       2.16376437       0.04750436
H        0.74772723      -0.01261986       1.48023204
H        2.85272569       0.26338357      -0.31918326
H       -0.18327443      -0.88665932      -1.77598165
H       -0.55357353      -2.00582356      -0.51725466
14
Frame=16 idx=009412 GeodesicLength=1.5114408691068144 rxn_smarts="[O:1]([C@@:2]1([H:9])[C:3]([H:10])([H:11])[O:4][C:5]([H:12])=[N:6][C:7]1([H:13])[H:14])[H:8]>>[O:1]([C@@:2]1([H:9])[C-:3]([H:10])[O+:4]=[C:5]([H:12])[N:6]([H:11])[C:7]1([H:13])[H:14])[H:8]"
O       -1.77885714      -0.54267248       0.98332596
C       -1.04370027       0.09892561      -0.05469654
C       -0.18134693       1.23665917       0.41571818
O        1.15464102       1.33300409      -0.16522649
C        1.77131827       0.20062695      -0.37855591
N        1.11532973      -0.87228051      -0.03396880
C       -0.18650509      -0.98896232      -0.70393323
H       -1.28166050      -0.47997176       1.79971197
H       -1.81836486       0.44661296      -0.74573541
H       -0.59112550       2.15688329      -0.01172203
H        0.74202210       0.02297795       1.52236570
H        2.85142890       0.24457476      -0.28304402
H       -0.19210689      -0.85529259      -1.78860027
H       -0.56107284      -2.00108513      -0.55563910
