14
Frame=0 idx=001524 GeodesicLength=0.0 rxn_smarts="[C:1]([C@:2]12[C:3]([H:10])([H:11])[C@@:4]1([H:12])[C:5]([H:13])([H:14])[O:6]2)([H:7])([H:8])[H:9]>>[C:1]([C@@:4]1([H:12])[C:3]([H:10])([H:11])[C-:2]=[O+:6][C:5]1([H:13])[H:14])([H:7])([H:8])[H:9]"
C       -1.44280023      -0.44223375       0.23434243
C       -0.33503460       1.10612118       0.45432886
C        0.36349907       1.10558732      -0.90108170
C        0.36032052      -0.31319901      -0.56245177
C        1.20520167      -0.44432314       0.68279001
O        0.66027059       0.68271833       1.35734519
H       -1.33821416      -1.52140843       0.08566223
H       -1.81411418      -0.31249053       1.24601743
H       -2.16898883      -0.05864733      -0.47730594
H        1.31475603       1.62905043      -0.88515487
H       -0.27848954       1.39361143      -1.72708827
H        0.19627158      -1.10286037      -1.28295635
H        2.28599575      -0.38006279       0.50805439
H        0.99132633      -1.34186334       1.26749839
14
Frame=1 idx=001524 GeodesicLength=0.042206237358046766 rxn_smarts="[C:1]([C@:2]12[C:3]([H:10])([H:11])[C@@:4]1([H:12])[C:5]([H:13])([H:14])[O:6]2)([H:7])([H:8])[H:9]>>[C:1]([C@@:4]1([H:12])[C:3]([H:10])([H:11])[C-:2]=[O+:6][C:5]1([H:13])[H:14])([H:7])([H:8])[H:9]"
C       -1.44736888      -0.44129282       0.23067143
C       -0.32372512       1.10494644       0.46185412
C        0.36074030       1.10711689      -0.89773409
C        0.35907600      -0.31527309      -0.55895407
C        1.21132101      -0.44814061       0.68136074
O        0.66812913       0.67909531       1.36179182
H       -1.35142686      -1.52410957       0.10477829
H       -1.83546769      -0.29593434       1.23441507
H       -2.16761542      -0.06851218      -0.49315404
H        1.31175229       1.63155107      -0.89213027
H       -0.28962294       1.39689023      -1.71665944
H        0.21083333      -1.10119758      -1.28684951
H        2.29104499      -0.37873898       0.50407963
H        1.00232986      -1.34640077       1.26653033
14
Frame=2 idx=001524 GeodesicLength=0.08438134650692447 rxn_smarts="[C:1]([C@:2]12[C:3]([H:10])([H:11])[C@@:4]1([H:12])[C:5]([H:13])([H:14])[O:6]2)([H:7])([H:8])[H:9]>>[C:1]([C@@:4]1([H:12])[C:3]([H:10])([H:11])[C-:2]=[O+:6][C:5]1([H:13])[H:14])([H:7])([H:8])[H:9]"
C       -1.45197584      -0.44039961       0.22699405
C       -0.31236785       1.10359327       0.46944838
C        0.35789482       1.10863020      -0.89423265
C        0.35779621      -0.31743068      -0.55544464
C        1.21750936      -0.45206350       0.67982495
O        0.67607174       0.67526864       1.36627363
H       -1.36497037      -1.52641426       0.12480933
H       -1.85697468      -0.27857617       1.22203875
H       -2.16603042      -0.07920383      -0.50923505
H        1.30851354       1.63409925      -0.89900033
H       -0.30081050       1.40021337      -1.70592981
H        0.22569189      -1.09915804      -1.29087237
H        2.29612257      -0.37745358       0.49996186
H        1.01352952      -1.35110506       1.26536391
14
Frame=3 idx=001524 GeodesicLength=0.1264867262465554 rxn_smarts="[C:1]([C@:2]12[C:3]([H:10])([H:11])[C@@:4]1([H:12])[C:5]([H:13])([H:14])[O:6]2)([H:7])([H:8])[H:9]>>[C:1]([C@@:4]1([H:12])[C:3]([H:10])([H:11])[C-:2]=[O+:6][C:5]1([H:13])[H:14])([H:7])([H:8])[H:9]"
C       -1.45661970      -0.43956290       0.22330956
C       -0.30096227       1.10204947       0.47710142
C        0.35496244       1.11011607      -0.89057050
C        0.35648232      -0.31967392      -0.55192048
C        1.22375587      -0.45608385       0.67818036
O        0.68409706       0.67124041       1.37077425
H       -1.37887810      -1.52825709       0.14572960
H       -1.87856335      -0.26045313       1.20884112
H       -2.16423084      -0.09074350      -0.52549648
H        1.30503626       1.63668714      -0.90575349
H       -0.31204595       1.40355139      -1.69489078
H        0.24084403      -1.09671350      -1.29500719
H        2.30121662      -0.37619813       0.49571099
H        1.02490561      -1.35595846       1.26399162
14
Frame=4 idx=001524 GeodesicLength=0.16851035724372126 rxn_smarts="[C:1]([C@:2]12[C:3]([H:10])([H:11])[C@@:4]1([H:12])[C:5]([H:13])([H:14])[O:6]2)([H:7])([H:8])[H:9]>>[C:1]([C@@:4]1([H:12])[C:3]([H:10])([H:11])[C-:2]=[O+:6][C:5]1([H:13])[H:14])([H:7])([H:8])[H:9]"
C       -1.46129895      -0.43879202       0.21962318
C       -0.28951780       1.10031780       0.48480953
C        0.35193814       1.11157534      -0.88675728
C        0.35514188      -0.32201156      -0.54838326
C        1.23005502      -0.46020460       0.67643904
O        0.69219770       0.66702202       1.37529799
H       -1.39319220      -1.52956389       0.16749100
H       -1.90015278      -0.24162132       1.19478330
H       -2.16221916      -0.10314087      -0.54186874
H        1.30131163       1.63932065      -0.91240109
H       -0.32333152       1.40689452      -1.68356125
H        0.25629767      -1.09385272      -1.29925414
H        2.30632366      -0.37498014       0.49134672
H        1.03644670      -1.36096322       1.26243501
14
Frame=5 idx=001524 GeodesicLength=0.2104628295665615 rxn_smarts="[C:1]([C@:2]12[C:3]([H:10])([H:11])[C@@:4]1([H:12])[C:5]([H:13])([H:14])[O:6]2)([H:7])([H:8])[H:9]>>[C:1]([C@@:4]1([H:12])[C:3]([H:10])([H:11])[C-:2]=[O+:6][C:5]1([H:13])[H:14])([H:7])([H:8])[H:9]"
C       -1.46600908      -0.43809626       0.21593727
C       -0.27804602       1.09841192       0.49257276
C        0.34881326       1.11301801      -0.88280752
C        0.35378379      -0.32445357      -0.54484387
C        1.23640619      -0.46443515       0.67461664
O        0.70036993       0.66262995       1.37986113
H       -1.40795172      -1.53027383       0.19005406
H       -1.92167188      -0.22213514       1.17982983
H       -2.15999905      -0.11639828      -0.55828806
H        1.29732589       1.64201702      -0.91895484
H       -0.33467491       1.41024543      -1.67197317
H        0.27205916      -1.09057880      -1.30361745
H        2.31144554      -0.37381684       0.48689049
H        1.04814889      -1.36613447       1.26072274
14
Frame=6 idx=001524 GeodesicLength=0.2524083022184027 rxn_smarts="[C:1]([C@:2]12[C:3]([H:10])([H:11])[C@@:4]1([H:12])[C:5]([H:13])([H:14])[O:6]2)([H:7])([H:8])[H:9]>>[C:1]([C@@:4]1([H:12])[C:3]([H:10])([H:11])[C-:2]=[O+:6][C:5]1([H:13])[H:14])([H:7])([H:8])[H:9]"
C       -1.47074391      -0.43748536       0.21226729
C       -0.26656270       1.09637288       0.50040515
C        0.34556602       1.11446746      -0.87876726
C        0.35242368      -0.32703271      -0.54130310
C        1.24281996      -0.46879918       0.67276846
O        0.70861359       0.65811166       1.38452221
H       -1.42323580      -1.53029673       0.21327778
H       -1.94300040      -0.20211417       1.16395277
H       -2.15757838      -0.13048296      -0.57464136
H        1.29304937       1.64480811      -0.92548633
H       -0.34610966       1.41363068      -1.66020372
H        0.28813448      -1.08692153      -1.30814667
H        2.31659463      -0.37274441       0.48239856
H        1.06002911      -1.37151375       1.25895622
14
Frame=7 idx=001524 GeodesicLength=0.293960956874216 rxn_smarts="[C:1]([C@:2]12[C:3]([H:10])([H:11])[C@@:4]1([H:12])[C:5]([H:13])([H:14])[O:6]2)([H:7])([H:8])[H:9]>>[C:1]([C@@:4]1([H:12])[C:3]([H:10])([H:11])[C-:2]=[O+:6][C:5]1([H:13])[H:14])([H:7])([H:8])[H:9]"
C       -1.47554495      -0.43694759       0.20852924
C       -0.25502492       1.09403966       0.50818582
C        0.34227006       1.11579857      -0.87444747
C        0.35098392      -0.32960624      -0.53778161
C        1.24918253      -0.47316976       0.67067474
O        0.71690150       0.65331402       1.38899189
H       -1.43868651      -1.52989164       0.23750618
H       -1.96427902      -0.18130839       1.14729854
H       -2.15488384      -0.14539269      -0.59120367
H        1.28857687       1.64751759      -0.93164472
H       -0.35748650       1.41681426      -1.64798602
H        0.30444383      -1.08269357      -1.31255389
H        2.32165103      -0.37161736       0.47771373
H        1.07189600      -1.37685684       1.25671723
14
Frame=8 idx=001524 GeodesicLength=0.3355427365326872 rxn_smarts="[C:1]([C@:2]12[C:3]([H:10])([H:11])[C@@:4]1([H:12])[C:5]([H:13])([H:14])[O:6]2)([H:7])([H:8])[H:9]>>[C:1]([C@@:4]1([H:12])[C:3]([H:10])([H:11])[C-:2]=[O+:6][C:5]1([H:13])[H:14])([H:7])([H:8])[H:9]"
C       -1.48039656      -0.43651010       0.20478159
C       -0.24349663       1.09161265       0.51603020
C        0.33883018       1.11716196      -0.87007343
C        0.34954469      -0.33235486      -0.53427331
C        1.25561498      -0.47770290       0.66860096
O        0.72526636       0.64842515       1.39360109
H       -1.45464218      -1.52867638       0.26225400
H       -1.98521055      -0.16007778       1.12973964
H       -2.15206233      -0.16110190      -0.60761828
H        1.28379858       1.65037632      -0.93781288
H       -0.36900134       1.42004928      -1.63565900
H        0.32105816      -1.07811765      -1.31712439
H        2.32675313      -0.37062603       0.47305379
H        1.08394351      -1.38245775       1.25450001
14
Frame=9 idx=001524 GeodesicLength=0.3769403818269538 rxn_smarts="[C:1]([C@:2]12[C:3]([H:10])([H:11])[C@@:4]1([H:12])[C:5]([H:13])([H:14])[O:6]2)([H:7])([H:8])[H:9]>>[C:1]([C@@:4]1([H:12])[C:3]([H:10])([H:11])[C-:2]=[O+:6][C:5]1([H:13])[H:14])([H:7])([H:8])[H:9]"
C       -1.48521055      -0.43620359       0.20106898
C       -0.23193185       1.08891523       0.52391101
C        0.33529747       1.11843859      -0.86552353
C        0.34815044      -0.33519482      -0.53073918
C        1.26207896      -0.48229272       0.66641333
O        0.73367660       0.64334979       1.39816780
H       -1.47139858      -1.52659060       0.28765140
H       -2.00586414      -0.13832157       1.11103612
H       -2.14887513      -0.17779980      -0.62378698
H        1.27871661       1.65323173      -0.94386947
H       -0.38054729       1.42316972      -1.62296158
H        0.33796235      -1.07297465      -1.32172095
H        2.33183860      -0.36960643       0.46828168
H        1.09610651      -1.38812089       1.25207137
14
Frame=10 idx=001524 GeodesicLength=0.4181382174836548 rxn_smarts="[C:1]([C@:2]12[C:3]([H:10])([H:11])[C@@:4]1([H:12])[C:5]([H:13])([H:14])[O:6]2)([H:7])([H:8])[H:9]>>[C:1]([C@@:4]1([H:12])[C:3]([H:10])([H:11])[C-:2]=[O+:6][C:5]1([H:13])[H:14])([H:7])([H:8])[H:9]"
C       -1.49009573      -0.43598451       0.19732232
C       -0.22037230       1.08604716       0.53181059
C        0.33163845       1.11969256      -0.86083533
C        0.34670427      -0.33815203      -0.52724111
C        1.26853185      -0.48700456       0.66414764
O        0.74212736       0.63808803       1.40275929
H       -1.48833020      -1.52370948       0.31375129
H       -2.02617082      -0.11605863       1.09141596
H       -2.14552103      -0.19528511      -0.63991867
H        1.27334738       1.65616886      -0.94977877
H       -0.39217623       1.42622612      -1.61004476
H        0.35511813      -1.06739334      -1.32632266
H        2.33687117      -0.36868760       0.46345466
H        1.10832772      -1.39394747       1.24947953
14
Frame=11 idx=001524 GeodesicLength=0.4592853278442142 rxn_smarts="[C:1]([C@:2]12[C:3]([H:10])([H:11])[C@@:4]1([H:12])[C:5]([H:13])([H:14])[O:6]2)([H:7])([H:8])[H:9]>>[C:1]([C@@:4]1([H:12])[C:3]([H:10])([H:11])[C-:2]=[O+:6][C:5]1([H:13])[H:14])([H:7])([H:8])[H:9]"
C       -1.49499141      -0.43591347       0.19358071
C       -0.20878583       1.08297139       0.53975528
C        0.32784638       1.12090528      -0.85598438
C        0.34528186      -0.34122870      -0.52375151
C        1.27504482      -0.49181523       0.66180049
O        0.75066645       0.63265971       1.40736600
H       -1.50592449      -1.51991813       0.34047344
H       -2.04614347      -0.09326438       1.07063317
H       -2.14185529      -0.21372781      -0.65584575
H        1.26764911       1.65917842      -0.95555644
H       -0.40392444       1.42920165      -1.59682006
H        0.37250477      -1.06132373      -1.33092895
H        2.34193201      -0.36780811       0.45856306
H        1.12069953      -1.39991689       1.24671495
14
Frame=12 idx=001524 GeodesicLength=0.5003496311700426 rxn_smarts="[C:1]([C@:2]12[C:3]([H:10])([H:11])[C@@:4]1([H:12])[C:5]([H:13])([H:14])[O:6]2)([H:7])([H:8])[H:9]>>[C:1]([C@@:4]1([H:12])[C:3]([H:10])([H:11])[C-:2]=[O+:6][C:5]1([H:13])[H:14])([H:7])([H:8])[H:9]"
C       -1.49990439      -0.43597858       0.18983600
C       -0.19717563       1.07967505       0.54774892
C        0.32391562       1.12207491      -0.85096053
C        0.34387141      -0.34442675      -0.52028180
C        1.28160314      -0.49673524       0.65935973
O        0.75928390       0.62703107       1.41198910
H       -1.52410744      -1.51508786       0.36789726
H       -2.06572567      -0.06996522       1.04859187
H       -2.13788114      -0.23318892      -0.67156911
H        1.26161342       1.66227039      -0.96118047
H       -0.41580421       1.43209269      -1.58326680
H        0.39010922      -1.05474281      -1.33550951
H        2.34699773      -0.36697884       0.45359509
H        1.13320404      -1.40603989       1.24375025
14
Frame=13 idx=001524 GeodesicLength=0.5413599768651187 rxn_smarts="[C:1]([C@:2]12[C:3]([H:10])([H:11])[C@@:4]1([H:12])[C:5]([H:13])([H:14])[O:6]2)([H:7])([H:8])[H:9]>>[C:1]([C@@:4]1([H:12])[C:3]([H:10])([H:11])[C-:2]=[O+:6][C:5]1([H:13])[H:14])([H:7])([H:8])[H:9]"
C       -1.50482490      -0.43620012       0.18609518
C       -0.18553399       1.07613503       0.55580077
C        0.31984023       1.12319727      -0.84574340
C        0.34248016      -0.34774509      -0.51683135
C        1.28820840      -0.50176646       0.65680895
O        0.76797981       0.62117550       1.41662245
H       -1.54289900      -1.50914696       0.39606001
H       -2.08491561      -0.04610111       1.02519224
H       -2.13355060      -0.25375502      -0.68706635
H        1.25522111       1.66545335      -0.96663127
H       -0.42782579       1.43489142      -1.56933911
H        0.40791119      -1.04762841      -1.34005074
H        2.35206480      -0.36618384       0.44853290
H        1.14584420      -1.41232555       1.24054971
14
Frame=14 idx=001524 GeodesicLength=0.5823658249224103 rxn_smarts="[C:1]([C@:2]12[C:3]([H:10])([H:11])[C@@:4]1([H:12])[C:5]([H:13])([H:14])[O:6]2)([H:7])([H:8])[H:9]>>[C:1]([C@@:4]1([H:12])[C:3]([H:10])([H:11])[C-:2]=[O+:6][C:5]1([H:13])[H:14])([H:7])([H:8])[H:9]"
C       -1.50975645      -0.43658393       0.18236014
C       -0.17386797       1.07234928       0.56393215
C        0.31560046       1.12428099      -0.84032435
C        0.34111464      -0.35118951      -0.51341221
C        1.29487975      -0.50692534       0.65414635
O        0.77675852       0.61507382       1.42128983
H       -1.56232953      -1.50198258       0.42500289
H       -2.10369037      -0.02166144       1.00029880
H       -2.12882941      -0.27549395      -0.70230017
H        1.24844341       1.66875071      -0.97189466
H       -0.44002805       1.43760768      -1.55502472
H        0.42589790      -1.03998580      -1.34454570
H        2.35715413      -0.36543366       0.44337026
H        1.15865298      -1.41880625       1.23710139
14
Frame=15 idx=001524 GeodesicLength=0.623418961986303 rxn_smarts="[C:1]([C@:2]12[C:3]([H:10])([H:11])[C@@:4]1([H:12])[C:5]([H:13])([H:14])[O:6]2)([H:7])([H:8])[H:9]>>[C:1]([C@@:4]1([H:12])[C:3]([H:10])([H:11])[C-:2]=[O+:6][C:5]1([H:13])[H:14])([H:7])([H:8])[H:9]"
C       -1.51469139      -0.43714498       0.17863768
C       -0.16216533       1.06829906       0.57216241
C        0.31118584       1.12532583      -0.83468073
C        0.33977943      -0.35476461      -0.51002723
C        1.30162380      -0.51221967       0.65135792
O        0.78562957       0.60869507       1.42599826
H       -1.58242241      -1.49348768       0.45480091
H       -2.12203486       0.00339816       0.97375793
H       -2.12365978      -0.29851562      -0.71725729
H        1.24125558       1.67218129      -0.97694637
H       -0.45243293       1.44023951      -1.54027385
H        0.44402427      -1.03179001      -1.34899144
H        2.36226403      -0.36471678       0.43809181
H        1.17164419      -1.42549958       1.23337001
14
Frame=16 idx=001524 GeodesicLength=0.6645011160807163 rxn_smarts="[C:1]([C@:2]12[C:3]([H:10])([H:11])[C@@:4]1([H:12])[C:5]([H:13])([H:14])[O:6]2)([H:7])([H:8])[H:9]>>[C:1]([C@@:4]1([H:12])[C:3]([H:10])([H:11])[C-:2]=[O+:6][C:5]1([H:13])[H:14])([H:7])([H:8])[H:9]"
C       -1.51962527      -0.43789134       0.17492628
C       -0.15042283       1.06394726       0.58049185
C        0.30657488       1.12630797      -0.82877493
C        0.33847738      -0.35845905      -0.50666601
C        1.30845089      -0.51763863       0.64842785
O        0.79460525       0.60201267       1.43072562
H       -1.60323571      -1.48346954       0.48541348
H       -2.13985174       0.02904200       0.94538156
H       -2.11802276      -0.32289159      -0.73183288
H        1.23362368       1.67572428      -0.98174009
H       -0.46507507       1.44274510      -1.52502340
H        0.46226416      -1.02302589      -1.35332972
H        2.36740246      -0.36402022       0.43268632
H        1.18483468      -1.43238303       1.22931408
