14
Frame=0 idx=004978 GeodesicLength=0.0 rxn_smarts="[O:1]([C:2]([C@@:3]1([H:10])[C:4]([H:11])([H:12])[C:5]([H:13])([H:14])[O:6]1)([H:8])[H:9])[H:7]>>[O:1]([C:2]([C@@:3]([C:4]([H:11])([H:12])[H:13])([O+:6]=[C-:5][H:14])[H:10])([H:8])[H:9])[H:7]"
O       -1.97595302       0.47464290      -0.65753746
C       -1.44335768      -0.58695431       0.09600221
C        0.02411253      -0.38758910       0.40601112
C        0.92910273      -0.09382087      -0.80037202
C        1.50097739       1.15028092       0.71676247
O        0.20577671       0.81183458       1.13775392
H       -1.80928085       1.28502125      -0.16725216
H       -1.98643760      -0.71952670       1.04012178
H       -1.56662551      -1.49710146      -0.49634375
H        0.40854319      -1.24557803       0.97632772
H        1.64644015      -0.85839800      -1.08154057
H        0.37965258       0.29445484      -1.66073681
H        1.49595502       1.01936133      -0.57081275
H        2.19109442       0.35337269       1.06161633
14
Frame=1 idx=004978 GeodesicLength=0.054191043765373835 rxn_smarts="[O:1]([C:2]([C@@:3]1([H:10])[C:4]([H:11])([H:12])[C:5]([H:13])([H:14])[O:6]1)([H:8])[H:9])[H:7]>>[O:1]([C:2]([C@@:3]([C:4]([H:11])([H:12])[H:13])([O+:6]=[C-:5][H:14])[H:10])([H:8])[H:9])[H:7]"
O       -1.97825579       0.47339271      -0.65669855
C       -1.44352040      -0.58803691       0.09556775
C        0.02439869      -0.38944249       0.40296689
C        0.92942422      -0.09226231      -0.80130491
C        1.50124334       1.14845811       0.72210823
O        0.20606103       0.81276071       1.13501671
H       -1.81205203       1.28374217      -0.16628454
H       -1.98522666      -0.72063215       1.04050559
H       -1.56755757      -1.49812313      -0.49666534
H        0.40833018      -1.24539228       0.97619789
H        1.63433279      -0.86696957      -1.08726398
H        0.37896655       0.29487826      -1.66127501
H        1.50919037       1.02826072      -0.58039203
H        2.19466528       0.35936615       1.07752129
14
Frame=2 idx=004978 GeodesicLength=0.10838123933950294 rxn_smarts="[O:1]([C:2]([C@@:3]1([H:10])[C:4]([H:11])([H:12])[C:5]([H:13])([H:14])[O:6]1)([H:8])[H:9])[H:7]>>[O:1]([C:2]([C@@:3]([C:4]([H:11])([H:12])[H:13])([O+:6]=[C-:5][H:14])[H:10])([H:8])[H:9])[H:7]"
O       -1.98054327       0.47212258      -0.65584665
C       -1.44367396      -0.58913745       0.09514526
C        0.02469768      -0.39133734       0.39991107
C        0.92976497      -0.09078038      -0.80226497
C        1.50152668       1.14656832       0.72737837
O        0.20638321       0.81367885       1.13222659
H       -1.81481009       1.28244145      -0.16530075
H       -1.98399095      -0.72173864       1.04090996
H       -1.56849878      -1.49916524      -0.49696651
H        0.40813758      -1.24522590       0.97606261
H        1.62196778      -0.87545352      -1.09318535
H        0.37829754       0.29539806      -1.66176542
H        1.52266593       1.03705144      -0.59011410
H        2.19807569       0.36557777       1.09380988
14
Frame=3 idx=004978 GeodesicLength=0.16256473753892758 rxn_smarts="[O:1]([C:2]([C@@:3]1([H:10])[C:4]([H:11])([H:12])[C:5]([H:13])([H:14])[O:6]1)([H:8])[H:9])[H:7]>>[O:1]([C:2]([C@@:3]([C:4]([H:11])([H:12])[H:13])([O+:6]=[C-:5][H:14])[H:10])([H:8])[H:9])[H:7]"
O       -1.98281288       0.47083620      -0.65497945
C       -1.44381956      -0.59025478       0.09473586
C        0.02500939      -0.39327858       0.39684357
C        0.93012408      -0.08938156      -0.80325261
C        1.50182781       1.14460607       0.73257611
O        0.20674563       0.81458018       1.12938841
H       -1.81754444       1.28112263      -0.16430132
H       -1.98273217      -0.72284332       1.04133567
H       -1.56945434      -1.50022551      -0.49724654
H        0.40796471      -1.24508589       0.97591837
H        1.60935970      -0.88383514      -1.09929623
H        0.37764418       0.29600511      -1.66220960
H        1.53636843       1.04573744      -0.59998943
H        2.20131946       0.37201712       1.11047719
14
Frame=4 idx=004978 GeodesicLength=0.2167361372473363 rxn_smarts="[O:1]([C:2]([C@@:3]1([H:10])[C:4]([H:11])([H:12])[C:5]([H:13])([H:14])[O:6]1)([H:8])[H:9])[H:7]>>[O:1]([C:2]([C@@:3]([C:4]([H:11])([H:12])[H:13])([O+:6]=[C-:5][H:14])[H:10])([H:8])[H:9])[H:7]"
O       -1.98506165       0.46953787      -0.65409481
C       -1.44395852      -0.59138768       0.09434057
C        0.02533354      -0.39527139       0.39376450
C        0.93050056      -0.08807216      -0.80426812
C        1.50214755       1.14256537       0.73770534
O        0.20715107       0.81545540       1.12650796
H       -1.82024374       1.27979001      -0.16328685
H       -1.98145231      -0.72394327       1.04178344
H       -1.57042968      -1.50130171      -0.49750507
H        0.40781036      -1.24498003       0.97576188
H        1.59652504      -0.89210031      -1.10558671
H        0.37700508       0.29668906      -1.66260992
H        1.55028161       1.05432526      -0.61002897
H        2.20439108       0.37869359       1.12751676
14
Frame=5 idx=004978 GeodesicLength=0.2708868500984686 rxn_smarts="[O:1]([C:2]([C@@:3]1([H:10])[C:4]([H:11])([H:12])[C:5]([H:13])([H:14])[O:6]1)([H:8])[H:9])[H:7]>>[O:1]([C:2]([C@@:3]([C:4]([H:11])([H:12])[H:13])([O+:6]=[C-:5][H:14])[H:10])([H:8])[H:9])[H:7]"
O       -1.98728621       0.46823246      -0.65319035
C       -1.44409268      -0.59253475       0.09396035
C        0.02566916      -0.39732163       0.39067479
C        0.93089330      -0.08685871      -0.80530966
C        1.50248684       1.14043866       0.74277253
O        0.20760233       0.81629364       1.12359254
H       -1.82289575       1.27844851      -0.16225772
H       -1.98015458      -0.72503552       1.04225343
H       -1.57143091      -1.50239103      -0.49774212
H        0.40767188      -1.24491718       0.97559024
H        1.58348362      -0.90023574      -1.11204842
H        0.37637957       0.29743917      -1.66296911
H        1.56438857       1.06281992      -0.62024251
H        2.20728487       0.38562219       1.14491599
14
Frame=6 idx=004978 GeodesicLength=0.32502441134785043 rxn_smarts="[O:1]([C:2]([C@@:3]1([H:10])[C:4]([H:11])([H:12])[C:5]([H:13])([H:14])[O:6]1)([H:8])[H:9])[H:7]>>[O:1]([C:2]([C@@:3]([C:4]([H:11])([H:12])[H:13])([O+:6]=[C-:5][H:14])[H:10])([H:8])[H:9])[H:7]"
O       -1.98948783       0.46692669      -0.65226643
C       -1.44422240      -0.59369479       0.09359497
C        0.02602038      -0.39943377       0.38757516
C        0.93130540      -0.08574529      -0.80637836
C        1.50285432       1.13822496       0.74778815
O        0.20810539       0.81709015       1.12065197
H       -1.82549366       1.27710707      -0.16121543
H       -1.97883913      -0.72611679       1.04274668
H       -1.57246169      -1.50349459      -0.49796085
H        0.40755530      -1.24490636       0.97540188
H        1.57025357      -0.90823959      -1.11866733
H        0.37575856       0.29824153      -1.66329437
H        1.57866773       1.07124092      -0.63064274
H        2.20998405       0.39279986       1.16266670
14
Frame=7 idx=004978 GeodesicLength=0.37912896582349187 rxn_smarts="[O:1]([C:2]([C@@:3]1([H:10])[C:4]([H:11])([H:12])[C:5]([H:13])([H:14])[O:6]1)([H:8])[H:9])[H:7]>>[O:1]([C:2]([C@@:3]([C:4]([H:11])([H:12])[H:13])([O+:6]=[C-:5][H:14])[H:10])([H:8])[H:9])[H:7]"
O       -1.99165672       0.46561900      -0.65131382
C       -1.44434850      -0.59486558       0.09324648
C        0.02637702      -0.40160960       0.38446170
C        0.93172063      -0.08473160      -0.80748142
C        1.50324068       1.13588942       0.75274457
O        0.20865457       0.81783218       1.11767758
H       -1.82802228       1.27575718      -0.16015651
H       -1.97750743      -0.72719017       1.04326262
H       -1.57352463      -1.50459986      -0.49815535
H        0.40744382      -1.24494575       0.97518929
H        1.55685198      -0.91608562      -1.12541191
H        0.37515890       0.29909785      -1.66357208
H        1.59311019       1.07958706      -0.64124735
H        2.21250178       0.40024548       1.18075620
14
Frame=8 idx=004978 GeodesicLength=0.43324150832260144 rxn_smarts="[O:1]([C:2]([C@@:3]1([H:10])[C:4]([H:11])([H:12])[C:5]([H:13])([H:14])[O:6]1)([H:8])[H:9])[H:7]>>[O:1]([C:2]([C@@:3]([C:4]([H:11])([H:12])[H:13])([O+:6]=[C-:5][H:14])[H:10])([H:8])[H:9])[H:7]"
O       -1.99380630       0.46432106      -0.65034041
C       -1.44447236      -0.59604761       0.09291341
C        0.02674896      -0.40385326       0.38133620
C        0.93215255      -0.08382515      -0.80862145
C        1.50366241       1.13344899       0.75766117
O        0.20925770       0.81852679       1.11468343
H       -1.83049771       1.27441798      -0.15907915
H       -1.97615858      -0.72825196       1.04380751
H       -1.57462175      -1.50571798      -0.49833525
H        0.40735475      -1.24504991       0.97495696
H        1.54328771      -0.92379472      -1.13229712
H        0.37456313       0.29999608      -1.66382753
H        1.60770101       1.08787679      -0.65207409
H        2.21482848       0.40795289       1.19921633
14
Frame=9 idx=004978 GeodesicLength=0.48730217240807144 rxn_smarts="[O:1]([C:2]([C@@:3]1([H:10])[C:4]([H:11])([H:12])[C:5]([H:13])([H:14])[O:6]1)([H:8])[H:9])[H:7]>>[O:1]([C:2]([C@@:3]([C:4]([H:11])([H:12])[H:13])([O+:6]=[C-:5][H:14])[H:10])([H:8])[H:9])[H:7]"
O       -1.99592046       0.46301768      -0.64933994
C       -1.44459216      -0.59724281       0.09259641
C        0.02713140      -0.40616222       0.37820226
C        0.93260327      -0.08302866      -0.80977312
C        1.50412291       1.13088943       0.76254777
O        0.20991931       0.81916497       1.11165979
H       -1.83290472       1.27306796      -0.15798257
H       -1.97479406      -0.72930420       1.04436882
H       -1.57575396      -1.50684331      -0.49849071
H        0.40727265      -1.24520630       0.97470478
H        1.52953000      -0.93134769      -1.13934956
H        0.37397991       0.30095477      -1.66403114
H        1.62248467       1.09607677      -0.66311093
H        2.21692126       0.41596359       1.21799816
14
Frame=10 idx=004978 GeodesicLength=0.5413370782193121 rxn_smarts="[O:1]([C:2]([C@@:3]1([H:10])[C:4]([H:11])([H:12])[C:5]([H:13])([H:14])[O:6]1)([H:8])[H:9])[H:7]>>[O:1]([C:2]([C@@:3]([C:4]([H:11])([H:12])[H:13])([O+:6]=[C-:5][H:14])[H:10])([H:8])[H:9])[H:7]"
O       -1.99800353       0.46171865      -0.64830373
C       -1.44470875      -0.59844770       0.09229765
C        0.02752333      -0.40853861       0.37504606
C        0.93305948      -0.08233893      -0.81096813
C        1.50462643       1.12819380       0.76737851
O        0.21064062       0.81974651       1.10859480
H       -1.83524068       1.27171501      -0.15685904
H       -1.97340916      -0.73035092       1.04495332
H       -1.57692743      -1.50796863      -0.49862440
H        0.40719660      -1.24542295       0.97441253
H        1.51561770      -0.93874076      -1.14649766
H        0.37340872       0.30195247      -1.66419273
H        1.63740613       1.10424074      -0.67440028
H        2.21881055       0.42424132       1.23716310
14
Frame=11 idx=004978 GeodesicLength=0.595365632688261 rxn_smarts="[O:1]([C:2]([C@@:3]1([H:10])[C:4]([H:11])([H:12])[C:5]([H:13])([H:14])[O:6]1)([H:8])[H:9])[H:7]>>[O:1]([C:2]([C@@:3]([C:4]([H:11])([H:12])[H:13])([O+:6]=[C-:5][H:14])[H:10])([H:8])[H:9])[H:7]"
O       -2.00006233       0.46043118      -0.64724010
C       -1.44482316      -0.59966323       0.09201584
C        0.02792862      -0.41098766       0.37187894
C        0.93353226      -0.08176792      -0.81219533
C        1.50518033       1.12535572       0.77219371
O        0.21142337       0.82027042       1.10550948
H       -1.83751872       1.27037025      -0.15570718
H       -1.97200560      -0.73138754       1.04556761
H       -1.57813960      -1.50909955      -0.49874522
H        0.40713575      -1.24571204       0.97409735
H        1.50154820      -0.94598573      -1.15378841
H        0.37284751       0.30299720      -1.66432456
H        1.65249160       1.11234476      -0.68594405
H        2.22046177       0.43283415       1.25668193
14
Frame=12 idx=004978 GeodesicLength=0.6493802722409743 rxn_smarts="[O:1]([C:2]([C@@:3]1([H:10])[C:4]([H:11])([H:12])[C:5]([H:13])([H:14])[O:6]1)([H:8])[H:9])[H:7]>>[O:1]([C:2]([C@@:3]([C:4]([H:11])([H:12])[H:13])([O+:6]=[C-:5][H:14])[H:10])([H:8])[H:9])[H:7]"
O       -2.00209325       0.45915072      -0.64614432
C       -1.44493432      -0.60089039       0.09175122
C        0.02834625      -0.41350831       0.36869441
C        0.93401835      -0.08131172      -0.81345821
C        1.50579143       1.12236262       0.77698835
O        0.21227081       0.82073608       1.10239034
H       -1.83973677       1.26902571      -0.15452262
H       -1.97058028      -0.73241592       1.04620853
H       -1.57939308      -1.51023612      -0.49884609
H        0.40708545      -1.24606978       0.97375001
H        1.48731161      -0.95307760      -1.16121272
H        0.37229747       0.30409650      -1.66441735
H        1.66774807       1.12039216      -0.69776118
H        2.22186826       0.44174604       1.27657963
14
Frame=13 idx=004978 GeodesicLength=0.7033816874605977 rxn_smarts="[O:1]([C:2]([C@@:3]1([H:10])[C:4]([H:11])([H:12])[C:5]([H:13])([H:14])[O:6]1)([H:8])[H:9])[H:7]>>[O:1]([C:2]([C@@:3]([C:4]([H:11])([H:12])[H:13])([O+:6]=[C-:5][H:14])[H:10])([H:8])[H:9])[H:7]"
O       -2.00409703       0.45787456      -0.64501491
C       -1.44504070      -0.60213056       0.09150535
C        0.02877799      -0.41610041       0.36549070
C        0.93451996      -0.08097311      -0.81475979
C        1.50647070       1.11920012       0.78176777
O        0.21318686       0.82114674       1.09922997
H       -1.84189792       1.26767870      -0.15330319
H       -1.96912832      -0.73343699       1.04687985
H       -1.58068595      -1.51138029      -0.49892456
H        0.40704778      -1.24649641       0.97336841
H        1.47288944      -0.96001813      -1.16878230
H        0.37176204       0.30526160      -1.66446821
H        1.68319105       1.12838092      -0.70986457
H        2.22300409       0.45099325       1.29687548
14
Frame=14 idx=004978 GeodesicLength=0.7573732920466807 rxn_smarts="[O:1]([C:2]([C@@:3]1([H:10])[C:4]([H:11])([H:12])[C:5]([H:13])([H:14])[O:6]1)([H:8])[H:9])[H:7]>>[O:1]([C:2]([C@@:3]([C:4]([H:11])([H:12])[H:13])([O+:6]=[C-:5][H:14])[H:10])([H:8])[H:9])[H:7]"
O       -2.00606753       0.45661339      -0.64384784
C       -1.44514462      -0.60337940       0.09127713
C        0.02922100      -0.41877175       0.36226758
C        0.93503314      -0.08075472      -0.81609731
C        1.50721474       1.11585441       0.78654644
O        0.21417370       0.82148532       1.09604222
H       -1.84398427       1.26633708      -0.15204405
H       -1.96765360      -0.73444764       1.04757850
H       -1.58203027      -1.51252404      -0.49898444
H        0.40701651      -1.24700447       0.97294645
H        1.45832418      -0.96679501      -1.17646974
H        0.37123787       0.30646510      -1.66448295
H        1.69878926       1.13633149      -0.72227479
H        2.22386990       0.46059024       1.31754281
14
Frame=15 idx=004978 GeodesicLength=0.8113547665153169 rxn_smarts="[O:1]([C:2]([C@@:3]1([H:10])[C:4]([H:11])([H:12])[C:5]([H:13])([H:14])[O:6]1)([H:8])[H:9])[H:7]>>[O:1]([C:2]([C@@:3]([C:4]([H:11])([H:12])[H:13])([O+:6]=[C-:5][H:14])[H:10])([H:8])[H:9])[H:7]"
O       -2.00800626       0.45536968      -0.64263978
C       -1.44524577      -0.60463865       0.09106615
C        0.02967712      -0.42152405       0.35902328
C        0.93556129      -0.08066168      -0.81747418
C        1.50803794       1.11231078       0.79132564
O        0.21523830       0.82175338       1.09281977
H       -1.84600183       1.26500176      -0.15073741
H       -1.96615328      -0.73545444       1.04830535
H       -1.58342638      -1.51366688      -0.49902991
H        0.40699140      -1.24759680       0.97248452
H        1.44360219      -0.97341514      -1.18427893
H        0.37072823       0.30771628      -1.66445897
H        1.71455087       1.14424605      -0.73501073
H        2.22444619       0.47055971       1.33860520
14
Frame=16 idx=004978 GeodesicLength=0.8653279041313956 rxn_smarts="[O:1]([C:2]([C@@:3]1([H:10])[C:4]([H:11])([H:12])[C:5]([H:13])([H:14])[O:6]1)([H:8])[H:9])[H:7]>>[O:1]([C:2]([C@@:3]([C:4]([H:11])([H:12])[H:13])([O+:6]=[C-:5][H:14])[H:10])([H:8])[H:9])[H:7]"
O       -2.00991206       0.45414054      -0.64138793
C       -1.44534239      -0.60590943       0.09087319
C        0.03014669      -0.42435811       0.35575695
C        0.93610477      -0.08069493      -0.81889044
C        1.50894540       1.10855411       0.79611491
O        0.21638225       0.82195013       1.08955798
H       -1.84795314       1.26366802      -0.14937827
H       -1.96462475      -0.73645715       1.04906109
H       -1.58487112      -1.51480895      -0.49905928
H        0.40697170      -1.24827411       0.97198088
H        1.42870793      -0.97987920      -1.19222061
H        0.37023696       0.30902975      -1.66438872
H        1.73049847       1.15211422      -0.74808911
H        2.22470929       0.48092512       1.36006936
