14
Frame=0 idx=010981 GeodesicLength=0.0 rxn_smarts="[O:1]=[C:2]([C:3]12[C:4]([H:9])([H:10])[N:5]([C:6]1([H:11])[H:12])[C:7]2([H:13])[H:14])[H:8]>>[O-:1][C:2](=[C:3]1[C:4]([H:9])([H:10])[N+:5](=[C:6]([H:11])[H:12])[C:7]1([H:13])[H:14])[H:8]"
O        1.84649201       0.13373272      -2.26916780
C        1.79608625       0.20210290      -1.05674607
C        0.56137023       0.19795489      -0.29831270
C       -0.71415382      -0.46090820      -0.80615969
N       -1.11842826      -0.43112739       0.64200696
C       -1.39320898       0.86059464       0.83526575
C        0.32602701      -0.51180101       1.03240587
H        2.72764905       0.34409553      -0.46693063
H       -1.41632306       0.06312238      -1.45177719
H       -0.57049488      -1.48725988      -1.16434152
H       -2.09108398       1.35993681       0.17207869
H       -1.15130223       1.32108737       1.78643600
H        0.52785216      -0.03743344       1.99253419
H        0.66951844      -1.55409736       1.05270808
14
Frame=1 idx=010981 GeodesicLength=0.031447609906001324 rxn_smarts="[O:1]=[C:2]([C:3]12[C:4]([H:9])([H:10])[N:5]([C:6]1([H:11])[H:12])[C:7]2([H:13])[H:14])[H:8]>>[O-:1][C:2](=[C:3]1[C:4]([H:9])([H:10])[N+:5](=[C:6]([H:11])[H:12])[C:7]1([H:13])[H:14])[H:8]"
O        1.86820389       0.05110100      -2.25863421
C        1.79591269       0.20111980      -1.05464685
C        0.55895836       0.20047415      -0.30014939
C       -0.71772841      -0.45073117      -0.81300128
N       -1.11345907      -0.43068521       0.63656238
C       -1.39167369       0.86068115       0.84013334
C        0.32989897      -0.51322416       1.02850640
H        2.71910925       0.40243394      -0.46837996
H       -1.41057789       0.08471352      -1.45968940
H       -0.58513145      -1.47520961      -1.17955840
H       -2.10383269       1.35580595       0.18890135
H       -1.16366297       1.30607778       1.80202393
H        0.54403707      -0.03647987       1.98497197
H        0.66994595      -1.55607727       1.05296014
14
Frame=2 idx=010981 GeodesicLength=0.06342134949548833 rxn_smarts="[O:1]=[C:2]([C:3]12[C:4]([H:9])([H:10])[N:5]([C:6]1([H:11])[H:12])[C:7]2([H:13])[H:14])[H:8]>>[O-:1][C:2](=[C:3]1[C:4]([H:9])([H:10])[N+:5](=[C:6]([H:11])[H:12])[C:7]1([H:13])[H:14])[H:8]"
O        1.89247629      -0.03480676      -2.24182897
C        1.79526051       0.20080268      -1.05336635
C        0.55648603       0.20359999      -0.30215299
C       -0.72128377      -0.43983750      -0.82008359
N       -1.10832112      -0.43021384       0.63082158
C       -1.39022365       0.86058387       0.84527626
C        0.33396180      -0.51440313       1.02425006
H        2.70830313       0.46140345      -0.47404710
H       -1.40490754       0.10706516      -1.46736619
H       -0.59990480      -1.46218128      -1.19525362
H       -2.11665900       1.35122624       0.20635064
H       -1.17643734       1.28996748       1.81781794
H        0.56045763      -0.03548764       1.97695562
H        0.67079184      -1.55771872       1.05262670
14
Frame=3 idx=010981 GeodesicLength=0.09519110799751646 rxn_smarts="[O:1]=[C:2]([C:3]12[C:4]([H:9])([H:10])[N:5]([C:6]1([H:11])[H:12])[C:7]2([H:13])[H:14])[H:8]>>[O-:1][C:2](=[C:3]1[C:4]([H:9])([H:10])[N+:5](=[C:6]([H:11])[H:12])[C:7]1([H:13])[H:14])[H:8]"
O        1.91679867      -0.11722067      -2.21992355
C        1.79431227       0.20019873      -1.05294238
C        0.55425969       0.20712327      -0.30397770
C       -0.72443448      -0.42872368      -0.82714316
N       -1.10298075      -0.42968676       0.62495278
C       -1.38902863       0.86037665       0.85023116
C        0.33818661      -0.51504213       1.02018395
H        2.69688134       0.51569319      -0.48406925
H       -1.39874667       0.12941160      -1.47498593
H       -0.61437672      -1.44880380      -1.21077373
H       -2.12977827       1.34576432       0.22362687
H       -1.18989565       1.27337502       1.83310647
H        0.57675729      -0.03375718       1.96892832
H        0.67204533      -1.55870856       1.05278615
14
Frame=4 idx=010981 GeodesicLength=0.12695862278139713 rxn_smarts="[O:1]=[C:2]([C:3]12[C:4]([H:9])([H:10])[N:5]([C:6]1([H:11])[H:12])[C:7]2([H:13])[H:14])[H:8]>>[O-:1][C:2](=[C:3]1[C:4]([H:9])([H:10])[N+:5](=[C:6]([H:11])[H:12])[C:7]1([H:13])[H:14])[H:8]"
O        1.94191872      -0.19640049      -2.19315422
C        1.79296328       0.19914814      -1.05335225
C        0.55210578       0.21076467      -0.30584453
C       -0.72741999      -0.41754166      -0.83420105
N       -1.09750615      -0.42907801       0.61897560
C       -1.38787653       0.86013632       0.85505312
C        0.34252608      -0.51536606       1.01614024
H        2.68431054       0.56667535      -0.49765236
H       -1.39247582       0.15159972      -1.48242531
H       -0.62893575      -1.43527661      -1.22603729
H       -2.14268008       1.33984472       0.24072577
H       -1.20361051       1.25633617       1.84788021
H        0.59313132      -0.03153603       1.96065854
H        0.67354913      -1.55930624       1.05323355
14
Frame=5 idx=010981 GeodesicLength=0.15849648428872493 rxn_smarts="[O:1]=[C:2]([C:3]12[C:4]([H:9])([H:10])[N:5]([C:6]1([H:11])[H:12])[C:7]2([H:13])[H:14])[H:8]>>[O-:1][C:2](=[C:3]1[C:4]([H:9])([H:10])[N+:5](=[C:6]([H:11])[H:12])[C:7]1([H:13])[H:14])[H:8]"
O        1.96637220      -0.27007601      -2.16304485
C        1.79145880       0.19729545      -1.05441209
C        0.55019587       0.21451787      -0.30756308
C       -0.73006149      -0.40642515      -0.84116231
N       -1.09190360      -0.42839566       0.61296687
C       -1.38691048       0.85986791       0.85960690
C        0.34695902      -0.51523275       1.01238673
H        2.67175467       0.61241958      -0.51428605
H       -1.38577560       0.17343597      -1.48981271
H       -0.64333667      -1.42175776      -1.24089568
H       -2.15563645       1.33317999       0.25741681
H       -1.21778394       1.23907991       1.86193867
H        0.60938563      -0.02854889       1.95242384
H        0.67528205      -1.55936047       1.05443697
14
Frame=6 idx=010981 GeodesicLength=0.19005789526680758 rxn_smarts="[O:1]=[C:2]([C:3]12[C:4]([H:9])([H:10])[N:5]([C:6]1([H:11])[H:12])[C:7]2([H:13])[H:14])[H:8]>>[O-:1][C:2](=[C:3]1[C:4]([H:9])([H:10])[N+:5](=[C:6]([H:11])[H:12])[C:7]1([H:13])[H:14])[H:8]"
O        1.99015951      -0.33957225      -2.12969589
C        1.78978899       0.19475291      -1.05601204
C        0.54850424       0.21843668      -0.30912430
C       -0.73238120      -0.39522114      -0.84805230
N       -1.08615707      -0.42767008       0.60687474
C       -1.38613701       0.85950236       0.86397715
C        0.35147473      -0.51472706       1.00884520
H        2.65918264       0.65403478      -0.53374588
H       -1.37863070       0.19518692      -1.49710807
H       -0.65758632      -1.40802370      -1.25551967
H       -2.16866695       1.32574386       0.27385498
H       -1.23227275       1.22152338       1.87531268
H        0.62550692      -0.02500557       1.94418486
H        0.67721495      -1.55896109       1.05620853
14
Frame=7 idx=010981 GeodesicLength=0.2219059685266146 rxn_smarts="[O:1]=[C:2]([C:3]12[C:4]([H:9])([H:10])[N:5]([C:6]1([H:11])[H:12])[C:7]2([H:13])[H:14])[H:8]>>[O-:1][C:2](=[C:3]1[C:4]([H:9])([H:10])[N+:5](=[C:6]([H:11])[H:12])[C:7]1([H:13])[H:14])[H:8]"
O        2.01405874      -0.40571143      -2.09310658
C        1.78802185       0.19122850      -1.05802267
C        0.54700660       0.22224077      -0.31062000
C       -0.73451493      -0.38397201      -0.85491421
N       -1.08035320      -0.42684994       0.60069369
C       -1.38532930       0.85915649       0.86822772
C        0.35599910      -0.51408630       1.00545687
H        2.64596521       0.69334915      -0.55610884
H       -1.37114834       0.21693050      -1.50428028
H       -0.67204737      -1.39413767      -1.26993354
H       -2.18135140       1.31795004       0.29007965
H       -1.24698406       1.20350273       1.88818994
H        0.64160383      -0.02119645       1.93586899
H        0.67907327      -1.55840438       1.05846925
14
Frame=8 idx=010981 GeodesicLength=0.2543490484752472 rxn_smarts="[O:1]=[C:2]([C:3]12[C:4]([H:9])([H:10])[N:5]([C:6]1([H:11])[H:12])[C:7]2([H:13])[H:14])[H:8]>>[O-:1][C:2](=[C:3]1[C:4]([H:9])([H:10])[N+:5](=[C:6]([H:11])[H:12])[C:7]1([H:13])[H:14])[H:8]"
O        2.03835511      -0.46977231      -2.05263661
C        1.78608842       0.18701832      -1.06055055
C        0.54568620       0.22609894      -0.31206046
C       -0.73647804      -0.37247705      -0.86180766
N       -1.07447659      -0.42597243       0.59436451
C       -1.38455105       0.85873184       0.87249000
C        0.36055239      -0.51330996       1.00213435
H        2.63198146       0.73090937      -0.58168120
H       -1.36335267       0.23894744      -1.51129649
H       -0.68670625      -1.37981528      -1.28436747
H       -2.19379485       1.30972160       0.30629047
H       -1.26192390       1.18483214       1.90069640
H        0.65768904      -0.01723654       1.92744865
H        0.68093073      -1.55767609       1.06097606
14
Frame=9 idx=010981 GeodesicLength=0.2872716019814313 rxn_smarts="[O:1]=[C:2]([C:3]12[C:4]([H:9])([H:10])[N:5]([C:6]1([H:11])[H:12])[C:7]2([H:13])[H:14])[H:8]>>[O-:1][C:2](=[C:3]1[C:4]([H:9])([H:10])[N+:5](=[C:6]([H:11])[H:12])[C:7]1([H:13])[H:14])[H:8]"
O        2.06238403      -0.53049765      -2.00933137
C        1.78414075       0.18181451      -1.06333044
C        0.54461795       0.22995074      -0.31334210
C       -0.73817707      -0.36082097      -0.86866262
N       -1.06852266      -0.42503996       0.58793199
C       -1.38385212       0.85823679       0.87668515
C        0.36510983      -0.51236100       0.99902485
H        2.61764342       0.76589392      -0.61018575
H       -1.35506820       0.26112934      -1.51818463
H       -0.70145834      -1.36514854      -1.29870208
H       -2.20608041       1.30094128       0.32234368
H       -1.27714152       1.16565344       1.91268349
H        0.67367107      -0.01301330       1.91905292
H        0.68273327      -1.55673860       1.06401692
14
Frame=10 idx=010981 GeodesicLength=0.3202210902664665 rxn_smarts="[O:1]=[C:2]([C:3]12[C:4]([H:9])([H:10])[N:5]([C:6]1([H:11])[H:12])[C:7]2([H:13])[H:14])[H:8]>>[O-:1][C:2](=[C:3]1[C:4]([H:9])([H:10])[N+:5](=[C:6]([H:11])[H:12])[C:7]1([H:13])[H:14])[H:8]"
O        2.08542218      -0.58589475      -1.96520947
C        1.78226066       0.17558877      -1.06607612
C        0.54377808       0.23361768      -0.31442550
C       -0.73960571      -0.34932913      -0.87534827
N       -1.06253272      -0.42404750       0.58153402
C       -1.38324143       0.85774250       0.88068201
C        0.36963339      -0.51122030       0.99627499
H        2.60349102       0.79697221      -0.64037922
H       -1.34630441       0.28297048      -1.52495833
H       -0.71620147      -1.35053781      -1.31259993
H       -2.21805975       1.29172696       0.33790489
H       -1.29254407       1.14635354       1.92390029
H        0.68947042      -0.00838781       1.91077922
H        0.68443382      -1.55555483       1.06792144
14
Frame=11 idx=010981 GeodesicLength=0.3533590873625359 rxn_smarts="[O:1]=[C:2]([C:3]12[C:4]([H:9])([H:10])[N:5]([C:6]1([H:11])[H:12])[C:7]2([H:13])[H:14])[H:8]>>[O-:1][C:2](=[C:3]1[C:4]([H:9])([H:10])[N+:5](=[C:6]([H:11])[H:12])[C:7]1([H:13])[H:14])[H:8]"
O        2.10736562      -0.63713688      -1.92006241
C        1.78040853       0.16857940      -1.06881678
C        0.54316754       0.23733241      -0.31529238
C       -0.74072995      -0.33777656      -0.88190785
N       -1.05644591      -0.42304361       0.57511313
C       -1.38283933       0.85711048       0.88457113
C        0.37416517      -0.50981054       0.99383551
H        2.58966263       0.82443066      -0.67231641
H       -1.33702408       0.30475755      -1.53160036
H       -0.73082489      -1.33567003      -1.32626944
H       -2.22996656       1.28183551       0.35314390
H       -1.30818067       1.12676201       1.93443291
H        0.70507903      -0.00335506       1.90262533
H        0.68616286      -1.55401535       1.07254372
14
Frame=12 idx=010981 GeodesicLength=0.38690976056108034 rxn_smarts="[O:1]=[C:2]([C:3]12[C:4]([H:9])([H:10])[N:5]([C:6]1([H:11])[H:12])[C:7]2([H:13])[H:14])[H:8]>>[O-:1][C:2](=[C:3]1[C:4]([H:9])([H:10])[N+:5](=[C:6]([H:11])[H:12])[C:7]1([H:13])[H:14])[H:8]"
O        2.12911405      -0.68494677      -1.87343531
C        1.77854378       0.16080081      -1.07155920
C        0.54275012       0.24089020      -0.31600342
C       -0.74165904      -0.32618911      -0.88837142
N       -1.05033582      -0.42199044       0.56866427
C       -1.38246808       0.85643359       0.88841820
C        0.37864854      -0.50833578       0.99164093
H        2.57543851       0.84948515      -0.70631603
H       -1.32732232       0.32655024      -1.53806649
H       -0.74559114      -1.32056479      -1.33974377
H       -2.24147470       1.27164284       0.36809666
H       -1.32394840       1.10679414       1.94440181
H        0.72057727       0.00179507       1.89452984
H        0.68772723      -1.55236516       1.07774394
14
Frame=13 idx=010981 GeodesicLength=0.4209285749866205 rxn_smarts="[O:1]=[C:2]([C:3]12[C:4]([H:9])([H:10])[N:5]([C:6]1([H:11])[H:12])[C:7]2([H:13])[H:14])[H:8]>>[O-:1][C:2](=[C:3]1[C:4]([H:9])([H:10])[N+:5](=[C:6]([H:11])[H:12])[C:7]1([H:13])[H:14])[H:8]"
O        2.15049356      -0.72963700      -1.82542151
C        1.77673441       0.15222602      -1.07420087
C        0.54257419       0.24440368      -0.31649473
C       -0.74233139      -0.31444385      -0.89474570
N       -1.04417820      -0.42091580       0.56216256
C       -1.38222536       0.85563531       0.89226616
C        0.38309167      -0.50674734       0.98972336
H        2.56094630       0.87211499      -0.74258378
H       -1.31709289       0.34851542      -1.54434819
H       -0.76040293      -1.30504328      -1.35313114
H       -2.25276830       1.26096703       0.38283560
H       -1.33991683       1.08637899       1.95383510
H        0.73591614       0.00708950       1.88656182
H        0.68915963      -1.55054367       1.08354131
14
Frame=14 idx=010981 GeodesicLength=0.45549204719053527 rxn_smarts="[O:1]=[C:2]([C:3]12[C:4]([H:9])([H:10])[N:5]([C:6]1([H:11])[H:12])[C:7]2([H:13])[H:14])[H:8]>>[O-:1][C:2](=[C:3]1[C:4]([H:9])([H:10])[N+:5](=[C:6]([H:11])[H:12])[C:7]1([H:13])[H:14])[H:8]"
O        2.17176602      -0.77135770      -1.77595067
C        1.77496250       0.14288563      -1.07671076
C        0.54263233       0.24783118      -0.31676844
C       -0.74276208      -0.30252419      -0.90103228
N       -1.03798510      -0.41981768       0.55560704
C       -1.38207932       0.85471616       0.89614202
C        0.38747469      -0.50509766       0.98807706
H        2.54594021       0.89251237      -0.78124127
H       -1.30632735       0.37070183      -1.55042064
H       -0.77531169      -1.28905943      -1.36645235
H       -2.26377810       1.24988289       0.39736743
H       -1.35604541       1.06548841       1.96275247
H        0.75110886       0.01244482       1.87871837
H        0.69040445      -1.54860661       1.08991203
14
Frame=15 idx=010981 GeodesicLength=0.49042010900677924 rxn_smarts="[O:1]=[C:2]([C:3]12[C:4]([H:9])([H:10])[N:5]([C:6]1([H:11])[H:12])[C:7]2([H:13])[H:14])[H:8]>>[O-:1][C:2](=[C:3]1[C:4]([H:9])([H:10])[N+:5](=[C:6]([H:11])[H:12])[C:7]1([H:13])[H:14])[H:8]"
O        2.19257383      -0.80978376      -1.72564579
C        1.77316278       0.13301582      -1.07912439
C        0.54287333       0.25126492      -0.31684556
C       -0.74296938      -0.29048195      -0.90719976
N       -1.03173507      -0.41872329       0.54903113
C       -1.38211303       0.85362102       0.90003001
C        0.39183633      -0.50330542       0.98668728
H        2.53079836       0.91001090      -0.82153462
H       -1.29513095       0.39294961      -1.55627014
H       -0.79022062      -1.27266996      -1.37963480
H       -2.27456295       1.23833072       0.41160753
H       -1.37226779       1.04425205       1.97108177
H        0.76615616       0.01795480       1.87099054
H        0.69159901      -1.54643548       1.09682681
14
Frame=16 idx=010981 GeodesicLength=0.5256712436310237 rxn_smarts="[O:1]=[C:2]([C:3]12[C:4]([H:9])([H:10])[N:5]([C:6]1([H:11])[H:12])[C:7]2([H:13])[H:14])[H:8]>>[O-:1][C:2](=[C:3]1[C:4]([H:9])([H:10])[N+:5](=[C:6]([H:11])[H:12])[C:7]1([H:13])[H:14])[H:8]"
O        2.21309975      -0.84489136      -1.67480556
C        1.77140300       0.12253540      -1.08127261
C        0.54332004       0.25459827      -0.31668291
C       -0.74294014      -0.27834570      -0.91322904
N       -1.02545892      -0.41761663       0.54245593
C       -1.38226872       0.85239666       0.90393016
C        0.39612981      -0.50145800       0.98560349
H        2.51525921       0.92490536      -0.86360080
H       -1.28342588       0.41526059      -1.56189279
H       -0.80515087      -1.25589070      -1.39265792
H       -2.28502147       1.22644065       0.42551276
H       -1.38857053       1.02269217       1.97883285
H        0.78102082       0.02350838       1.86344267
H        0.69260389      -1.54413510       1.10436379
