17
Frame=0 idx=009036 GeodesicLength=0.0 rxn_smarts="[C:1]([C@@:2]1([H:11])[C:3]([H:12])([H:13])[C:4]([H:14])=[C:5]([H:15])[C:6]([H:16])([H:17])[O:7]1)([H:8])([H:9])[H:10]>>[C:1](=[C:2]([C:3](/[C:4](=[C:5](\[C:6](=[O:7])[H:17])[H:15])[H:14])([H:12])[H:13])[H:11])([H:8])[H:9].[H:10][H:16]"
C       -2.02565465       0.42176788       0.16985741
C       -0.75095924      -0.22481076       0.08329269
C       -0.06447220      -1.56195862      -0.19240082
C        1.39593532      -1.23276468       0.03530873
C        1.84158797       0.03878970      -0.02967632
C        0.95246206       1.07441803      -0.54816990
O       -0.14598603       0.60558512      -1.06034388
H       -2.52298536       0.43867129       1.13215240
H       -2.65999784       0.49198225      -0.70672203
H       -1.09886138       1.75864923       0.49340533
H       -0.25120045       0.09925282       1.00236965
H       -0.27199071      -1.88787010      -1.21354177
H       -0.38206388      -2.35495097       0.49026315
H        2.05571163      -2.01448380       0.39447189
H        2.85168675       0.30071546       0.25839150
H       -0.23519409       2.02122925       0.61417826
H        1.31198217       2.02577790      -0.92283623
17
Frame=1 idx=009036 GeodesicLength=0.1268930186056027 rxn_smarts="[C:1]([C@@:2]1([H:11])[C:3]([H:12])([H:13])[C:4]([H:14])=[C:5]([H:15])[C:6]([H:16])([H:17])[O:7]1)([H:8])([H:9])[H:10]>>[C:1](=[C:2]([C:3](/[C:4](=[C:5](\[C:6](=[O:7])[H:17])[H:15])[H:14])([H:12])[H:13])[H:11])([H:8])[H:9].[H:10][H:16]"
C       -2.02803413       0.42161537       0.17713369
C       -0.75605769      -0.22878946       0.10265830
C       -0.06616588      -1.55814883      -0.19214682
C        1.39663259      -1.23178059       0.02413486
C        1.84758790       0.03734804      -0.04110812
C        0.96013206       1.08488654      -0.54651604
O       -0.13629996       0.61677136      -1.06664126
H       -2.54030587       0.42029878       1.13192395
H       -2.65453338       0.46761321      -0.70703381
H       -1.11050937       1.76674023       0.49931438
H       -0.26388441       0.08551076       1.02994072
H       -0.28575051      -1.86859629      -1.21545242
H       -0.38012698      -2.35748227       0.48452209
H        2.05035720      -2.01225457       0.39721549
H        2.85096651       0.29915615       0.26981528
H       -0.22264471       2.03674183       0.59657552
H        1.33863663       2.02036974      -0.94433583
17
Frame=2 idx=009036 GeodesicLength=0.25342645738777436 rxn_smarts="[C:1]([C@@:2]1([H:11])[C:3]([H:12])([H:13])[C:4]([H:14])=[C:5]([H:15])[C:6]([H:16])([H:17])[O:7]1)([H:8])([H:9])[H:10]>>[C:1](=[C:2]([C:3](/[C:4](=[C:5](\[C:6](=[O:7])[H:17])[H:15])[H:14])([H:12])[H:13])[H:11])([H:8])[H:9].[H:10][H:16]"
C       -2.03031783       0.42139073       0.18451962
C       -0.76119245      -0.23302117       0.12267798
C       -0.06787208      -1.55415300      -0.19170649
C        1.39715511      -1.23050143       0.01338413
C        1.85346658       0.03614358      -0.05258683
C        0.96797369       1.09538006      -0.54552020
O       -0.12644871       0.62804350      -1.07354253
H       -2.55781312       0.40169171       1.13104860
H       -2.64823196       0.44399349      -0.70698318
H       -1.12224512       1.77482564       0.50502948
H       -0.27708530       0.07096657       1.05834614
H       -0.29935999      -1.84899736      -1.21688069
H       -0.37818108      -2.36006914       0.47857346
H        2.04513267      -2.00969740       0.39938947
H        2.84971722       0.29770857       0.28110828
H       -0.20975833       2.05194699       0.57884051
H        1.36506071       2.01434868      -0.96569774
17
Frame=3 idx=009036 GeodesicLength=0.37975154001937383 rxn_smarts="[C:1]([C@@:2]1([H:11])[C:3]([H:12])([H:13])[C:4]([H:14])=[C:5]([H:15])[C:6]([H:16])([H:17])[O:7]1)([H:8])([H:9])[H:10]>>[C:1](=[C:2]([C:3](/[C:4](=[C:5](\[C:6](=[O:7])[H:17])[H:15])[H:14])([H:12])[H:13])[H:11])([H:8])[H:9].[H:10][H:16]"
C       -2.03251373       0.42104060       0.19199938
C       -0.76638147      -0.23751327       0.14337989
C       -0.06960093      -1.54994152      -0.19105270
C        1.39748533      -1.22889870       0.00315717
C        1.85919210       0.03520821      -0.06395103
C        0.97598784       1.10590959      -0.54516809
O       -0.11640459       0.63943125      -1.08109027
H       -2.57553706       0.38284273       1.12944333
H       -2.64107840       0.42113943      -0.70664449
H       -1.13417671       1.78288031       0.51048706
H       -0.29093895       0.05550472       1.08768156
H       -0.31277530      -1.82903120      -1.21781439
H       -0.37626255      -2.36270392       0.47238694
H        2.03999262      -2.00678881       0.40120973
H        2.84818652       0.29630570       0.29166144
H       -0.19642737       2.06679835       0.56112011
H        1.39125266       2.00781654      -0.98680564
17
Frame=4 idx=009036 GeodesicLength=0.5059966855751611 rxn_smarts="[C:1]([C@@:2]1([H:11])[C:3]([H:12])([H:13])[C:4]([H:14])=[C:5]([H:15])[C:6]([H:16])([H:17])[O:7]1)([H:8])([H:9])[H:10]>>[C:1](=[C:2]([C:3](/[C:4](=[C:5](\[C:6](=[O:7])[H:17])[H:15])[H:14])([H:12])[H:13])[H:11])([H:8])[H:9].[H:10][H:16]"
C       -2.03461877       0.42050990       0.19958596
C       -0.77163773      -0.24227416       0.16479021
C       -0.07136793      -1.54548769      -0.19017136
C        1.39760996      -1.22695564      -0.00649880
C        1.86474313       0.03455613      -0.07513421
C        0.98417641       1.11647985      -0.54550177
O       -0.10615950       0.65096216      -1.08934142
H       -2.59347057       0.36374497       1.12706861
H       -2.63307115       0.39905975      -0.70604764
H       -1.14640261       1.79088394       0.51562093
H       -0.30556862       0.03899629       1.11801703
H       -0.32598625      -1.80866246      -1.21824779
H       -0.37439989      -2.36537403       0.46592990
H        2.03490002      -2.00351249       0.40284485
H        2.84653395       0.29495092       0.30118154
H       -0.18250387       2.08126215       0.54353562
H        1.41722341       2.00086041      -1.00763168
17
Frame=5 idx=009036 GeodesicLength=0.6322119393960857 rxn_smarts="[C:1]([C@@:2]1([H:11])[C:3]([H:12])([H:13])[C:4]([H:14])=[C:5]([H:15])[C:6]([H:16])([H:17])[O:7]1)([H:8])([H:9])[H:10]>>[C:1](=[C:2]([C:3](/[C:4](=[C:5](\[C:6](=[O:7])[H:17])[H:15])[H:14])([H:12])[H:13])[H:11])([H:8])[H:9].[H:10][H:16]"
C       -2.03662818       0.41974189       0.20729176
C       -0.77697601      -0.24731428       0.18693607
C       -0.07318802      -1.54076397      -0.18904273
C        1.39751808      -1.22465677      -0.01553386
C        1.87010299       0.03419968      -0.08607297
C        0.99254291       1.12709815      -0.54655031
O       -0.09569828       0.66266399      -1.09834794
H       -2.61161247       0.34439427       1.12388664
H       -2.62420239       0.37776285      -0.70522829
H       -1.15902265       1.79881424       0.52037986
H       -0.32109511       0.02131583       1.14941517
H       -0.33898265      -1.78785799      -1.21816990
H       -0.37261926      -2.36806221       0.45917716
H        2.02981848      -1.99984982       0.40444170
H        2.84491216       0.29364057       0.30937444
H       -0.16785692       2.09531746       0.52619307
H        1.44298731       1.99355614      -1.02814986
17
Frame=6 idx=009036 GeodesicLength=0.7585026734491179 rxn_smarts="[C:1]([C@@:2]1([H:11])[C:3]([H:12])([H:13])[C:4]([H:14])=[C:5]([H:15])[C:6]([H:16])([H:17])[O:7]1)([H:8])([H:9])[H:10]>>[C:1](=[C:2]([C:3](/[C:4](=[C:5](\[C:6](=[O:7])[H:17])[H:15])[H:14])([H:12])[H:13])[H:11])([H:8])[H:9].[H:10][H:16]"
C       -2.03853473       0.41869407       0.21515633
C       -0.78240368      -0.25264460       0.20985464
C       -0.07507828      -1.53573997      -0.18765171
C        1.39720254      -1.22198809      -0.02393589
C        1.87526249       0.03414460      -0.09678017
C        1.00109294       1.13776575      -0.54839658
O       -0.08502122       0.67456371      -1.10818201
H       -2.62993313       0.32479015       1.11989435
H       -2.61447251       0.35724746      -0.70418490
H       -1.17214018       1.80665889       0.52469652
H       -0.33764977       0.00228698       1.18193523
H       -0.35178010      -1.76658101      -1.21756633
H       -0.37093369      -2.37074919       0.45210053
H        2.02473088      -1.99578974       0.40607791
H        2.84338590       0.29242492       0.31623028
H       -0.15230467       2.10895255       0.50918221
H        1.46857724       1.98596353      -1.04843042
17
Frame=7 idx=009036 GeodesicLength=0.884895888377913 rxn_smarts="[C:1]([C@@:2]1([H:11])[C:3]([H:12])([H:13])[C:4]([H:14])=[C:5]([H:15])[C:6]([H:16])([H:17])[O:7]1)([H:8])([H:9])[H:10]>>[C:1](=[C:2]([C:3](/[C:4](=[C:5](\[C:6](=[O:7])[H:17])[H:15])[H:14])([H:12])[H:13])[H:11])([H:8])[H:9].[H:10][H:16]"
C       -2.04033278       0.41733348       0.22322106
C       -0.78792588      -0.25827611       0.23358366
C       -0.07704943      -1.53039045      -0.18598418
C        1.39665789      -1.21893547      -0.03168478
C        1.88021700       0.03439632      -0.10725761
C        1.00983775       1.14848669      -0.55110966
O       -0.07412434       0.68668813      -1.11890166
H       -2.64840842       0.30492721       1.11509026
H       -2.60388281       0.33751620      -0.70292141
H       -1.18586560       1.81440290       0.52852156
H       -0.35535263      -0.01826153       1.21563227
H       -0.36438500      -1.74478966      -1.21642948
H       -0.36935619      -2.37342440       0.44466352
H        2.01961444      -1.99131392       0.40784786
H        2.84201572       0.29133847       0.32169331
H       -0.13568495       2.12217749       0.49256722
H        1.49402523       1.97812465      -1.06853195
17
Frame=8 idx=009036 GeodesicLength=1.0115115889243542 rxn_smarts="[C:1]([C@@:2]1([H:11])[C:3]([H:12])([H:13])[C:4]([H:14])=[C:5]([H:15])[C:6]([H:16])([H:17])[O:7]1)([H:8])([H:9])[H:10]>>[C:1](=[C:2]([C:3](/[C:4](=[C:5](\[C:6](=[O:7])[H:17])[H:15])[H:14])([H:12])[H:13])[H:11])([H:8])[H:9].[H:10][H:16]"
C       -2.04201675       0.41560582       0.23152784
C       -0.79354134      -0.26420514       0.25816550
C       -0.07912285      -1.52466600      -0.18401555
C        1.39587395      -1.21547713      -0.03876286
C        1.88496882       0.03496067      -0.11753253
C        1.01879846       1.15926837      -0.55476492
O       -0.06300372       0.69908050      -1.13056575
H       -2.66700580       0.28476957       1.10948510
H       -2.59242997       0.31854625      -0.70142600
H       -1.20036324       1.82202925       0.53178431
H       -0.37434993      -0.04054711       1.25054641
H       -0.37681469      -1.72243087      -1.21473549
H       -0.36790979      -2.37604214       0.43684370
H        2.01444495      -1.98640403       0.40981387
H        2.84084825       0.29041408       0.32576983
H       -0.11777566       2.13502255       0.47642287
H        1.51939933       1.97007534      -1.08855633
17
Frame=9 idx=009036 GeodesicLength=1.1387694462506972 rxn_smarts="[C:1]([C@@:2]1([H:11])[C:3]([H:12])([H:13])[C:4]([H:14])=[C:5]([H:15])[C:6]([H:16])([H:17])[O:7]1)([H:8])([H:9])[H:10]>>[C:1](=[C:2]([C:3](/[C:4](=[C:5](\[C:6](=[O:7])[H:17])[H:15])[H:14])([H:12])[H:13])[H:11])([H:8])[H:9].[H:10][H:16]"
C       -2.04363701       0.41352549       0.24009569
C       -0.79927605      -0.27044282       0.28379072
C       -0.08130087      -1.51849447      -0.18167815
C        1.39483215      -1.21150844      -0.04500994
C        1.88950565       0.03591052      -0.12754556
C        1.02804589       1.17011905      -0.55944358
O       -0.05162467       0.71179727      -1.14320420
H       -2.68574967       0.26435509       1.10311635
H       -2.58007886       0.30023442      -0.69964867
H       -1.21588489       1.82965499       0.53440712
H       -0.39509287      -0.06515502       1.28666584
H       -0.38904402      -1.69934186      -1.21244353
H       -0.36656453      -2.37858030       0.42853842
H        2.00924952      -1.98100874       0.41201239
H        2.84007802       0.28961587       0.32828503
H       -0.09825398       2.14749559       0.46076882
H        1.54479617       1.96182335      -1.10870673
17
Frame=10 idx=009036 GeodesicLength=1.2661557080011907 rxn_smarts="[C:1]([C@@:2]1([H:11])[C:3]([H:12])([H:13])[C:4]([H:14])=[C:5]([H:15])[C:6]([H:16])([H:17])[O:7]1)([H:8])([H:9])[H:10]>>[C:1](=[C:2]([C:3](/[C:4](=[C:5](\[C:6](=[O:7])[H:17])[H:15])[H:14])([H:12])[H:13])[H:11])([H:8])[H:9].[H:10][H:16]"
C       -2.04512004       0.41101366       0.24903946
C       -0.80510334      -0.27699139       0.31036131
C       -0.08360676      -1.51186749      -0.17899887
C        1.39354140      -1.20708860      -0.05056243
C        1.89386377       0.03717009      -0.13747133
C        1.03756075       1.18104179      -0.56522855
O       -0.04001483       0.72485275      -1.15688897
H       -2.70453358       0.24356362       1.09599156
H       -2.56684611       0.28270693      -0.69755445
H       -1.23243675       1.83713950       0.53642279
H       -0.41746504      -0.09199412       1.32396156
H       -0.40112852      -1.67556607      -1.20955419
H       -0.36537617      -2.38098443       0.41977394
H        2.00395944      -1.97512447       0.41455982
H        2.83954200       0.28908959       0.32958390
H       -0.07708067       2.15967440       0.44560159
H        1.57024447       1.95336425      -1.12903715
17
Frame=11 idx=009036 GeodesicLength=1.3936177620430532 rxn_smarts="[C:1]([C@@:2]1([H:11])[C:3]([H:12])([H:13])[C:4]([H:14])=[C:5]([H:15])[C:6]([H:16])([H:17])[O:7]1)([H:8])([H:9])[H:10]>>[C:1](=[C:2]([C:3](/[C:4](=[C:5](\[C:6](=[O:7])[H:17])[H:15])[H:14])([H:12])[H:13])[H:11])([H:8])[H:9].[H:10][H:16]"
C       -2.04646250       0.40803782       0.25842198
C       -0.81103390      -0.28387123       0.33792142
C       -0.08604809      -1.50474529      -0.17595021
C        1.39199824      -1.20218986      -0.05539158
C        1.89805143       0.03874775      -0.14733024
C        1.04737557       1.19204630      -0.57217865
O       -0.02815887       0.73828097      -1.17165358
H       -2.72333030       0.22236961       1.08813057
H       -2.55271966       0.26598668      -0.69511280
H       -1.25016108       1.84447397       0.53783141
H       -0.44165624      -0.12132707       1.36239605
H       -0.41306448      -1.65104527      -1.20604151
H       -0.36435447      -2.38321449       0.41050988
H        1.99855940      -1.96871205       0.41754544
H        2.83929081       0.28886587       0.32965023
H       -0.05408737       2.17161677       0.43091748
H        1.59580153       1.94467951      -1.14966589
17
Frame=12 idx=009036 GeodesicLength=1.5210997459849478 rxn_smarts="[C:1]([C@@:2]1([H:11])[C:3]([H:12])([H:13])[C:4]([H:14])=[C:5]([H:15])[C:6]([H:16])([H:17])[O:7]1)([H:8])([H:9])[H:10]>>[C:1](=[C:2]([C:3](/[C:4](=[C:5](\[C:6](=[O:7])[H:17])[H:15])[H:14])([H:12])[H:13])[H:11])([H:8])[H:9].[H:10][H:16]"
C       -2.04765760       0.40457636       0.26832344
C       -0.81707432      -0.29109933       0.36652405
C       -0.08863505      -1.49708357      -0.17250069
C        1.39019763      -1.19678191      -0.05946794
C        1.90208315       0.04064478      -0.15717074
C        1.05752677       1.20314018      -0.58036261
O       -0.01604685       0.75211662      -1.18753063
H       -2.74210299       0.20071453       1.07954720
H       -2.53768158       0.25010924      -0.69226933
H       -1.26920266       1.85164293       0.53864452
H       -0.46787505      -0.15343050       1.40190432
H       -0.42485348      -1.62571438      -1.20187491
H       -0.36350865      -2.38523279       0.40071319
H        1.99303458      -1.96173328       0.42104171
H        2.83935633       0.28898771       0.32853129
H       -0.02910285       2.18340404       0.41668304
H        1.62154262       1.93573936      -1.17073593
17
Frame=13 idx=009036 GeodesicLength=1.648530243788981 rxn_smarts="[C:1]([C@@:2]1([H:11])[C:3]([H:12])([H:13])[C:4]([H:14])=[C:5]([H:15])[C:6]([H:16])([H:17])[O:7]1)([H:8])([H:9])[H:10]>>[C:1](=[C:2]([C:3](/[C:4](=[C:5](\[C:6](=[O:7])[H:17])[H:15])[H:14])([H:12])[H:13])[H:11])([H:8])[H:9].[H:10][H:16]"
C       -2.04870318       0.40061130       0.27882622
C       -0.82322604      -0.29868706       0.39622570
C       -0.09136785      -1.48883732      -0.16861228
C        1.38814177      -1.19082654      -0.06274836
C        1.90597837       0.04286647      -0.16702467
C        1.06805798       1.21433041      -0.58983793
O       -0.00366811       0.76639111      -1.20453561
H       -2.76082600       0.17856189       1.07025906
H       -2.52171907       0.23510849      -0.68897455
H       -1.28972657       1.85862919       0.53889280
H       -0.49634588      -0.18861418       1.44239003
H       -0.43648557      -1.59950131      -1.19701811
H       -0.36284233      -2.38699024       0.39034894
H        1.98737811      -1.95414460       0.42512645
H        2.83977577       0.28947311       0.32622452
H       -0.00195472       2.19513068       0.40283274
H        1.64753333       1.92649861      -1.19237494
17
Frame=14 idx=009036 GeodesicLength=1.775845674359491 rxn_smarts="[C:1]([C@@:2]1([H:11])[C:3]([H:12])([H:13])[C:4]([H:14])=[C:5]([H:15])[C:6]([H:16])([H:17])[O:7]1)([H:8])([H:9])[H:10]>>[C:1](=[C:2]([C:3](/[C:4](=[C:5](\[C:6](=[O:7])[H:17])[H:15])[H:14])([H:12])[H:13])[H:11])([H:8])[H:9].[H:10][H:16]"
C       -2.04959754       0.39612926       0.29002198
C       -0.82949561      -0.30665034       0.42709877
C       -0.09425204      -1.47995017      -0.16423093
C        1.38582926      -1.18428124      -0.06518538
C        1.90975742       0.04541680      -0.17693266
C        1.07902070       1.22562353      -0.60066426
O        0.00899326       0.78113295      -1.22268128
H       -2.77946160       0.15583682       1.06027352
H       -2.50480673       0.22104053      -0.68516033
H       -1.31190275       1.86542502       0.53862159
H       -0.52732486      -0.22722653       1.48368449
H       -0.44795989      -1.57232764      -1.19141489
H       -0.36236191      -2.38842571       0.37938621
H        1.98158046      -1.94589297       0.42989025
H        2.84061217       0.29034903       0.32272842
H        0.02753106       2.20690719       0.38929039
H        1.67383858       1.91689349      -1.21472591
17
Frame=15 idx=009036 GeodesicLength=1.902962353910307 rxn_smarts="[C:1]([C@@:2]1([H:11])[C:3]([H:12])([H:13])[C:4]([H:14])=[C:5]([H:15])[C:6]([H:16])([H:17])[O:7]1)([H:8])([H:9])[H:10]>>[C:1](=[C:2]([C:3](/[C:4](=[C:5](\[C:6](=[O:7])[H:17])[H:15])[H:14])([H:12])[H:13])[H:11])([H:8])[H:9].[H:10][H:16]"
C       -2.05033944       0.39113081       0.30201296
C       -0.83588854      -0.31501541       0.45922395
C       -0.09728569      -1.47036775      -0.15929429
C        1.38326342      -1.17709458      -0.06671651
C        1.91344128       0.04830372      -0.18691989
C        1.09046783       1.23702133      -0.61289225
O        0.02195286       0.79636199      -1.24196804
H       -2.79797249       0.13250458       1.04959103
H       -2.48691771       0.20797026      -0.68074720
H       -1.33590217       1.87200978       0.53790072
H       -0.56108372      -0.26965006       1.52556348
H       -0.45926485      -1.54411109      -1.18499750
H       -0.36205981      -2.38947710       0.36779667
H        1.97564389      -1.93692013       0.43541341
H        2.84192169       0.29162864       0.31801975
H        0.05950991       2.21885813       0.37593397
H        1.70051354       1.90684688      -1.23792028
17
Frame=16 idx=009036 GeodesicLength=2.0298287486537174 rxn_smarts="[C:1]([C@@:2]1([H:11])[C:3]([H:12])([H:13])[C:4]([H:14])=[C:5]([H:15])[C:6]([H:16])([H:17])[O:7]1)([H:8])([H:9])[H:10]>>[C:1](=[C:2]([C:3](/[C:4](=[C:5](\[C:6](=[O:7])[H:17])[H:15])[H:14])([H:12])[H:13])[H:11])([H:8])[H:9].[H:10][H:16]"
C       -2.05092431       0.38561647       0.31491288
C       -0.84242297      -0.32382614       0.49270157
C       -0.10047094      -1.46003204      -0.15371895
C        1.38044450      -1.16921195      -0.06726894
C        1.91705251       0.05153499      -0.19702061
C        1.10246201       1.24853128      -0.62658190
O        0.03522926       0.81210506      -1.26238838
H       -2.81631341       0.10850929       1.03820428
H       -2.46801667       0.19597230      -0.67563093
H       -1.36188530       1.87839598       0.53682498
H       -0.59794891      -0.31633105       1.56769059
H       -0.47039956      -1.51476705      -1.17767234
H       -0.36193149      -2.39006794       0.35555780
H        1.96956960      -1.92715275       0.44180272
H        2.84379872       0.29334944       0.31206530
H        0.09414333       2.23111307       0.36263171
H        1.72761366       1.89626106      -1.26210978
