15
Frame=0 idx=001995 GeodesicLength=0.0 rxn_smarts="[C:1]([N:2]1[C:3]([H:10])([H:11])[C@:4]1([C:5]([O:6][H:15])([H:13])[H:14])[H:12])([H:7])([H:8])[H:9]>>[C:1]([C@@:4]([N:2]=[C:3]([H:10])[H:11])([C:5]([O:6][H:15])([H:13])[H:14])[H:12])([H:7])([H:8])[H:9]"
C       -1.37536373       0.83456680       0.22239964
N       -0.74462763      -0.31269501      -1.14745152
C       -0.13458200      -1.45611145      -0.62353033
C       -0.00110395      -0.35462548       0.37708754
C        1.33028947       0.36407479       0.45349814
O        1.77733479       0.75829419      -0.81144055
H       -1.53469298       1.52524576      -0.59429048
H       -2.29939505       0.34779604       0.51591022
H       -0.97091506       1.41006647       1.06237104
H       -0.74505915      -2.32331080      -0.34698961
H        0.83038877      -1.71484487      -1.06338238
H       -0.43069075      -0.66515497       1.32652715
H        2.06732383      -0.30950718       0.90494035
H        1.22949392       1.23345903       1.11929934
H        1.00159954       0.66274671      -1.39494850
15
Frame=1 idx=001995 GeodesicLength=0.0936914307848755 rxn_smarts="[C:1]([N:2]1[C:3]([H:10])([H:11])[C@:4]1([C:5]([O:6][H:15])([H:13])[H:14])[H:12])([H:7])([H:8])[H:9]>>[C:1]([C@@:4]([N:2]=[C:3]([H:10])[H:11])([C:5]([O:6][H:15])([H:13])[H:14])[H:12])([H:7])([H:8])[H:9]"
C       -1.38649280       0.83213962       0.23128024
N       -0.73106900      -0.29868408      -1.13332834
C       -0.14453212      -1.46100857      -0.63529825
C        0.00440051      -0.34546390       0.37384837
C        1.33620523       0.37203193       0.45169439
O        1.81137257       0.72965213      -0.81438407
H       -1.56611724       1.52706419      -0.57844979
H       -2.30055748       0.32792647       0.52874186
H       -0.99417320       1.41574232       1.07124796
H       -0.77515507      -2.31981987      -0.38044426
H        0.82188759      -1.73826324      -1.05959609
H       -0.41016660      -0.67252185       1.32472126
H        2.06438262      -0.28910178       0.93438336
H        1.23129350       1.26134772       1.08980044
H        1.03872150       0.65895892      -1.40421710
15
Frame=2 idx=001995 GeodesicLength=0.18691230755758975 rxn_smarts="[C:1]([N:2]1[C:3]([H:10])([H:11])[C@:4]1([C:5]([O:6][H:15])([H:13])[H:14])[H:12])([H:7])([H:8])[H:9]>>[C:1]([C@@:4]([N:2]=[C:3]([H:10])[H:11])([C:5]([O:6][H:15])([H:13])[H:14])[H:12])([H:7])([H:8])[H:9]"
C       -1.39744189       0.82930774       0.24040257
N       -0.71722408      -0.28456280      -1.11897511
C       -0.15510400      -1.46525839      -0.64744858
C        0.01024922      -0.33618330       0.37111417
C        1.34234215       0.38042755       0.44991705
O        1.84509347       0.70038609      -0.81614592
H       -1.59793953       1.52759691      -0.56241872
H       -2.30112196       0.30773175       0.54184272
H       -1.01775850       1.42108495       1.08031059
H       -0.80601772      -2.31484548      -0.41556062
H        0.81233253      -1.76172550      -1.05530313
H       -0.38923472      -0.68013808       1.32277590
H        2.06133359      -0.26676096       0.96382481
H        1.23328300       1.28930786       1.05896570
H        1.07720843       0.65363166      -1.41330144
15
Frame=3 idx=001995 GeodesicLength=0.2796884271454297 rxn_smarts="[C:1]([N:2]1[C:3]([H:10])([H:11])[C@:4]1([C:5]([O:6][H:15])([H:13])[H:14])[H:12])([H:7])([H:8])[H:9]>>[C:1]([C@@:4]([N:2]=[C:3]([H:10])[H:11])([C:5]([O:6][H:15])([H:13])[H:14])[H:12])([H:7])([H:8])[H:9]"
C       -1.40819228       0.82607129       0.24976442
N       -0.70314132      -0.27037883      -1.10435571
C       -0.16628993      -1.46882516      -0.65999839
C        0.01644009      -0.32678616       0.36890445
C        1.34869056       0.38927641       0.44817137
O        1.87846377       0.67051820      -0.81664952
H       -1.63012287       1.52678759      -0.54622279
H       -2.30106244       0.28723587       0.55525273
H       -1.04166333       1.42610029       1.08953148
H       -0.83755807      -2.30829437      -0.45243059
H        0.80165791      -1.78520437      -1.05049137
H       -0.36787866      -0.68803930       1.32068238
H        2.05816910      -0.24240914       0.99323006
H        1.23547507       1.31728449       1.02673941
H        1.11701240       0.64666320      -1.42212793
15
Frame=4 idx=001995 GeodesicLength=0.37205427587077655 rxn_smarts="[C:1]([N:2]1[C:3]([H:10])([H:11])[C@:4]1([C:5]([O:6][H:15])([H:13])[H:14])[H:12])([H:7])([H:8])[H:9]>>[C:1]([C@@:4]([N:2]=[C:3]([H:10])[H:11])([C:5]([O:6][H:15])([H:13])[H:14])[H:12])([H:7])([H:8])[H:9]"
C       -1.41872582       0.82243224       0.25936913
N       -0.68886959      -0.25618477      -1.08943388
C       -0.17807894      -1.47167662      -0.67296374
C        0.02296684      -0.31727663       0.36723970
C        1.35523939       0.39858971       0.44646052
O        1.91146140       0.64004993      -0.81583405
H       -1.66262942       1.52458346      -0.52987513
H       -2.30035067       0.26646547       0.56902121
H       -1.06588296       1.43078957       1.09888187
H       -0.86967544      -2.30006462      -0.49116011
H        0.78979351      -1.80867442      -1.04515195
H       -0.34607745      -0.69626533       1.31843089
H        2.05487052      -0.21595495       1.02258156
H        1.23787713       1.34522666       0.99304997
H        1.15808149       0.63796029      -1.43061600
15
Frame=5 idx=001995 GeodesicLength=0.46403495290134855 rxn_smarts="[C:1]([N:2]1[C:3]([H:10])([H:11])[C@:4]1([C:5]([O:6][H:15])([H:13])[H:14])[H:12])([H:7])([H:8])[H:9]>>[C:1]([C@@:4]([N:2]=[C:3]([H:10])[H:11])([C:5]([O:6][H:15])([H:13])[H:14])[H:12])([H:7])([H:8])[H:9]"
C       -1.42902523       0.81839405       0.26921978
N       -0.67445437      -0.24203980      -1.07417178
C       -0.19044622      -1.47378033      -0.68635822
C        0.02982484      -0.30765882       0.36613923
C        1.36197911       0.40837569       0.44478934
O        1.94405423       0.60899783      -0.81361697
H       -1.69543466       1.52091987      -0.51339970
H       -2.29895542       0.24544897       0.58319499
H       -1.09040542       1.43516549       1.10832660
H       -0.90228322      -2.29005678      -0.53184806
H        0.77667363      -1.83211743      -1.03926548
H       -0.32380684      -0.70485073       1.31599973
H        2.05141899      -0.18731097       1.05182259
H        1.24051327       1.37306088       0.95782534
H        1.20034732       0.62745208      -1.43865739
15
Frame=6 idx=001995 GeodesicLength=0.5556488683051117 rxn_smarts="[C:1]([N:2]1[C:3]([H:10])([H:11])[C@:4]1([C:5]([O:6][H:15])([H:13])[H:14])[H:12])([H:7])([H:8])[H:9]>>[C:1]([C@@:4]([N:2]=[C:3]([H:10])[H:11])([C:5]([O:6][H:15])([H:13])[H:14])[H:12])([H:7])([H:8])[H:9]"
C       -1.43907862       0.81396294       0.27931828
N       -0.65995056      -0.22800573      -1.05853743
C       -0.20338166      -1.47511124      -0.70018373
C        0.03699763      -0.29793575       0.36562766
C        1.36889045       0.41864372       0.44314907
O        1.97619972       0.57737319      -0.80990886
H       -1.72849775       1.51573681      -0.49680959
H       -2.29684969       0.22421767       0.59782597
H       -1.11522759       1.43924149       1.11783083
H       -0.93521544      -2.27814124      -0.57461560
H        0.76219742      -1.85552087      -1.03280415
H       -0.30103658      -0.71382576       1.31337773
H        2.04779603      -0.15637183       1.08087537
H        1.24340681       1.40068477       0.92100346
H        1.24374984       0.61505183      -1.44614900
15
Frame=7 idx=001995 GeodesicLength=0.6469152660273353 rxn_smarts="[C:1]([N:2]1[C:3]([H:10])([H:11])[C@:4]1([C:5]([O:6][H:15])([H:13])[H:14])[H:12])([H:7])([H:8])[H:9]>>[C:1]([C@@:4]([N:2]=[C:3]([H:10])[H:11])([C:5]([O:6][H:15])([H:13])[H:14])[H:12])([H:7])([H:8])[H:9]"
C       -1.44887711       0.80914584       0.28966443
N       -0.64541054      -0.21415107      -1.04249663
C       -0.21685778      -1.47564517      -0.71444162
C        0.04447131      -0.28811016       0.36572732
C        1.37595077       0.42940223       0.44153099
O        2.00785702       0.54520658      -0.80460489
H       -1.76179037       1.50897618      -0.48012834
H       -2.29400404       0.20279937       0.61296177
H       -1.14035341       1.44303640       1.12735520
H       -0.96834298      -2.26420241      -0.61955219
H        0.74628308      -1.87887242      -1.02573827
H       -0.27773248      -0.72321394       1.31054168
H        2.04398973      -0.12304897       1.10960751
H        1.24659470       1.42797689       0.88253473
H        1.28822211       0.60070065      -1.45296170
15
Frame=8 idx=001995 GeodesicLength=0.7378641071824165 rxn_smarts="[C:1]([N:2]1[C:3]([H:10])([H:11])[C@:4]1([C:5]([O:6][H:15])([H:13])[H:14])[H:12])([H:7])([H:8])[H:9]>>[C:1]([C@@:4]([N:2]=[C:3]([H:10])[H:11])([C:5]([O:6][H:15])([H:13])[H:14])[H:12])([H:7])([H:8])[H:9]"
C       -1.45841751       0.80395507       0.30026767
N       -0.63089383      -0.20054945      -1.02600871
C       -0.23086396      -1.47536409      -0.72911793
C        0.05222474      -0.27818193       0.36646751
C        1.38314152       0.44065361       0.43991853
O        2.03898695       0.51250583      -0.79761184
H       -1.79529400       1.50057275      -0.46336619
H       -2.29039149       0.18122878       0.62865257
H       -1.16579153       1.44657168       1.13686461
H       -1.00143840      -2.24808092      -0.66679223
H        0.72881001      -1.90216207      -1.01802628
H       -0.25385797      -0.73302588       1.30747715
H        2.03998426      -0.08724811       1.13788597
H        1.25010497       1.45479583       0.84236839
H        1.33369624       0.58432891      -1.45897922
15
Frame=9 idx=001995 GeodesicLength=0.8284530022907798 rxn_smarts="[C:1]([N:2]1[C:3]([H:10])([H:11])[C@:4]1([C:5]([O:6][H:15])([H:13])[H:14])[H:12])([H:7])([H:8])[H:9]>>[C:1]([C@@:4]([N:2]=[C:3]([H:10])[H:11])([C:5]([O:6][H:15])([H:13])[H:14])[H:12])([H:7])([H:8])[H:9]"
C       -1.46770813       0.79839742       0.31111180
N       -0.61640700      -0.18712373      -1.00914911
C       -0.24536197      -1.47423565      -0.74429533
C        0.06023380      -0.26812074       0.36777251
C        1.39043158       0.45240960       0.43825140
O        2.06963626       0.47926463      -0.78906827
H       -1.82887336       1.49058386      -0.44642645
H       -2.28604363       0.15947723       0.64481702
H       -1.19158815       1.44974955       1.14641151
H       -1.03429425      -2.22969996      -0.71586821
H        0.70971211      -1.92532173      -1.00973065
H       -0.22935768      -0.74325337       1.30408140
H        2.03564664      -0.04904523       1.16555824
H        1.25373100       1.48103839       0.80066963
H        1.38024278       0.56587974      -1.46413547
15
Frame=10 idx=001995 GeodesicLength=0.9187617958170452 rxn_smarts="[C:1]([N:2]1[C:3]([H:10])([H:11])[C@:4]1([C:5]([O:6][H:15])([H:13])[H:14])[H:12])([H:7])([H:8])[H:9]>>[C:1]([C@@:4]([N:2]=[C:3]([H:10])[H:11])([C:5]([O:6][H:15])([H:13])[H:14])[H:12])([H:7])([H:8])[H:9]"
C       -1.47674553       0.79248134       0.32222412
N       -0.60204294      -0.17406030      -0.99179287
C       -0.26032100      -1.47224140      -0.75989279
C        0.06848903      -0.25793509       0.36974593
C        1.39781812       0.46466636       0.43654244
O        2.09970121       0.44554645      -0.77871436
H       -1.86261216       1.47883648      -0.42940983
H       -2.28087705       0.13760267       0.66162185
H       -1.21772579       1.45268503       1.15588821
H       -1.06674815      -2.20890447      -0.76733563
H        0.68882767      -1.94836793      -1.00075042
H       -0.20418233      -0.75390547       1.30039003
H        2.03102725      -0.00829963       1.19252388
H        1.25772759       1.50656921       0.75719014
H        1.42766408       0.54532675      -1.46823069
15
Frame=11 idx=001995 GeodesicLength=1.0088186693626888 rxn_smarts="[C:1]([N:2]1[C:3]([H:10])([H:11])[C@:4]1([C:5]([O:6][H:15])([H:13])[H:14])[H:12])([H:7])([H:8])[H:9]>>[C:1]([C@@:4]([N:2]=[C:3]([H:10])[H:11])([C:5]([O:6][H:15])([H:13])[H:14])[H:12])([H:7])([H:8])[H:9]"
C       -1.48553415       0.78621784       0.33361139
N       -0.58785319      -0.16142537      -0.97390804
C       -0.27571220      -1.46936390      -0.77590190
C        0.07697098      -0.24761105       0.37240838
C        1.40529271       0.47741822       0.43475584
O        2.12911870       0.41140174      -0.76647936
H       -1.89647882       1.46527788      -0.41233021
H       -2.27486908       0.11561930       0.67910439
H       -1.24422952       1.45538877       1.16527352
H       -1.09857145      -2.18556403      -0.82124645
H        0.66603735      -1.97127779      -0.99104935
H       -0.17827534      -0.76495728       1.29637444
H        2.02609409       0.03500010       1.21858986
H        1.26212613       1.53123952       0.71190956
H        1.47588380       0.52263606      -1.47111205
15
Frame=12 idx=001995 GeodesicLength=1.098646630340924 rxn_smarts="[C:1]([N:2]1[C:3]([H:10])([H:11])[C@:4]1([C:5]([O:6][H:15])([H:13])[H:14])[H:12])([H:7])([H:8])[H:9]>>[C:1]([C@@:4]([N:2]=[C:3]([H:10])[H:11])([C:5]([O:6][H:15])([H:13])[H:14])[H:12])([H:7])([H:8])[H:9]"
C       -1.49409143       0.77961533       0.34529081
N       -0.57389479      -0.14927980      -0.95546520
C       -0.29150890      -1.46558122      -0.79229956
C        0.08565197      -0.23712513       0.37578483
C        1.41283567       0.49066585       0.43284467
O        2.15784492       0.37687421      -0.75230673
H       -1.93044515       1.44984719      -0.39518266
H       -2.26800138       0.09354063       0.69730380
H       -1.27114927       1.45786233       1.17454262
H       -1.12946081      -2.15951940      -0.87765864
H        0.64116414      -1.99402658      -0.98059150
H       -0.15157140      -0.77637143       1.29200073
H        2.02083134       0.08085952       1.24356014
H        1.26695409       1.55488435       0.66482089
H        1.52484099       0.49775415      -1.47264420
15
Frame=13 idx=001995 GeodesicLength=1.1882431518295071 rxn_smarts="[C:1]([N:2]1[C:3]([H:10])([H:11])[C@:4]1([C:5]([O:6][H:15])([H:13])[H:14])[H:12])([H:7])([H:8])[H:9]>>[C:1]([C@@:4]([N:2]=[C:3]([H:10])[H:11])([C:5]([O:6][H:15])([H:13])[H:14])[H:12])([H:7])([H:8])[H:9]"
C       -1.50243802       0.77267545       0.35725881
N       -0.56018492      -0.13760361      -0.93649426
C       -0.30766848      -1.46086215      -0.80912625
C        0.09451759      -0.22643529       0.37983820
C        1.42042661       0.50441371       0.43072924
O        2.18589068       0.34202071      -0.73620673
H       -1.96441599       1.43256992      -0.37790926
H       -2.26029186       0.07134031       0.71615576
H       -1.29855426       1.46001733       1.18374445
H       -1.15919949      -2.13067441      -0.93627867
H        0.61409774      -2.01656086      -0.96938160
H       -0.12399742      -0.78808671       1.28717760
H        2.01515290       0.12919552       1.26719893
H        1.27211290       1.57736510       0.61602224
H        1.57455202       0.47062497      -1.47272847
15
Frame=14 idx=001995 GeodesicLength=1.277669311949688 rxn_smarts="[C:1]([N:2]1[C:3]([H:10])([H:11])[C@:4]1([C:5]([O:6][H:15])([H:13])[H:14])[H:12])([H:7])([H:8])[H:9]>>[C:1]([C@@:4]([N:2]=[C:3]([H:10])[H:11])([C:5]([O:6][H:15])([H:13])[H:14])[H:12])([H:7])([H:8])[H:9]"
C       -1.51060105       0.76540287       0.36955652
N       -0.54681282      -0.12654363      -0.91689448
C       -0.32416327      -1.45519804      -0.82628607
C        0.10353273      -0.21552779       0.38466153
C        1.42805794       0.51863972       0.42837477
O        2.21315146       0.30692824      -0.71804545
H       -1.99844046       1.41331029      -0.36055331
H       -2.25169888       0.04905453       0.73577854
H       -1.32648430       1.46191019       1.19282560
H       -1.18739230      -2.09882573      -0.99753112
H        0.58457652      -2.03887348      -0.95731596
H       -0.09550958      -0.80003769       1.28194322
H        2.00913672       0.18005444       1.28928738
H        1.27779869       1.59848187       0.56536066
H        1.62484862       0.44122421      -1.47116184
15
Frame=15 idx=001995 GeodesicLength=1.3669369497318362 rxn_smarts="[C:1]([N:2]1[C:3]([H:10])([H:11])[C@:4]1([C:5]([O:6][H:15])([H:13])[H:14])[H:12])([H:7])([H:8])[H:9]>>[C:1]([C@@:4]([N:2]=[C:3]([H:10])[H:11])([C:5]([O:6][H:15])([H:13])[H:14])[H:12])([H:7])([H:8])[H:9]"
C       -1.51860517       0.75780091       0.38219561
N       -0.53381978      -0.11614586      -0.89664455
C       -0.34095685      -1.44856840      -0.84376322
C        0.11267470      -0.20436770       0.39026898
C        1.43572667       0.53332043       0.42570461
O        2.23956151       0.27169774      -0.69780821
H       -2.03246131       1.39204033      -0.34311058
H       -2.24222920       0.02668372       0.75615869
H       -1.35500882       1.46349811       1.20179035
H       -1.21370038      -2.06385084      -1.06134085
H        0.55241899      -2.06091474      -0.94435189
H       -0.06605869      -0.81213349       1.27625476
H        2.00278922       0.23333527       1.30956518
H        1.28402854       1.61804740       0.51288041
H        1.67564058       0.40955712      -1.46779929
15
Frame=16 idx=001995 GeodesicLength=1.4560739936148177 rxn_smarts="[C:1]([N:2]1[C:3]([H:10])([H:11])[C@:4]1([C:5]([O:6][H:15])([H:13])[H:14])[H:12])([H:7])([H:8])[H:9]>>[C:1]([C@@:4]([N:2]=[C:3]([H:10])[H:11])([C:5]([O:6][H:15])([H:13])[H:14])[H:12])([H:7])([H:8])[H:9]"
C       -1.52649207       0.74986550       0.39519203
N       -0.52124669      -0.10644514      -0.87572422
C       -0.35800500      -1.44094409      -0.86154335
C        0.12191521      -0.19290899       0.39667896
C        1.44342632       0.54843477       0.42262351
O        2.26509796       0.23642314      -0.67549364
H       -2.06643340       1.36874311      -0.32554997
H       -2.23190362       0.00421311       0.77727903
H       -1.38421085       1.46471215       1.21067287
H       -1.23773184      -2.02561838      -1.12766508
H        0.51738060      -2.08264048      -0.93040115
H       -0.03560541      -0.82426519       1.27008010
H        1.99613468       0.28893693       1.32775645
H        1.29080692       1.63586956       0.45861011
H        1.72686719       0.37562399      -1.46251563
