13
Frame=0 idx=004994 GeodesicLength=0.0 rxn_smarts="[C:1]1([H:7])([H:8])[C:2]([H:9])([H:10])[O:3][C:4]([H:11])=[N:5][C:6]1([H:12])[H:13]>>[C:1]1([H:7])([H:8])[C:2]([H:9])([H:10])[N:5]([C:4](=[O:3])[H:11])[C:6]1([H:12])[H:13]"
C        0.63619406      -0.77507435       0.55421720
C       -0.60083604      -1.03003859      -0.26148267
O       -1.97528428       0.45979831       0.25675318
C       -1.12997264       1.30790253      -0.08584304
N       -0.05248239       0.98895708      -0.75364530
C        1.16855451       0.42795611      -0.21151370
H        0.34667556      -0.48982037       1.56723364
H        1.28113841      -1.65821431       0.63405765
H       -0.45398977      -1.21715628      -1.31789361
H       -1.39506092      -1.61985212       0.17600452
H       -1.37260962       2.36089778       0.11712359
H        1.76102406       1.13332746       0.37947485
H        1.78664910       0.11131670      -1.05448630
13
Frame=1 idx=004994 GeodesicLength=0.036898245868357875 rxn_smarts="[C:1]1([H:7])([H:8])[C:2]([H:9])([H:10])[O:3][C:4]([H:11])=[N:5][C:6]1([H:12])[H:13]>>[C:1]1([H:7])([H:8])[C:2]([H:9])([H:10])[N:5]([C:4](=[O:3])[H:11])[C:6]1([H:12])[H:13]"
C        0.64101606      -0.78153902       0.55176350
C       -0.60661359      -1.01978042      -0.25595523
O       -1.98107198       0.46366443       0.24847316
C       -1.13138138       1.31373666      -0.08617764
N       -0.05277065       0.98480967      -0.74591252
C        1.17038811       0.42964382      -0.20412858
H        0.36519087      -0.51026668       1.57238970
H        1.28609601      -1.66588272       0.60788582
H       -0.46991525      -1.22280845      -1.31142368
H       -1.39015107      -1.61847593       0.19045510
H       -1.38012711       2.37025055       0.08564733
H        1.75636588       1.13333322       0.39486419
H        1.79297409       0.12331486      -1.04788113
13
Frame=2 idx=004994 GeodesicLength=0.07349832592641191 rxn_smarts="[C:1]1([H:7])([H:8])[C:2]([H:9])([H:10])[O:3][C:4]([H:11])=[N:5][C:6]1([H:12])[H:13]>>[C:1]1([H:7])([H:8])[C:2]([H:9])([H:10])[N:5]([C:4](=[O:3])[H:11])[C:6]1([H:12])[H:13]"
C        0.64576250      -0.78796178       0.54912218
C       -0.61225358      -1.00959909      -0.25006543
O       -1.98670922       0.46751839       0.23958758
C       -1.13274437       1.31959959      -0.08700586
N       -0.05307721       0.98066307      -0.73815426
C        1.17198881       0.43145955      -0.19661349
H        0.38396436      -0.53111750       1.57699449
H        1.29064883      -1.67303483       0.58127748
H       -0.48614735      -1.22861112      -1.30421109
H       -1.38504148      -1.61680253       0.20512374
H       -1.38670377       2.37882892       0.05443749
H        1.75122577       1.13338403       0.41039540
H        1.79908671       0.13567329      -1.04088825
13
Frame=3 idx=004994 GeodesicLength=0.11006127692335146 rxn_smarts="[C:1]1([H:7])([H:8])[C:2]([H:9])([H:10])[O:3][C:4]([H:11])=[N:5][C:6]1([H:12])[H:13]>>[C:1]1([H:7])([H:8])[C:2]([H:9])([H:10])[N:5]([C:4](=[O:3])[H:11])[C:6]1([H:12])[H:13]"
C        0.65061328      -0.79441763       0.54630922
C       -0.61782442      -0.99947784      -0.24395518
O       -1.99263471       0.47137547       0.23035306
C       -1.13442125       1.32550048      -0.08800187
N       -0.05348713       0.97656282      -0.73030184
C        1.17359692       0.43334407      -0.18896015
H        0.40309555      -0.55250564       1.58120883
H        1.29511045      -1.67974301       0.55436336
H       -0.50272634      -1.23447268      -1.29650797
H       -1.37996863      -1.61478706       0.22004965
H       -1.39264220       2.38691557       0.02292412
H        1.74600084       1.13331843       0.42626274
H        1.80528764       0.14838702      -1.03374399
13
Frame=4 idx=004994 GeodesicLength=0.14644366395903552 rxn_smarts="[C:1]1([H:7])([H:8])[C:2]([H:9])([H:10])[O:3][C:4]([H:11])=[N:5][C:6]1([H:12])[H:13]>>[C:1]1([H:7])([H:8])[C:2]([H:9])([H:10])[N:5]([C:4](=[O:3])[H:11])[C:6]1([H:12])[H:13]"
C        0.65539562      -0.80073882       0.54338055
C       -0.62331461      -0.98944339      -0.23753460
O       -1.99852271       0.47520175       0.22035974
C       -1.13612942       1.33138904      -0.08977325
N       -0.05391233       0.97239887      -0.72258911
C        1.17501859       0.43533366      -0.18124853
H        0.42243161      -0.57403729       1.58497326
H        1.29925702      -1.68584565       0.52723228
H       -0.51959700      -1.24053537      -1.28819533
H       -1.37481843      -1.61242076       0.23511056
H       -1.39751249       2.39404358      -0.00761037
H        1.74035686       1.13334860       0.44218148
H        1.81134731       0.16130579      -1.02628667
13
Frame=5 idx=004994 GeodesicLength=0.18267452538359497 rxn_smarts="[C:1]1([H:7])([H:8])[C:2]([H:9])([H:10])[O:3][C:4]([H:11])=[N:5][C:6]1([H:12])[H:13]>>[C:1]1([H:7])([H:8])[C:2]([H:9])([H:10])[N:5]([C:4](=[O:3])[H:11])[C:6]1([H:12])[H:13]"
C        0.66019264      -0.80701166       0.54030935
C       -0.62870441      -0.97951946      -0.23088662
O       -2.00464277       0.47898883       0.20975116
C       -1.13816240       1.33726691      -0.09214076
N       -0.05443612       0.96823382      -0.71498964
C        1.17635687       0.43740565      -0.17347184
H        0.44199032      -0.59590337       1.58826892
H        1.30321853      -1.69141012       0.49991849
H       -0.53667162      -1.24681624      -1.27931487
H       -1.36964141      -1.60975677       0.25044559
H       -1.40138763       2.40067121      -0.03752225
H        1.73445213       1.13336082       0.45826246
H        1.81743586       0.17449036      -1.01862999
13
Frame=6 idx=004994 GeodesicLength=0.2187934277691716 rxn_smarts="[C:1]1([H:7])([H:8])[C:2]([H:9])([H:10])[O:3][C:4]([H:11])=[N:5][C:6]1([H:12])[H:13]>>[C:1]1([H:7])([H:8])[C:2]([H:9])([H:10])[N:5]([C:4](=[O:3])[H:11])[C:6]1([H:12])[H:13]"
C        0.66501780      -0.81326149       0.53707099
C       -0.63398894      -0.96970217      -0.22397269
O       -2.01094867       0.48275039       0.19852661
C       -1.14044943       1.34311774      -0.09517727
N       -0.05504138       0.96403866      -0.70751549
C        1.17760065       0.43955266      -0.16559585
H        0.46186750      -0.61815410       1.59106083
H        1.30696581      -1.69645505       0.47231358
H       -0.55400961      -1.25332121      -1.26982194
H       -1.36441235      -1.60675027       0.26610694
H       -1.40439063       2.40687665      -0.06687290
H        1.72822627       1.13334897       0.47458630
H        1.82356298       0.18795922      -1.01070912
13
Frame=7 idx=004994 GeodesicLength=0.2548070037568852 rxn_smarts="[C:1]1([H:7])([H:8])[C:2]([H:9])([H:10])[O:3][C:4]([H:11])=[N:5][C:6]1([H:12])[H:13]>>[C:1]1([H:7])([H:8])[C:2]([H:9])([H:10])[N:5]([C:4](=[O:3])[H:11])[C:6]1([H:12])[H:13]"
C        0.66988318      -0.81953974       0.53358181
C       -0.63920719      -0.95995517      -0.21680096
O       -2.01719587       0.48639974       0.18685419
C       -1.14284152       1.34890464      -0.09862931
N       -0.05566220       0.95983496      -0.69995644
C        1.17872432       0.44179953      -0.15754597
H        0.48210373      -0.64098570       1.59322755
H        1.31049825      -1.70099085       0.44426126
H       -0.57168885      -1.25997517      -1.25962864
H       -1.35917865      -1.60333516       0.28216162
H       -1.40670853       2.41272518      -0.09632803
H        1.72164088       1.13326000       0.49121779
H        1.82963244       0.20185775      -1.00241487
13
Frame=8 idx=004994 GeodesicLength=0.2906340142478068 rxn_smarts="[C:1]1([H:7])([H:8])[C:2]([H:9])([H:10])[O:3][C:4]([H:11])=[N:5][C:6]1([H:12])[H:13]>>[C:1]1([H:7])([H:8])[C:2]([H:9])([H:10])[N:5]([C:4](=[O:3])[H:11])[C:6]1([H:12])[H:13]"
C        0.67467278      -0.82566534       0.52998028
C       -0.64430817      -0.95034604      -0.20937812
O       -2.02352988       0.48993861       0.17426885
C       -1.14540870       1.35456873      -0.10320207
N       -0.05633593       0.95553349      -0.69273391
C        1.17968231       0.44413351      -0.14949429
H        0.50250486      -0.66386454       1.59485268
H        1.31368342      -1.70490359       0.41612945
H       -0.58950843      -1.26697732      -1.24877201
H       -1.35388098      -1.59959468       0.29847597
H       -1.40783477       2.41799974      -0.12413963
H        1.71461046       1.13326344       0.50785572
H        1.83565301       0.21591398      -0.99384293
13
Frame=9 idx=004994 GeodesicLength=0.32632701677374143 rxn_smarts="[C:1]1([H:7])([H:8])[C:2]([H:9])([H:10])[O:3][C:4]([H:11])=[N:5][C:6]1([H:12])[H:13]>>[C:1]1([H:7])([H:8])[C:2]([H:9])([H:10])[N:5]([C:4](=[O:3])[H:11])[C:6]1([H:12])[H:13]"
C        0.67949120      -0.83177171       0.52618666
C       -0.64932400      -0.94083758      -0.20173288
O       -2.02998201       0.49337151       0.16109778
C       -1.14821153       1.36015620      -0.10840463
N       -0.05706649       0.95121762      -0.68558581
C        1.18054699       0.44652847      -0.14133281
H        0.52319731      -0.68713934       1.59588115
H        1.31666994      -1.70827046       0.38772115
H       -0.60754200      -1.27419614      -1.23727189
H       -1.34854909      -1.59547156       0.31516829
H       -1.40817964       2.42299093      -0.15147041
H        1.70727683       1.13317959       0.52472782
H        1.84167249       0.23024247      -0.98498442
13
Frame=10 idx=004994 GeodesicLength=0.36194546268372524 rxn_smarts="[C:1]1([H:7])([H:8])[C:2]([H:9])([H:10])[O:3][C:4]([H:11])=[N:5][C:6]1([H:12])[H:13]>>[C:1]1([H:7])([H:8])[C:2]([H:9])([H:10])[N:5]([C:4](=[O:3])[H:11])[C:6]1([H:12])[H:13]"
C        0.68436148      -0.83790539       0.52217129
C       -0.65426399      -0.93141061      -0.19382098
O       -2.03653827       0.49672039       0.14740297
C       -1.15120113       1.36567555      -0.11426987
N       -0.05782878       0.94689781      -0.67850603
C        1.18135550       0.44898857      -0.13301240
H        0.54429152      -0.71093356       1.59627233
H        1.31941637      -1.71112976       0.35889048
H       -0.62585564      -1.28160283      -1.22506446
H       -1.34320333      -1.59093447       0.33233176
H       -1.40794559       2.42774446      -0.17856091
H        1.69964449       1.13297000       0.54195303
H        1.84776738       0.24491986      -0.97578721
13
Frame=11 idx=004994 GeodesicLength=0.3974412706817795 rxn_smarts="[C:1]1([H:7])([H:8])[C:2]([H:9])([H:10])[O:3][C:4]([H:11])=[N:5][C:6]1([H:12])[H:13]>>[C:1]1([H:7])([H:8])[C:2]([H:9])([H:10])[N:5]([C:4](=[O:3])[H:11])[C:6]1([H:12])[H:13]"
C        0.68928061      -0.84408845       0.51783722
C       -0.65912936      -0.92204158      -0.18564247
O       -2.04292957       0.49993799       0.13333512
C       -1.15426680       1.37109610      -0.12064513
N       -0.05861677       0.94257666      -0.67133717
C        1.18200536       0.45154431      -0.12447742
H        0.56577317      -0.73539701       1.59587523
H        1.32191432      -1.71345523       0.32951008
H       -0.64448879      -1.28916922      -1.21206548
H       -1.33780312      -1.58592695       0.35002530
H       -1.40707083       2.43225035      -0.20588459
H        1.69155190       1.13262079       0.55957775
H        1.85377988       0.26005223      -0.96610844
13
Frame=12 idx=004994 GeodesicLength=0.43273291195723024 rxn_smarts="[C:1]1([H:7])([H:8])[C:2]([H:9])([H:10])[O:3][C:4]([H:11])=[N:5][C:6]1([H:12])[H:13]>>[C:1]1([H:7])([H:8])[C:2]([H:9])([H:10])[N:5]([C:4](=[O:3])[H:11])[C:6]1([H:12])[H:13]"
C        0.69415280      -0.85019455       0.51332437
C       -0.66385703      -0.91277346      -0.17722642
O       -2.04929882       0.50301069       0.11848974
C       -1.15738613       1.37638952      -0.12790945
N       -0.05940309       0.93820079      -0.66433348
C        1.18250638       0.45413140      -0.11583464
H        0.58755357      -0.76002207       1.59474973
H        1.32403327      -1.71521111       0.29987914
H       -0.66326336      -1.29701964      -1.19831977
H       -1.33228404      -1.58048688       0.36808338
H       -1.40546686       2.43644285      -0.23218809
H        1.68302587       1.13219449       0.57735160
H        1.85968744       0.27533798      -0.95606610
13
Frame=13 idx=004994 GeodesicLength=0.467909827250079 rxn_smarts="[C:1]1([H:7])([H:8])[C:2]([H:9])([H:10])[O:3][C:4]([H:11])=[N:5][C:6]1([H:12])[H:13]>>[C:1]1([H:7])([H:8])[C:2]([H:9])([H:10])[N:5]([C:4](=[O:3])[H:11])[C:6]1([H:12])[H:13]"
C        0.69905474      -0.85629738       0.50857952
C       -0.66851022      -0.90358293      -0.16859095
O       -2.05571022       0.50589352       0.10307506
C       -1.16068481       1.38154010      -0.13587455
N       -0.06022767       0.93382790      -0.65740253
C        1.18293548       0.45677552      -0.10706030
H        0.60963589      -0.78509186       1.59289380
H        1.32588127      -1.71639592       0.26991897
H       -0.68223303      -1.30506754      -1.18383186
H       -1.32674528      -1.57460161       0.38664237
H       -1.40322500       2.44046092      -0.25808052
H        1.67420470       1.13160923       0.59540923
H        1.86562416       0.29093005      -0.94567823
13
Frame=14 idx=004994 GeodesicLength=0.5029821620625685 rxn_smarts="[C:1]1([H:7])([H:8])[C:2]([H:9])([H:10])[O:3][C:4]([H:11])=[N:5][C:6]1([H:12])[H:13]>>[C:1]1([H:7])([H:8])[C:2]([H:9])([H:10])[N:5]([C:4](=[O:3])[H:11])[C:6]1([H:12])[H:13]"
C        0.70398503      -0.86243086       0.50354085
C       -0.67308778      -0.89444225      -0.15969743
O       -2.06204089       0.50862321       0.08720489
C       -1.16406335       1.38657772      -0.14450584
N       -0.06105794       0.92946703      -0.65046820
C        1.18325070       0.45947710      -0.09807087
H        0.63212264      -0.81072609       1.59017951
H        1.32742442      -1.71700925       0.23944236
H       -0.70146242      -1.31329076      -1.16851208
H       -1.32112975      -1.56820124       0.40576764
H       -1.40044609       2.44424806      -0.28393721
H        1.66496900       1.13081982       0.61386824
H        1.87153643       0.30688750      -0.93481188
13
Frame=15 idx=004994 GeodesicLength=0.5379672753206297 rxn_smarts="[C:1]1([H:7])([H:8])[C:2]([H:9])([H:10])[O:3][C:4]([H:11])=[N:5][C:6]1([H:12])[H:13]>>[C:1]1([H:7])([H:8])[C:2]([H:9])([H:10])[N:5]([C:4](=[O:3])[H:11])[C:6]1([H:12])[H:13]"
C        0.70895691      -0.86862154       0.49816008
C       -0.67758644      -0.88533741      -0.15051425
O       -2.06825531       0.51120607       0.07093866
C       -1.16748483       1.39150180      -0.15382070
N       -0.06187572       0.92511388      -0.64351766
C        1.18346324       0.46223435      -0.08881448
H        0.65506637      -0.83700608       1.58651221
H        1.32861708      -1.71703529       0.20832120
H       -0.72100302      -1.32167270      -1.15229206
H       -1.31541637      -1.56123794       0.42554919
H       -1.39723716       2.44781257      -0.30996775
H        1.65529082       1.12977748       0.63283616
H        1.87746442       0.32326480      -0.92339060
13
Frame=16 idx=004994 GeodesicLength=0.5729147276573762 rxn_smarts="[C:1]1([H:7])([H:8])[C:2]([H:9])([H:10])[O:3][C:4]([H:11])=[N:5][C:6]1([H:12])[H:13]>>[C:1]1([H:7])([H:8])[C:2]([H:9])([H:10])[N:5]([C:4](=[O:3])[H:11])[C:6]1([H:12])[H:13]"
C        0.71398644      -0.87490212       0.49238198
C       -0.68202470      -0.87623944      -0.14101258
O       -2.07431341       0.51366388       0.05438233
C       -1.17092430       1.39632934      -0.16381801
N       -0.06266926       0.92078172      -0.63651234
C        1.18356306       0.46505612      -0.07922758
H        0.67853901      -0.86404966       1.58180629
H        1.32945277      -1.71646137       0.17639550
H       -0.74091208      -1.33019461      -1.13510575
H       -1.30959009      -1.55364641       0.44607452
H       -1.39363198       2.45108578      -0.33647779
H        1.64510386       1.12843555       0.65242938
H        1.88342067       0.34014121      -0.91131594
