10
Frame=0 idx=002622 GeodesicLength=0.0 rxn_smarts="[O:1]([C:2]([C:3]([C:4]#[N:5])([H:9])[H:10])([H:7])[H:8])[H:6]>>[O:1]([C:2]([N:5]=[C:4]=[C:3]([H:9])[H:10])([H:7])[H:8])[H:6]"
O       -2.11143146      -0.92758352       0.60645826
C       -0.90027199      -0.51146923       0.36150899
C        1.08787134       1.17626031      -0.53529605
C        1.49983257       0.03505722       0.08596276
N        1.51749412      -1.00181889       0.64182087
H       -2.44011869      -1.49699896      -0.09764806
H       -0.49224151       0.14015781       1.10745812
H       -0.43397659      -0.75946533      -0.57211432
H        1.11288352       2.10747958       0.01518144
H        1.15995869       1.23838101      -1.61333201
10
Frame=1 idx=002622 GeodesicLength=0.05955881238728649 rxn_smarts="[O:1]([C:2]([C:3]([C:4]#[N:5])([H:9])[H:10])([H:7])[H:8])[H:6]>>[O:1]([C:2]([N:5]=[C:4]=[C:3]([H:9])[H:10])([H:7])[H:8])[H:6]"
O       -2.11633755      -0.87350558       0.57761899
C       -0.87820560      -0.50702454       0.35323151
C        1.07135148       1.16992365      -0.52831180
C        1.51242802       0.03314627       0.08423326
N        1.51302621      -1.00550645       0.63821689
H       -2.42149492      -1.51098199      -0.07645864
H       -0.49191523       0.14149630       1.11595041
H       -0.43266483      -0.78613793      -0.58387878
H        1.10077669       2.09933235       0.02547567
H        1.14303573       1.23925792      -1.60607751
10
Frame=2 idx=002622 GeodesicLength=0.11950480079324954 rxn_smarts="[O:1]([C:2]([C:3]([C:4]#[N:5])([H:9])[H:10])([H:7])[H:8])[H:6]>>[O:1]([C:2]([N:5]=[C:4]=[C:3]([H:9])[H:10])([H:7])[H:8])[H:6]"
O       -2.11810592      -0.82205096       0.54543862
C       -0.85524718      -0.50496683       0.34476666
C        1.05480897       1.16346884      -0.52126366
C        1.52537858       0.03229142       0.08302378
N        1.51041042      -1.00793029       0.63509518
H       -2.40750901      -1.51844432      -0.05281417
H       -0.49211201       0.14085582       1.12368866
H       -0.43029134      -0.81433609      -0.59462574
H        1.08660320       2.09135199       0.03542335
H        1.12606429       1.23976042      -1.59873268
10
Frame=3 idx=002622 GeodesicLength=0.1793523830081083 rxn_smarts="[O:1]([C:2]([C:3]([C:4]#[N:5])([H:9])[H:10])([H:7])[H:8])[H:6]>>[O:1]([C:2]([N:5]=[C:4]=[C:3]([H:9])[H:10])([H:7])[H:8])[H:6]"
O       -2.11713184      -0.77669741       0.51219554
C       -0.83423684      -0.50043342       0.33375503
C        1.04026786       1.15738876      -0.51396200
C        1.53732780       0.03140095       0.08225770
N        1.50520307      -1.01074281       0.63126344
H       -2.39343207      -1.52726171      -0.02284310
H       -0.49490261       0.14140516       1.12919868
H       -0.42971901      -0.83948579      -0.60668893
H        1.07464019       2.08358774       0.04582422
H        1.11198345       1.24083853      -1.59100058
10
Frame=4 idx=002622 GeodesicLength=0.23912605812759524 rxn_smarts="[O:1]([C:2]([C:3]([C:4]#[N:5])([H:9])[H:10])([H:7])[H:8])[H:6]>>[O:1]([C:2]([N:5]=[C:4]=[C:3]([H:9])[H:10])([H:7])[H:8])[H:6]"
O       -2.11377296      -0.73836297       0.47982798
C       -0.81453559      -0.49435833       0.32092300
C        1.02733978       1.15161868      -0.50664114
C        1.54864633       0.03063792       0.08194408
N        1.49840060      -1.01349085       0.62718026
H       -2.38014780      -1.53471122       0.01043564
H       -0.49981303       0.14290447       1.13269381
H       -0.43048521      -0.86255470      -0.61950545
H        1.06408389       2.07609934       0.05631631
H        1.10028398       1.24221765      -1.58317449
10
Frame=5 idx=002622 GeodesicLength=0.29905148975707246 rxn_smarts="[O:1]([C:2]([C:3]([C:4]#[N:5])([H:9])[H:10])([H:7])[H:8])[H:6]>>[O:1]([C:2]([N:5]=[C:4]=[C:3]([H:9])[H:10])([H:7])[H:8])[H:6]"
O       -2.10781792      -0.70313427       0.44806693
C       -0.79334844      -0.49149558       0.30973832
C        1.01367433       1.14549513      -0.49966684
C        1.56050828       0.03114030       0.08206537
N        1.49443919      -1.01476038       0.62363056
H       -2.37128961      -1.53295243       0.03965238
H       -0.50423814       0.14219565       1.13638301
H       -0.43002243      -0.88780132      -0.62988385
H        1.05074497       2.06874744       0.06572851
H        1.08734977       1.24256546      -1.57571439
10
Frame=6 idx=002622 GeodesicLength=0.3589690323368479 rxn_smarts="[O:1]([C:2]([C:3]([C:4]#[N:5])([H:9])[H:10])([H:7])[H:8])[H:6]>>[O:1]([C:2]([N:5]=[C:4]=[C:3]([H:9])[H:10])([H:7])[H:8])[H:6]"
O       -2.10085302      -0.67290188       0.41714484
C       -0.77328553      -0.48735621       0.29706653
C        1.00147451       1.13969488      -0.49266722
C        1.57184876       0.03167203       0.08245680
N        1.48918031      -1.01605878       0.61968214
H       -2.36242800      -1.53107962       0.07172941
H       -0.51038332       0.14236694       1.13808764
H       -0.43082954      -0.91131068      -0.64078804
H        1.03875258       2.06156809       0.07543642
H        1.07652326       1.24340523      -1.56814852
10
Frame=7 idx=002622 GeodesicLength=0.4183160475701917 rxn_smarts="[O:1]([C:2]([C:3]([C:4]#[N:5])([H:9])[H:10])([H:7])[H:8])[H:6]>>[O:1]([C:2]([N:5]=[C:4]=[C:3]([H:9])[H:10])([H:7])[H:8])[H:6]"
O       -2.09413167      -0.65146939       0.38960975
C       -0.75663557      -0.47801488       0.28047401
C        0.99263680       1.13471297      -0.48555299
C        1.58156798       0.03111414       0.08337624
N        1.47866763      -1.01858647       0.61478254
H       -2.34887553      -1.53502066       0.11028354
H       -0.52029343       0.14632182       1.13594402
H       -0.43527185      -0.92919721      -0.65462856
H        1.03153676       2.05469472       0.08595201
H        1.07079887       1.24544496      -1.56024054
10
Frame=8 idx=002622 GeodesicLength=0.47828901833337367 rxn_smarts="[O:1]([C:2]([C:3]([C:4]#[N:5])([H:9])[H:10])([H:7])[H:8])[H:6]>>[O:1]([C:2]([N:5]=[C:4]=[C:3]([H:9])[H:10])([H:7])[H:8])[H:6]"
O       -2.08567099      -0.62680452       0.35877580
C       -0.73675936      -0.47489327       0.26740117
C        0.98145870       1.12907055      -0.47864199
C        1.59270831       0.03238074       0.08424064
N        1.47414236      -1.01922105       0.61021691
H       -2.34146131      -1.52753692       0.14368424
H       -0.52786098       0.14537798       1.13559621
H       -0.43655626      -0.95235361      -0.66425727
H        1.01915245       2.04764100       0.09566175
H        1.06084708       1.24633911      -1.55267746
10
Frame=9 idx=002622 GeodesicLength=0.5376099586532695 rxn_smarts="[O:1]([C:2]([C:3]([C:4]#[N:5])([H:9])[H:10])([H:7])[H:8])[H:6]>>[O:1]([C:2]([N:5]=[C:4]=[C:3]([H:9])[H:10])([H:7])[H:8])[H:6]"
O       -2.07865525      -0.61279953       0.33347005
C       -0.72118014      -0.46501243       0.24952089
C        0.97443423       1.12447642      -0.47170686
C        1.60187160       0.03202241       0.08586015
N        1.46280337      -1.02141542       0.60477888
H       -2.32740937      -1.52838432       0.18401790
H       -0.53983925       0.14981457       1.13040474
H       -0.44246378      -0.96839352      -0.67778838
H        1.01283497       2.04100510       0.10624900
H        1.05760362       1.24868672      -1.54480637
10
Frame=10 idx=002622 GeodesicLength=0.5968878629294957 rxn_smarts="[O:1]([C:2]([C:3]([C:4]#[N:5])([H:9])[H:10])([H:7])[H:8])[H:6]>>[O:1]([C:2]([N:5]=[C:4]=[C:3]([H:9])[H:10])([H:7])[H:8])[H:6]"
O       -2.07094733      -0.59992431       0.30829440
C       -0.70490313      -0.45707378       0.23253425
C        0.96710223       1.11978203      -0.46490780
C        1.61126547       0.03227248       0.08761731
N        1.45317276      -1.02293731       0.59918388
H       -2.31513106      -1.52453450       0.22262385
H       -0.55147665       0.15282978       1.12481875
H       -0.44788226      -0.98558922      -0.68974438
H        1.00507017       2.03434574       0.11662036
H        1.05372979       1.25082908      -1.53704061
10
Frame=11 idx=002622 GeodesicLength=0.6562473756382916 rxn_smarts="[O:1]([C:2]([C:3]([C:4]#[N:5])([H:9])[H:10])([H:7])[H:8])[H:6]>>[O:1]([C:2]([N:5]=[C:4]=[C:3]([H:9])[H:10])([H:7])[H:8])[H:6]"
O       -2.06338797      -0.58946634       0.28402172
C       -0.68885726      -0.44937335       0.21544716
C        0.96027887       1.11519273      -0.45820143
C        1.62051443       0.03265452       0.08958936
N        1.44371041      -1.02424112       0.59331248
H       -2.30268005      -1.51874498       0.26102140
H       -0.56359429       0.15565892       1.11816100
H       -0.45366683      -1.00240494      -0.70104644
H        0.99737202       2.02771192       0.12701853
H        1.05031067       1.25301266      -1.52932379
10
Frame=12 idx=002622 GeodesicLength=0.7157906719563707 rxn_smarts="[O:1]([C:2]([C:3]([C:4]#[N:5])([H:9])[H:10])([H:7])[H:8])[H:6]>>[O:1]([C:2]([N:5]=[C:4]=[C:3]([H:9])[H:10])([H:7])[H:8])[H:6]"
O       -2.05495552      -0.57775095       0.25892927
C       -0.67128907      -0.44482978       0.20061998
C        0.95233446       1.11024065      -0.45164871
C        1.63043958       0.03406440       0.09142218
N        1.43758871      -1.02464657       0.58727348
H       -2.29319848      -1.50658941       0.29520685
H       -0.57431225       0.15576181       1.11253617
H       -0.45811466      -1.02165503      -0.70943835
H        0.98718203       2.02092916       0.13697451
H        1.04432520       1.25447570      -1.52187538
10
Frame=13 idx=002622 GeodesicLength=0.7756306889149449 rxn_smarts="[O:1]([C:2]([C:3]([C:4]#[N:5])([H:9])[H:10])([H:7])[H:8])[H:6]>>[O:1]([C:2]([N:5]=[C:4]=[C:3]([H:9])[H:10])([H:7])[H:8])[H:6]"
O       -2.04549419      -0.56509115       0.23244140
C       -0.65234958      -0.44321498       0.18742906
C        0.94345664       1.10506165      -0.44514131
C        1.64096013       0.03644450       0.09295564
N        1.43448289      -1.02424691       0.58097779
H       -2.28694570      -1.48866421       0.32697001
H       -0.58395287       0.15339810       1.10734572
H       -0.46128922      -1.04338903      -0.71535618
H        0.97481557       2.01393810       0.14688756
H        1.03631632       1.25576392      -1.51450969
10
Frame=14 idx=002622 GeodesicLength=0.8351135729175062 rxn_smarts="[O:1]([C:2]([C:3]([C:4]#[N:5])([H:9])[H:10])([H:7])[H:8])[H:6]>>[O:1]([C:2]([N:5]=[C:4]=[C:3]([H:9])[H:10])([H:7])[H:8])[H:6]"
O       -2.03736745      -0.55807490       0.20960908
C       -0.63560334      -0.43852045       0.17214106
C        0.93664705       1.10038306      -0.43877577
C        1.65041442       0.03802109       0.09516185
N        1.42817240      -1.02440700       0.57443061
H       -2.27687053      -1.47432336       0.36079973
H       -0.59558270       0.15376894       1.09936900
H       -0.46678509      -1.06155274      -0.72259692
H        0.96517309       2.00717962       0.15698405
H        1.03180215       1.25752575      -1.50712268
10
Frame=15 idx=002622 GeodesicLength=0.8951432705462856 rxn_smarts="[O:1]([C:2]([C:3]([C:4]#[N:5])([H:9])[H:10])([H:7])[H:8])[H:6]>>[O:1]([C:2]([N:5]=[C:4]=[C:3]([H:9])[H:10])([H:7])[H:8])[H:6]"
O       -2.02717238      -0.54650012       0.18457047
C       -0.61584857      -0.43924374       0.16108112
C        0.92740773       1.09501033      -0.43254566
C        1.66126151       0.04146449       0.09650150
N        1.42790823      -1.02321437       0.56752555
H       -2.27326538      -1.45073558       0.38713416
H       -0.60410743       0.14936826       1.09431875
H       -0.46971211      -1.08449887      -0.72497152
H        0.95131976       2.00004371       0.16649147
H        1.02220864       1.25830588      -1.50010584
10
Frame=16 idx=002622 GeodesicLength=0.9553300113809869 rxn_smarts="[O:1]([C:2]([C:3]([C:4]#[N:5])([H:9])[H:10])([H:7])[H:8])[H:6]>>[O:1]([C:2]([N:5]=[C:4]=[C:3]([H:9])[H:10])([H:7])[H:8])[H:6]"
O       -2.01651008      -0.53518531       0.15937563
C       -0.59579995      -0.44103380       0.15074666
C        0.91795820       1.08953174      -0.42634288
C        1.67217098       0.04538515       0.09764451
N        1.42888505      -1.02170424       0.56027765
H       -2.27039616      -1.42423235       0.41181021
H       -0.61232511       0.14386047       1.08915627
H       -0.47243678      -1.10827887      -0.72562180
H        0.93675471       1.99269118       0.17608535
H        1.01169914       1.25896603      -1.49313161
