15
Frame=0 idx=010501 GeodesicLength=0.0 rxn_smarts="[C:1]([c:2]1[c:3]([H:11])[n:4]([H:12])[c:5]([N:6]([H:13])[H:14])[c:7]1[H:15])([H:8])([H:9])[H:10]>>[C:1]([C:2]1=[C:7]([H:15])/[C:5](=[N:6]\[H:13])[N:4]([H:12])[C:3]1([H:11])[H:14])([H:8])([H:9])[H:10]"
C       -2.09780331      -0.32520195      -0.19119992
C       -0.68565868      -0.02844752       0.18767612
C        0.07354280       1.10073241      -0.31604080
N        1.16662488       1.23612040       0.59544800
C        1.42645703      -0.12595971       0.72696640
N        2.25154466      -0.44824928      -0.27394225
C        0.16385315      -0.79472249       0.92337270
H       -2.36733517      -1.35334869       0.05138331
H       -2.78795831       0.33920342       0.33402158
H       -2.24871506      -0.17456657      -1.26213707
H       -0.41835355       1.99524740      -0.68822521
H        1.97062269       1.69251019       0.18386707
H        2.29706810      -1.45264149      -0.42276740
H        1.23138930       0.15926838      -1.08005765
H        0.02472147      -1.81994445       1.23163512
15
Frame=1 idx=010501 GeodesicLength=0.06036819723608438 rxn_smarts="[C:1]([c:2]1[c:3]([H:11])[n:4]([H:12])[c:5]([N:6]([H:13])[H:14])[c:7]1[H:15])([H:8])([H:9])[H:10]>>[C:1]([C:2]1=[C:7]([H:15])/[C:5](=[N:6]\[H:13])[N:4]([H:12])[C:3]1([H:11])[H:14])([H:8])([H:9])[H:10]"
C       -2.10458153      -0.32153668      -0.18726367
C       -0.68921130      -0.02778243       0.18080700
C        0.07222254       1.09633914      -0.33053806
N        1.16024884       1.23284345       0.58662549
C        1.42793048      -0.12698223       0.72493123
N        2.26398014      -0.45550130      -0.26704539
C        0.16288601      -0.79212666       0.91828318
H       -2.36808513      -1.35624219       0.03316956
H       -2.79002464       0.32737703       0.36297781
H       -2.27246117      -0.14603579      -1.25183748
H       -0.42017890       1.99447672      -0.69336205
H        1.96433812       1.70361166       0.19313026
H        2.32494401      -1.46195811      -0.39216463
H        1.24251163       0.15213275      -1.10126289
H        0.02548089      -1.81861534       1.22354966
15
Frame=2 idx=010501 GeodesicLength=0.12068083820449353 rxn_smarts="[C:1]([c:2]1[c:3]([H:11])[n:4]([H:12])[c:5]([N:6]([H:13])[H:14])[c:7]1[H:15])([H:8])([H:9])[H:10]>>[C:1]([C:2]1=[C:7]([H:15])/[C:5](=[N:6]\[H:13])[N:4]([H:12])[C:3]1([H:11])[H:14])([H:8])([H:9])[H:10]"
C       -2.11130366      -0.31780445      -0.18325356
C       -0.69285466      -0.02698311       0.17418798
C        0.07085049       1.09190038      -0.34497794
N        1.15405932       1.22942113       0.57754141
C        1.42944020      -0.12809014       0.72273584
N        2.27624311      -0.46294480      -0.26023227
C        0.16196645      -0.78961211       0.91306481
H       -2.36905497      -1.35853555       0.01459804
H       -2.79168141       0.31494245       0.39161577
H       -2.29600860      -0.11736980      -1.24057787
H       -0.42186954       1.99355538      -0.69870463
H        1.95763311       1.71477554       0.20252223
H        2.35272383      -1.47074198      -0.36086075
H        1.25361230       0.14488772      -1.12282971
H        0.02624403      -1.81740066       1.21517065
15
Frame=3 idx=010501 GeodesicLength=0.18094359903435553 rxn_smarts="[C:1]([c:2]1[c:3]([H:11])[n:4]([H:12])[c:5]([N:6]([H:13])[H:14])[c:7]1[H:15])([H:8])([H:9])[H:10]>>[C:1]([C:2]1=[C:7]([H:15])/[C:5](=[N:6]\[H:13])[N:4]([H:12])[C:3]1([H:11])[H:14])([H:8])([H:9])[H:10]"
C       -2.11796939      -0.31400213      -0.17916546
C       -0.69659073      -0.02603573       0.16784338
C        0.06942351       1.08741581      -0.35935374
N        1.14807022       1.22584984       0.56819170
C        1.43099053      -0.12928939       0.72037818
N        2.28832928      -0.47060325      -0.25350930
C        0.16109662      -0.78717899       0.90772474
H       -2.37025231      -1.36020513      -0.00429124
H       -2.79295185       0.30191842       0.41988826
H       -2.31930538      -0.08862154      -1.22836530
H       -0.42342808       1.99249402      -0.70424096
H        1.95049895       1.72599218       0.21205943
H        2.38040236      -1.47896020      -0.32886554
H        1.26467265       0.13752968      -1.14477893
H        0.02701363      -1.81630359       1.20648477
15
Frame=4 idx=010501 GeodesicLength=0.24116350310466791 rxn_smarts="[C:1]([c:2]1[c:3]([H:11])[n:4]([H:12])[c:5]([N:6]([H:13])[H:14])[c:7]1[H:15])([H:8])([H:9])[H:10]>>[C:1]([C:2]1=[C:7]([H:15])/[C:5](=[N:6]\[H:13])[N:4]([H:12])[C:3]1([H:11])[H:14])([H:8])([H:9])[H:10]"
C       -2.12458503      -0.31012458      -0.17499214
C       -0.70041905      -0.02493592       0.16177547
C        0.06793985       1.08287585      -0.37367978
N        1.14228896       1.22212648       0.55856022
C        1.43258241      -0.13058342       0.71785422
N        2.30024446      -0.47849725      -0.24687362
C        0.16027703      -0.78483039       0.90225863
H       -2.37167764      -1.36123267      -0.02350778
H       -2.79384897       0.28829682       0.44781280
H       -2.34235607      -0.05977294      -1.21518216
H       -0.42485329       1.99129122      -0.70998908
H        1.94291617       1.73725323       0.22175817
H        2.40801297      -1.48657859      -0.29613361
H        1.27568768       0.13004155      -1.16713339
H        0.02779051      -1.81532940       1.19747205
15
Frame=5 idx=010501 GeodesicLength=0.3013328120676197 rxn_smarts="[C:1]([c:2]1[c:3]([H:11])[n:4]([H:12])[c:5]([N:6]([H:13])[H:14])[c:7]1[H:15])([H:8])([H:9])[H:10]>>[C:1]([C:2]1=[C:7]([H:15])/[C:5](=[N:6]\[H:13])[N:4]([H:12])[C:3]1([H:11])[H:14])([H:8])([H:9])[H:10]"
C       -2.13114126      -0.30617054      -0.17073292
C       -0.70433853      -0.02366674       0.15601662
C        0.06639675       1.07828482      -0.38793763
N        1.13673354       1.21824592       0.54864951
C        1.43422169      -0.13198137       0.71516211
N        2.31198170      -0.48665084      -0.24033421
C        0.15951226      -0.78256282       0.89668213
H       -2.37334289      -1.36159887      -0.04295965
H       -2.79440256       0.27413369       0.47529073
H       -2.36506374      -0.03094054      -1.20106004
H       -0.42614893       1.98996259      -0.71591531
H        1.93487418       1.74854966       0.23165646
H        2.43549876      -1.49356355      -0.26273622
H        1.28663762       0.12243178      -1.18991165
H        0.02858141      -1.81447318       1.18813007
15
Frame=6 idx=010501 GeodesicLength=0.3614709096012473 rxn_smarts="[C:1]([c:2]1[c:3]([H:11])[n:4]([H:12])[c:5]([N:6]([H:13])[H:14])[c:7]1[H:15])([H:8])([H:9])[H:10]>>[C:1]([C:2]1=[C:7]([H:15])/[C:5](=[N:6]\[H:13])[N:4]([H:12])[C:3]1([H:11])[H:14])([H:8])([H:9])[H:10]"
C       -2.13764979      -0.30213011      -0.16637744
C       -0.70834649      -0.02222807       0.15055786
C        0.06479564       1.07362429      -0.40215780
N        1.13141328       1.21420383       0.53842885
C        1.43591109      -0.13348711       0.71229739
N        2.32355003      -0.49509549      -0.23388222
C        0.15880058      -0.78038060       0.89098552
H       -2.37524628      -1.36127988      -0.06270598
H       -2.79461788       0.25937845       0.50238173
H       -2.38749029      -0.00203608      -1.18595227
H       -0.42730755       1.98849783      -0.72206005
H        1.92634328       1.75986822       0.24176778
H        2.46294320      -1.49985057      -0.22858052
H        1.29752212       0.11465959      -1.21314350
H        0.02937906      -1.81374430       1.17844066
15
Frame=7 idx=010501 GeodesicLength=0.4215722231927559 rxn_smarts="[C:1]([c:2]1[c:3]([H:11])[n:4]([H:12])[c:5]([N:6]([H:13])[H:14])[c:7]1[H:15])([H:8])([H:9])[H:10]>>[C:1]([C:2]1=[C:7]([H:15])/[C:5](=[N:6]\[H:13])[N:4]([H:12])[C:3]1([H:11])[H:14])([H:8])([H:9])[H:10]"
C       -2.14410353      -0.29800227      -0.16192335
C       -0.71243903      -0.02060528       0.14542521
C        0.06313525       1.06889357      -0.41633174
N        1.12634841       1.20999474       0.52789035
C        1.43765690      -0.13510910       0.70925542
N        2.33494716      -0.50386137      -0.22752205
C        0.15814631      -0.77827913       0.88518293
H       -2.37739263      -1.36025430      -0.08270068
H       -2.79452192       0.24404918       0.52901515
H       -2.40957854       0.02687898      -1.16986733
H       -0.42832935       1.98690722      -0.72840193
H        1.91730811       1.77119448       0.25212243
H        2.49031152      -1.50539204      -0.19370614
H        1.30832447       0.10671847      -1.23685025
H        0.03018687      -1.81313314       1.16841198
15
Frame=8 idx=010501 GeodesicLength=0.48164461865620195 rxn_smarts="[C:1]([c:2]1[c:3]([H:11])[n:4]([H:12])[c:5]([N:6]([H:13])[H:14])[c:7]1[H:15])([H:8])([H:9])[H:10]>>[C:1]([C:2]1=[C:7]([H:15])/[C:5](=[N:6]\[H:13])[N:4]([H:12])[C:3]1([H:11])[H:14])([H:8])([H:9])[H:10]"
C       -2.15050337      -0.29377873      -0.15736469
C       -0.71660816      -0.01879427       0.14062090
C        0.06141914       1.06407853      -0.43047665
N        1.12155477       1.20561467       0.51701014
C        1.43946516      -0.13685243       0.70603503
N        2.34618221      -0.51298121      -0.22124213
C        0.15755094      -0.77625713       0.87927686
H       -2.37978688      -1.35849264      -0.10294832
H       -2.79412766       0.22812299       0.55519060
H       -2.43133358       0.05582404      -1.15278080
H       -0.42920690       1.98518586      -0.73496241
H        1.90773487       1.78251357       0.26275770
H        2.51761987      -1.51011748      -0.15809970
H        1.31903823       0.09857617      -1.26105686
H        0.03100136      -1.81264194       1.15804031
15
Frame=9 idx=010501 GeodesicLength=0.5416504376204868 rxn_smarts="[C:1]([c:2]1[c:3]([H:11])[n:4]([H:12])[c:5]([N:6]([H:13])[H:14])[c:7]1[H:15])([H:8])([H:9])[H:10]>>[C:1]([C:2]1=[C:7]([H:15])/[C:5](=[N:6]\[H:13])[N:4]([H:12])[C:3]1([H:11])[H:14])([H:8])([H:9])[H:10]"
C       -2.15681066      -0.28948221      -0.15271766
C       -0.72083538      -0.01678054       0.13616766
C        0.05964590       1.05918825      -0.44457569
N        1.11703731       1.20106619       0.50578722
C        1.44134358      -0.13870850       0.70264046
N        2.35726065      -0.52245831      -0.21502576
C        0.15702490      -0.77428682       0.87330197
H       -2.38238564      -1.35601278      -0.12337654
H       -2.79343508       0.21164557       0.58078715
H       -2.45268234       0.08470879      -1.13470697
H       -0.42994991       1.98333481      -0.74171919
H        1.89759167       1.79383317       0.27374515
H        2.54467405      -1.51407640      -0.12192978
H        1.32968467       0.09025608      -1.28577222
H        0.03183627      -1.81222728       1.14739421
15
Frame=10 idx=010501 GeodesicLength=0.6016288225075208 rxn_smarts="[C:1]([c:2]1[c:3]([H:11])[n:4]([H:12])[c:5]([N:6]([H:13])[H:14])[c:7]1[H:15])([H:8])([H:9])[H:10]>>[C:1]([C:2]1=[C:7]([H:15])/[C:5](=[N:6]\[H:13])[N:4]([H:12])[C:3]1([H:11])[H:14])([H:8])([H:9])[H:10]"
C       -2.16305721      -0.28507885      -0.14795948
C       -0.72512349      -0.01456217       0.13206063
C        0.05781919       1.05419389      -0.45866435
N        1.11282550       1.19633776       0.49418130
C        1.44329658      -0.14069510       0.69906324
N        2.36818890      -0.53234866      -0.20886852
C        0.15656171      -0.77238566       0.86723969
H       -2.38522329      -1.35275290      -0.14403488
H       -2.79247105       0.19457312       0.60589223
H       -2.47365765       0.11359865      -1.11561561
H       -0.43053940       1.98134805      -0.74871244
H        1.88682571       1.80511751       0.28510723
H        2.57164632      -1.51711600      -0.08507323
H        1.34023639       0.08168595      -1.31103662
H        0.03267181      -1.81191561       1.13642081
15
Frame=11 idx=010501 GeodesicLength=0.6615673674532917 rxn_smarts="[C:1]([c:2]1[c:3]([H:11])[n:4]([H:12])[c:5]([N:6]([H:13])[H:14])[c:7]1[H:15])([H:8])([H:9])[H:10]>>[C:1]([C:2]1=[C:7]([H:15])/[C:5](=[N:6]\[H:13])[N:4]([H:12])[C:3]1([H:11])[H:14])([H:8])([H:9])[H:10]"
C       -2.16923249      -0.28057037      -0.14308530
C       -0.72946441      -0.01212748       0.12831960
C        0.05593770       1.04909041      -0.47274023
N        1.10893663       1.19142322       0.48217793
C        1.44532933      -0.14281816       0.69530062
N        2.37896504      -0.54267779      -0.20276508
C        0.15616574      -0.77054359       0.86110992
H       -2.38828631      -1.34870168      -0.16488661
H       -2.79124976       0.17694101       0.63046020
H       -2.49420362       0.14244240      -1.09553191
H       -0.43097492       1.97922444      -0.75593297
H        1.87539128       1.81635482       0.29690241
H        2.59849236      -1.51920440      -0.04760030
H        1.35068422       0.07285357      -1.33687385
H        0.03350922      -1.81168640       1.12514558
15
Frame=12 idx=010501 GeodesicLength=0.7214734618708472 rxn_smarts="[C:1]([c:2]1[c:3]([H:11])[n:4]([H:12])[c:5]([N:6]([H:13])[H:14])[c:7]1[H:15])([H:8])([H:9])[H:10]>>[C:1]([C:2]1=[C:7]([H:15])/[C:5](=[N:6]\[H:13])[N:4]([H:12])[C:3]1([H:11])[H:14])([H:8])([H:9])[H:10]"
C       -2.17533251      -0.27594777      -0.13808843
C       -0.73384603      -0.00947397       0.12494084
C        0.05400440       1.04385714      -0.48682743
N        1.10538694       1.18631569       0.46974168
C        1.44744755      -0.14508149       0.69135079
N        2.38960069      -0.55347960      -0.19669078
C        0.15583800      -0.76875660       0.85491548
H       -2.39156822      -1.34382775      -0.18596218
H       -2.78976282       0.15872132       0.65451076
H       -2.51433219       0.17128486      -1.07441561
H       -0.43124711       1.97694878      -0.76341693
H        1.86321864       1.82752814       0.30918590
H        2.62522264      -1.52026917      -0.00950763
H        1.36102891       0.06371466      -1.36331264
H        0.03434112      -1.81153424       1.11357616
15
Frame=13 idx=010501 GeodesicLength=0.7813267588646505 rxn_smarts="[C:1]([c:2]1[c:3]([H:11])[n:4]([H:12])[c:5]([N:6]([H:13])[H:14])[c:7]1[H:15])([H:8])([H:9])[H:10]>>[C:1]([C:2]1=[C:7]([H:15])/[C:5](=[N:6]\[H:13])[N:4]([H:12])[C:3]1([H:11])[H:14])([H:8])([H:9])[H:10]"
C       -2.18133841      -0.27121070      -0.13297244
C       -0.73824909      -0.00659236       0.12193954
C        0.05202331       1.03849354      -0.50091642
N        1.10219742       1.18101418       0.45686607
C        1.44966341      -0.14748634       0.68721710
N        2.40010801      -0.56476345      -0.19062790
C        0.15558897      -0.76700941       0.84868169
H       -2.39505875      -1.33812954      -0.20714545
H       -2.78802929       0.14000541       0.67795652
H       -2.53395800       0.19999800      -1.05234169
H       -0.43135423       1.97452354      -0.77114597
H        1.85023279       1.83862907       0.32206750
H        2.65172916      -1.52031633       0.02903489
H        1.37126993       0.05427259      -1.39037103
H        0.03517478      -1.81142820       1.10175761
15
Frame=14 idx=010501 GeodesicLength=0.8411399392017214 rxn_smarts="[C:1]([c:2]1[c:3]([H:11])[n:4]([H:12])[c:5]([N:6]([H:13])[H:14])[c:7]1[H:15])([H:8])([H:9])[H:10]>>[C:1]([C:2]1=[C:7]([H:15])/[C:5](=[N:6]\[H:13])[N:4]([H:12])[C:3]1([H:11])[H:14])([H:8])([H:9])[H:10]"
C       -2.18724711      -0.26634560      -0.12772707
C       -0.74265900      -0.00348323       0.11930178
C        0.05000019       1.03296909      -0.51504865
N        1.09938899       1.17550900       0.44349567
C        1.45198351      -0.15003651       0.68288955
N        2.41050378      -0.57656628      -0.18454904
C        0.15542092      -0.76529896       0.84240414
H       -2.39875926      -1.33155513      -0.22850540
H       -2.78602534       0.12073501       0.70083910
H       -2.55312117       0.22868261      -1.02922026
H       -0.43128279       1.97192251      -0.77918173
H        1.83632176       1.84962927       0.33562286
H        2.67806125      -1.51925102       0.06807048
H        1.38141388       0.04445679      -1.41808629
H        0.03600038      -1.81136753       1.08969486
15
Frame=15 idx=010501 GeodesicLength=0.900901802841968 rxn_smarts="[C:1]([c:2]1[c:3]([H:11])[n:4]([H:12])[c:5]([N:6]([H:13])[H:14])[c:7]1[H:15])([H:8])([H:9])[H:10]>>[C:1]([C:2]1=[C:7]([H:15])/[C:5](=[N:6]\[H:13])[N:4]([H:12])[C:3]1([H:11])[H:14])([H:8])([H:9])[H:10]"
C       -2.19303540      -0.26134995      -0.12235331
C       -0.74704914      -0.00014044       0.11703372
C        0.04794384       1.02727653      -0.52922638
N        1.09698811       1.16980019       0.42960969
C        1.45442473      -0.15272960       0.67836981
N        2.42081300      -0.58889283      -0.17842448
C        0.15534888      -0.76360783       0.83610576
H       -2.40266331      -1.32409265      -0.24992764
H       -2.78376263       0.10099979       0.72307499
H       -2.57174472       0.25722895      -1.00511014
H       -0.43102654       1.96913942      -0.78752526
H        1.82135830       1.86051349       0.34999590
H        2.70411098      -1.51708655       0.10741736
H        1.39146686       0.03426108      -1.44648254
H        0.03682704      -1.81131962       1.07744254
15
Frame=16 idx=010501 GeodesicLength=0.9606212867596619 rxn_smarts="[C:1]([c:2]1[c:3]([H:11])[n:4]([H:12])[c:5]([N:6]([H:13])[H:14])[c:7]1[H:15])([H:8])([H:9])[H:10]>>[C:1]([C:2]1=[C:7]([H:15])/[C:5](=[N:6]\[H:13])[N:4]([H:12])[C:3]1([H:11])[H:14])([H:8])([H:9])[H:10]"
C       -2.19870198      -0.25619227      -0.11683210
C       -0.75139905       0.00342887       0.11510113
C        0.04586511       1.02137827      -0.54350500
N        1.09501532       1.16387446       0.41514221
C        1.45699228      -0.15557031       0.67364383
N        2.43105897      -0.60177320      -0.17221749
C        0.15537788      -0.76193916       0.82976655
H       -2.40678942      -1.31567965      -0.27143625
H       -2.78120552       0.08077860       0.74470737
H       -2.58985466       0.28571372      -0.97992067
H       -0.43056622       1.96613878      -0.79625924
H        1.80516774       1.87124295       0.36532019
H        2.72993768      -1.51373120       0.14710584
H        1.40145138       0.02361665      -1.47560084
H        0.03765051      -1.81128651       1.06498448
