14
Frame=0 idx=007903 GeodesicLength=0.0 rxn_smarts="[C:1](/[C:2](=[N:3]\[O:4][H:11])[C@@:5]1([H:12])[C:6]([H:13])([H:14])[O:7]1)([H:8])([H:9])[H:10]>>[C:1]([C:2]1=[C:5]([C:6]([O:7][H:12])([H:13])[H:14])[N:3]1[O:4][H:11])([H:8])([H:9])[H:10]"
C       -1.38650901      -1.04994540      -0.30475872
C       -0.41978724       0.07019178      -0.08707902
N       -0.65942671       1.09228187       0.64381984
O       -1.93207157       1.06606606       1.16922888
C        0.82889866       0.14226382      -0.85041159
C        2.03215553       0.58594651      -0.13552166
O        2.09113589      -0.85452363      -0.10226779
H       -2.27548038      -0.68917286      -0.82692316
H       -0.92720032      -1.83987933      -0.89537153
H       -1.71949849      -1.45430685       0.65172198
H       -1.98291332       1.88499460       1.66717982
H        1.59858048      -0.97608852      -1.10491266
H        2.84330042       1.04609003      -0.69463749
H        1.90881605       0.97608187       0.86993314
14
Frame=1 idx=007903 GeodesicLength=0.07521373077976806 rxn_smarts="[C:1](/[C:2](=[N:3]\[O:4][H:11])[C@@:5]1([H:12])[C:6]([H:13])([H:14])[O:7]1)([H:8])([H:9])[H:10]>>[C:1]([C:2]1=[C:5]([C:6]([O:7][H:12])([H:13])[H:14])[N:3]1[O:4][H:11])([H:8])([H:9])[H:10]"
C       -1.39047464      -1.06841371      -0.29224818
C       -0.41732810       0.03907028      -0.05360118
N       -0.64608249       1.07910536       0.66198408
O       -1.94440486       1.10330801       1.12920152
C        0.81705830       0.16346548      -0.81983207
C        2.03791245       0.58308259      -0.12114146
O        2.10793020      -0.85507643      -0.15278910
H       -2.26500935      -0.70154862      -0.83408364
H       -0.92394749      -1.86306179      -0.87084423
H       -1.74844272      -1.46325197       0.65926826
H       -1.98131695       1.91687140       1.63712634
H        1.59054105      -0.94051236      -1.15829216
H        2.82568435       1.07511342      -0.68674167
H        1.93788023       0.93184835       0.90199349
14
Frame=2 idx=007903 GeodesicLength=0.14995469799878763 rxn_smarts="[C:1](/[C:2](=[N:3]\[O:4][H:11])[C@@:5]1([H:12])[C:6]([H:13])([H:14])[O:7]1)([H:8])([H:9])[H:10]>>[C:1]([C:2]1=[C:5]([C:6]([O:7][H:12])([H:13])[H:14])[N:3]1[O:4][H:11])([H:8])([H:9])[H:10]"
C       -1.39417622      -1.08637014      -0.28028623
C       -0.41552779       0.00939072      -0.02236748
N       -0.63324134       1.06530837       0.68043349
O       -1.95231834       1.13894037       1.08930488
C        0.80539853       0.18251544      -0.78783431
C        2.04319389       0.57979242      -0.10695627
O        2.12237005      -0.85324328      -0.20172058
H       -2.25510227      -0.71403469      -0.83975947
H       -0.92153487      -1.88537715      -0.84791045
H       -1.77466690      -1.47269980       0.66601098
H       -1.97847498       1.94784117       1.60533029
H        1.58004305      -0.90322718      -1.20834055
H        2.80731293       1.10315827      -0.67703902
H        1.96672426       0.88800547       0.93113473
14
Frame=3 idx=007903 GeodesicLength=0.22458162331323123 rxn_smarts="[C:1](/[C:2](=[N:3]\[O:4][H:11])[C@@:5]1([H:12])[C:6]([H:13])([H:14])[O:7]1)([H:8])([H:9])[H:10]>>[C:1]([C:2]1=[C:5]([C:6]([O:7][H:12])([H:13])[H:14])[N:3]1[O:4][H:11])([H:8])([H:9])[H:10]"
C       -1.39777262      -1.10390944      -0.26870041
C       -0.41437686      -0.01891084       0.00661676
N       -0.62096135       1.05106652       0.69901573
O       -1.95710309       1.17560895       1.04530923
C        0.79405615       0.19932783      -0.75483425
C        2.04803149       0.57633800      -0.09318738
O        2.13484125      -0.84903763      -0.24903381
H       -2.24509584      -0.72712457      -0.84555561
H       -0.91947804      -1.90779508      -0.82468468
H       -1.79995865      -1.48123785       0.67229315
H       -1.97330312       1.97487859       1.57657391
H        1.56744658      -0.86454956      -1.25514385
H        2.78824684       1.13038361      -0.66600203
H        1.99542726       0.84496147       0.95733324
14
Frame=4 idx=007903 GeodesicLength=0.2991656794081651 rxn_smarts="[C:1](/[C:2](=[N:3]\[O:4][H:11])[C@@:5]1([H:12])[C:6]([H:13])([H:14])[O:7]1)([H:8])([H:9])[H:10]>>[C:1]([C:2]1=[C:5]([C:6]([O:7][H:12])([H:13])[H:14])[N:3]1[O:4][H:11])([H:8])([H:9])[H:10]"
C       -1.40135371      -1.12107934      -0.25763408
C       -0.41408681      -0.04552224       0.03275330
N       -0.60943748       1.03691369       0.71699887
O       -1.95775518       1.21138271       1.00084833
C        0.78324333       0.21414928      -0.72130319
C        2.05252316       0.57264131      -0.07960595
O        2.14529538      -0.84285973      -0.29443586
H       -2.23622258      -0.74067895      -0.85001934
H       -0.91827990      -1.92961083      -0.80279329
H       -1.82270236      -1.49004192       0.67833664
H       -1.96699172       2.00014721       1.54780429
H        1.55309705      -0.82468172      -1.29879060
H        2.76901753       1.15657725      -0.65313925
H        2.02365329       0.80266328       0.98098012
14
Frame=5 idx=007903 GeodesicLength=0.37331826599879697 rxn_smarts="[C:1](/[C:2](=[N:3]\[O:4][H:11])[C@@:5]1([H:12])[C:6]([H:13])([H:14])[O:7]1)([H:8])([H:9])[H:10]>>[C:1]([C:2]1=[C:5]([C:6]([O:7][H:12])([H:13])[H:14])[N:3]1[O:4][H:11])([H:8])([H:9])[H:10]"
C       -1.40489408      -1.13774267      -0.24721555
C       -0.41459073      -0.07055771       0.05609722
N       -0.59877705       1.02305690       0.73382815
O       -1.95443732       1.24567343       0.95700988
C        0.77310366       0.22681694      -0.68749004
C        2.05654538       0.56873167      -0.06631854
O        2.15388873      -0.83484076      -0.33745659
H       -2.22845742      -0.75436380      -0.85313935
H       -0.91789900      -1.95050443      -0.78260498
H       -1.84291354      -1.49910668       0.68408299
H       -1.95949395       2.02383652       1.51900770
H        1.53746418      -0.78416703      -1.33897439
H        2.74951734       1.18150678      -0.63884010
H        2.05094379       0.76166084       1.00201359
14
Frame=6 idx=007903 GeodesicLength=0.44761833061657147 rxn_smarts="[C:1](/[C:2](=[N:3]\[O:4][H:11])[C@@:5]1([H:12])[C:6]([H:13])([H:14])[O:7]1)([H:8])([H:9])[H:10]>>[C:1]([C:2]1=[C:5]([C:6]([O:7][H:12])([H:13])[H:14])[N:3]1[O:4][H:11])([H:8])([H:9])[H:10]"
C       -1.40857868      -1.15410221      -0.23724309
C       -0.41574620      -0.09429580       0.07720958
N       -0.58884194       1.00954494       0.74979893
O       -1.94762269       1.27935580       0.91260969
C        0.76359334       0.23749933      -0.65345497
C        2.06032781       0.56476864      -0.05332331
O        2.16114056      -0.82514343      -0.37862408
H       -2.22174494      -0.76826392      -0.85540088
H       -0.91834029      -1.97098720      -0.76344560
H       -1.86147581      -1.50830595       0.68973514
H       -1.95115856       2.04555877       1.49085846
H        1.52066417      -0.74287309      -1.37627393
H        2.72991228       1.20556053      -0.62323493
H        2.07787096       0.72168359       1.02078898
14
Frame=7 idx=007903 GeodesicLength=0.5219060627454326 rxn_smarts="[C:1](/[C:2](=[N:3]\[O:4][H:11])[C@@:5]1([H:12])[C:6]([H:13])([H:14])[O:7]1)([H:8])([H:9])[H:10]>>[C:1]([C:2]1=[C:5]([C:6]([O:7][H:12])([H:13])[H:14])[N:3]1[O:4][H:11])([H:8])([H:9])[H:10]"
C       -1.41247755      -1.16993030      -0.22789392
C       -0.41749426      -0.11669697       0.09600078
N       -0.57963821       0.99688585       0.76403760
O       -1.93750383       1.31236272       0.86802550
C        0.75489960       0.24599630      -0.61949562
C        2.06392776       0.56086383      -0.04080699
O        2.16730056      -0.81407276      -0.41712961
H       -2.21612844      -0.78201395      -0.85700167
H       -0.91971933      -1.99086733      -0.74551887
H       -1.87852681      -1.51736799       0.69515982
H       -1.94231766       2.06438928       1.46463194
H        1.50319227      -0.70176543      -1.41015529
H        2.71027024       1.22847358      -0.60699078
H        2.10421566       0.68374318       1.03713712
14
Frame=8 idx=007903 GeodesicLength=0.596197419378396 rxn_smarts="[C:1](/[C:2](=[N:3]\[O:4][H:11])[C@@:5]1([H:12])[C:6]([H:13])([H:14])[O:7]1)([H:8])([H:9])[H:10]>>[C:1]([C:2]1=[C:5]([C:6]([O:7][H:12])([H:13])[H:14])[N:3]1[O:4][H:11])([H:8])([H:9])[H:10]"
C       -1.41648078      -1.18545464      -0.21888169
C       -0.41975458      -0.13802369       0.11300538
N       -0.57106389       0.98467792       0.77728711
O       -1.92432050       1.34415481       0.82407741
C        0.74685854       0.25267147      -0.58547395
C        2.06731167       0.55684646      -0.02853124
O        2.17242790      -0.80164473      -0.45411681
H       -2.21156175      -0.79572659      -0.85756184
H       -0.92182650      -2.01015568      -0.72876275
H       -1.89395196      -1.52680456       0.70064333
H       -1.93313357       2.08221557       1.43784847
H        1.48485840      -0.65989230      -1.44162368
H        2.69048258       1.25056613      -0.58952761
H        2.13015443       0.64656981       1.05161788
14
Frame=9 idx=007903 GeodesicLength=0.6706718992892244 rxn_smarts="[C:1](/[C:2](=[N:3]\[O:4][H:11])[C@@:5]1([H:12])[C:6]([H:13])([H:14])[O:7]1)([H:8])([H:9])[H:10]>>[C:1]([C:2]1=[C:5]([C:6]([O:7][H:12])([H:13])[H:14])[N:3]1[O:4][H:11])([H:8])([H:9])[H:10]"
C       -1.42066116      -1.20073165      -0.21015634
C       -0.42243878      -0.15844614       0.12847812
N       -0.56304034       0.97295258       0.78958202
O       -1.90829879       1.37506331       0.78041244
C        0.73949002       0.25753450      -0.55141314
C        2.07059988       0.55274764      -0.01650778
O        2.17676622      -0.78794908      -0.48976755
H       -2.20797275      -0.80937663      -0.85733594
H       -0.92464281      -2.02907271      -0.71290286
H       -1.90817937      -1.53648111       0.70620559
H       -1.92376236       2.09885824       1.41085329
H        1.46572925      -0.61730827      -1.47083169
H        2.67049621       1.27202171      -0.57094190
H        2.15591478       0.61018762       1.06432576
14
Frame=10 idx=007903 GeodesicLength=0.7452526948317457 rxn_smarts="[C:1](/[C:2](=[N:3]\[O:4][H:11])[C@@:5]1([H:12])[C:6]([H:13])([H:14])[O:7]1)([H:8])([H:9])[H:10]>>[C:1]([C:2]1=[C:5]([C:6]([O:7][H:12])([H:13])[H:14])[N:3]1[O:4][H:11])([H:8])([H:9])[H:10]"
C       -1.42490288      -1.21594630      -0.20157944
C       -0.42556082      -0.17807921       0.14256800
N       -0.55561274       0.96155267       0.80109905
O       -1.88979487       1.40460429       0.73769694
C        0.73268858       0.26076824      -0.51728421
C        2.07370232       0.54839555      -0.00456932
O        2.18024379      -0.77290371      -0.52472530
H       -2.20538127      -0.82317011      -0.85604493
H       -0.92793544      -2.04763329      -0.69795924
H       -1.92094864      -1.54676899       0.71204344
H       -1.91373491       2.11574363       1.38215591
H        1.44567573      -0.57333162      -1.49826445
H        2.65017651       1.29298168      -0.55065621
H        2.18138463       0.57378716       1.07551975
14
Frame=11 idx=007903 GeodesicLength=0.8199502849615392 rxn_smarts="[C:1](/[C:2](=[N:3]\[O:4][H:11])[C@@:5]1([H:12])[C:6]([H:13])([H:14])[O:7]1)([H:8])([H:9])[H:10]>>[C:1]([C:2]1=[C:5]([C:6]([O:7][H:12])([H:13])[H:14])[N:3]1[O:4][H:11])([H:8])([H:9])[H:10]"
C       -1.42925566      -1.23095881      -0.19313919
C       -0.42899150      -0.19704850       0.15555589
N       -0.54866277       0.95056529       0.81176391
O       -1.86878330       1.43322569       0.69513842
C        0.72649782       0.26220344      -0.48306653
C        2.07665293       0.54391955       0.00715949
O        2.18304797      -0.75652976      -0.55879604
H       -2.20354088      -0.83685790      -0.85400202
H       -0.93177092      -2.06585236      -0.68369882
H       -1.93274996      -1.55727489       0.71806522
H       -1.90345001       2.13177607       1.35276378
H        1.42476606      -0.52830191      -1.52367331
H        2.62947044       1.31332249      -0.52914249
H        2.20676978       0.53781160       1.08507167
14
Frame=12 idx=007903 GeodesicLength=0.8948704381015349 rxn_smarts="[C:1](/[C:2](=[N:3]\[O:4][H:11])[C@@:5]1([H:12])[C:6]([H:13])([H:14])[O:7]1)([H:8])([H:9])[H:10]>>[C:1]([C:2]1=[C:5]([C:6]([O:7][H:12])([H:13])[H:14])[N:3]1[O:4][H:11])([H:8])([H:9])[H:10]"
C       -1.43374134      -1.24600108      -0.18477487
C       -0.43279721      -0.21540524       0.16741083
N       -0.54221409       0.93998536       0.82154086
O       -1.84566274       1.46061639       0.65322574
C        0.72087911       0.26199280      -0.44881386
C        2.07950584       0.53923475       0.01880551
O        2.18516363      -0.73876540      -0.59232521
H       -2.20271047      -0.85070061      -0.85101717
H       -0.93608997      -2.08387278      -0.67019643
H       -1.94339306      -1.56841587       0.72444324
H       -1.89238372       2.14804594       1.32176564
H        1.40292618      -0.48172662      -1.54730908
H        2.60844531       1.33322402      -0.50591313
H        2.23207253       0.50178835       1.09315793
14
Frame=13 idx=007903 GeodesicLength=0.970303873654901 rxn_smarts="[C:1](/[C:2](=[N:3]\[O:4][H:11])[C@@:5]1([H:12])[C:6]([H:13])([H:14])[O:7]1)([H:8])([H:9])[H:10]>>[C:1]([C:2]1=[C:5]([C:6]([O:7][H:12])([H:13])[H:14])[N:3]1[O:4][H:11])([H:8])([H:9])[H:10]"
C       -1.43832682      -1.26134670      -0.17628169
C       -0.43690007      -0.23349560       0.17863350
N       -0.53628450       0.92953141       0.83090611
O       -1.82043371       1.48684623       0.61152587
C        0.71569111       0.26011621      -0.41423869
C        2.08223704       0.53424894       0.03052850
O        2.18656641      -0.71919303      -0.62619829
H       -2.20267033      -0.86494139      -0.84717437
H       -0.94073588      -2.10205323      -0.65705018
H       -1.95318921      -1.58033794       0.73125686
H       -1.88003983       2.16543074       1.28810305
H        1.37966981      -0.43262930      -1.56949970
H        2.58675690       1.35300531      -0.48035136
H        2.25765908       0.46481834       1.09984039
14
Frame=14 idx=007903 GeodesicLength=1.0457787007324086 rxn_smarts="[C:1](/[C:2](=[N:3]\[O:4][H:11])[C@@:5]1([H:12])[C:6]([H:13])([H:14])[O:7]1)([H:8])([H:9])[H:10]>>[C:1]([C:2]1=[C:5]([C:6]([O:7][H:12])([H:13])[H:14])[N:3]1[O:4][H:11])([H:8])([H:9])[H:10]"
C       -1.44283248      -1.27682965      -0.16755049
C       -0.44131926      -0.25114656       0.18901892
N       -0.53091287       0.91934464       0.83938819
O       -1.79318011       1.51175128       0.56985042
C        0.71096310       0.25657786      -0.37952003
C        2.08466913       0.52876053       0.04227167
O        2.18697188      -0.69765903      -0.66040878
H       -2.20319376      -0.87962365      -0.84231807
H       -0.94546820      -2.12013093      -0.64404873
H       -1.96189474      -1.59274938       0.73871908
H       -1.86621857       2.18348251       1.25191916
H        1.35502515      -0.38077134      -1.59007154
H        2.56437707       1.37228601      -0.45219634
H        2.28301367       0.42670772       1.10494654
14
Frame=15 idx=007903 GeodesicLength=1.121824535211694 rxn_smarts="[C:1](/[C:2](=[N:3]\[O:4][H:11])[C@@:5]1([H:12])[C:6]([H:13])([H:14])[O:7]1)([H:8])([H:9])[H:10]>>[C:1]([C:2]1=[C:5]([C:6]([O:7][H:12])([H:13])[H:14])[N:3]1[O:4][H:11])([H:8])([H:9])[H:10]"
C       -1.44744102      -1.29279505      -0.15862007
C       -0.44606601      -0.26866559       0.19880802
N       -0.52607303       0.90932515       0.84717774
O       -1.76414368       1.53526591       0.52822212
C        0.70661895       0.25127042      -0.34453660
C        2.08690453       0.52295524       0.05413230
O        2.18650858      -0.67386101      -0.69504766
H       -2.20462191      -0.89490694      -0.83648580
H       -0.95048728      -2.13848127      -0.63141343
H       -1.96967796      -1.60617693       0.74676128
H       -1.85014966       2.20311764       1.21260724
H        1.32872225      -0.32578885      -1.60880976
H        2.54127101       1.39131676      -0.42124370
H        2.30863523       0.38742452       1.10844832
14
Frame=16 idx=007903 GeodesicLength=1.198282610325721 rxn_smarts="[C:1](/[C:2](=[N:3]\[O:4][H:11])[C@@:5]1([H:12])[C:6]([H:13])([H:14])[O:7]1)([H:8])([H:9])[H:10]>>[C:1]([C:2]1=[C:5]([C:6]([O:7][H:12])([H:13])[H:14])[N:3]1[O:4][H:11])([H:8])([H:9])[H:10]"
C       -1.45217049      -1.30903437      -0.14951757
C       -0.45106728      -0.28606054       0.20801862
N       -0.52164046       0.89954736       0.85405762
O       -1.73304602       1.55757293       0.48614653
C        0.70275678       0.24400566      -0.30933892
C        2.08894114       0.51688465       0.06595588
O        2.18515899      -0.64776081      -0.72976249
H       -2.20679168      -0.91054286      -0.82978641
H       -0.95588209      -2.15696689      -0.61908948
H       -1.97673447      -1.62022023       0.75532515
H       -1.83215103       2.22324154       1.17090700
H        1.30080238      -0.26803989      -1.62520571
H        2.51732841       1.40984634      -0.38778922
H        2.33449583       0.34752712       1.11007901
