15
Frame=0 idx=008457 GeodesicLength=0.0 rxn_smarts="[C:1]1([H:8])([H:9])[C@@:2]2([H:10])[C@@:3]3([H:11])[O:4][C:5]([H:12])([H:13])[C@:6]1([H:14])[C@@:7]23[H:15]>>[C:1]([C@@:2]1([H:10])[C@@:3]2([H:11])[O:4][C:5]([H:12])([H:13])[C:6]([H:8])([H:14])[C@@:7]12[H:15])[H:9]"
C        1.26002621       1.18010767       0.51332286
C        1.43269499      -0.20267080      -0.09542346
C        0.41718125      -1.25869667       0.25144774
O       -0.55732479      -1.01395878       1.23085824
C       -1.47761849      -0.07211079       0.70452744
C       -0.68216253       0.68985996      -0.34027648
C        0.22050205      -0.39325367      -0.94661945
H       -0.04637985       1.39977449       0.43068136
H        1.57423475       1.87541795      -0.28825875
H        2.42943972      -0.50530336      -0.39335577
H        0.68702443      -2.30194024       0.15203625
H       -1.84166575       0.54965932       1.52365623
H       -2.32912911      -0.58185555       0.23089516
H       -1.21516305       1.36593640      -1.00293370
H        0.12834017      -0.73096593      -1.97055768
15
Frame=1 idx=008457 GeodesicLength=0.06667055408802935 rxn_smarts="[C:1]1([H:8])([H:9])[C@@:2]2([H:10])[C@@:3]3([H:11])[O:4][C:5]([H:12])([H:13])[C@:6]1([H:14])[C@@:7]23[H:15]>>[C:1]([C@@:2]1([H:10])[C@@:3]2([H:11])[O:4][C:5]([H:12])([H:13])[C:6]([H:8])([H:14])[C@@:7]12[H:15])[H:9]"
C        1.25103952       1.17495979       0.51113312
C        1.43388118      -0.20118493      -0.09570042
C        0.41350165      -1.26112791       0.24707609
O       -0.55941377      -1.02074704       1.22599422
C       -1.47665637      -0.07159757       0.70531475
C       -0.68305025       0.68886727      -0.34280693
C        0.21896301      -0.39506641      -0.94783355
H       -0.06031091       1.42662897       0.43322570
H        1.59357969       1.87595712      -0.27277387
H        2.42908566      -0.50757619      -0.39543548
H        0.69115304      -2.30248743       0.15031655
H       -1.82688727       0.55202909       1.52899779
H       -2.33627746      -0.57535836       0.24098329
H       -1.22579744       1.34749561      -1.01536883
H        0.13718972      -0.73079203      -1.97312242
15
Frame=2 idx=008457 GeodesicLength=0.13333317610087392 rxn_smarts="[C:1]1([H:8])([H:9])[C@@:2]2([H:10])[C@@:3]3([H:11])[O:4][C:5]([H:12])([H:13])[C@:6]1([H:14])[C@@:7]23[H:15]>>[C:1]([C@@:2]1([H:10])[C@@:3]2([H:11])[O:4][C:5]([H:12])([H:13])[C:6]([H:8])([H:14])[C@@:7]12[H:15])[H:9]"
C        1.24162459       1.16995792       0.50862624
C        1.43500258      -0.19965101      -0.09607468
C        0.40982225      -1.26360542       0.24262502
O       -0.56153864      -1.02755757       1.22100849
C       -1.47559369      -0.07098471       0.70613542
C       -0.68400161       0.68785375      -0.34550126
C        0.21735778      -0.39701238      -0.94917925
H       -0.07428682       1.45360297       0.43500075
H        1.61315585       1.87626607      -0.25612701
H        2.42870524      -0.50967140      -0.39753657
H        0.69535551      -2.30300388       0.14863762
H       -1.81179279       0.55442034       1.53426121
H       -2.34334115      -0.56863140       0.25139362
H       -1.23643124       1.32876901      -1.02755845
H        0.14596214      -0.73075230      -1.97571113
15
Frame=3 idx=008457 GeodesicLength=0.19999033954432033 rxn_smarts="[C:1]1([H:8])([H:9])[C@@:2]2([H:10])[C@@:3]3([H:11])[O:4][C:5]([H:12])([H:13])[C@:6]1([H:14])[C@@:7]23[H:15]>>[C:1]([C@@:2]1([H:10])[C@@:3]2([H:11])[O:4][C:5]([H:12])([H:13])[C:6]([H:8])([H:14])[C@@:7]12[H:15])[H:9]"
C        1.23182500       1.16511424       0.50576354
C        1.43605625      -0.19805906      -0.09655409
C        0.40614498      -1.26611976       0.23809978
O       -0.56369698      -1.03437674       1.21590600
C       -1.47443495      -0.07027679       0.70698379
C       -0.68503052       0.68681078      -0.34837207
C        0.21568329      -0.39909083      -0.95065802
H       -0.08829622       1.48066846       0.43603201
H        1.63293010       1.87632761      -0.23826780
H        2.42829076      -0.51159504      -0.39967607
H        0.69963417      -2.30347777       0.14701150
H       -1.79638255       0.55683769       1.53942584
H       -2.35031248      -0.56168524       0.26212800
H       -1.24706504       1.30977605      -1.03949966
H        0.15465419      -0.73085359      -1.97832274
15
Frame=4 idx=008457 GeodesicLength=0.2666424292001539 rxn_smarts="[C:1]1([H:8])([H:9])[C@@:2]2([H:10])[C@@:3]3([H:11])[O:4][C:5]([H:12])([H:13])[C@:6]1([H:14])[C@@:7]23[H:15]>>[C:1]([C@@:2]1([H:10])[C@@:3]2([H:11])[O:4][C:5]([H:12])([H:13])[C:6]([H:8])([H:14])[C@@:7]12[H:15])[H:9]"
C        1.22168304       1.16044046       0.50250231
C        1.43704026      -0.19639891      -0.09715091
C        0.40247277      -1.26866070       0.23350610
O       -0.56588323      -1.04118727       1.21069405
C       -1.47318384      -0.06947731       0.70785371
C       -0.68614960       0.68573042      -0.35143266
C        0.21393546      -0.40130202      -0.95227286
H       -0.10233014       1.50780123       0.43634353
H        1.65287057       1.87612020      -0.21912621
H        2.42783516      -0.51335221      -0.40187645
H        0.70399143      -2.30389633       0.14545201
H       -1.78065551       0.55928838       1.54446972
H       -2.35718200      -0.55453061       0.27318866
H       -1.25770231       1.29053063      -1.05119350
H        0.16325795      -0.73110594      -1.98095750
15
Frame=5 idx=008457 GeodesicLength=0.33329135359996975 rxn_smarts="[C:1]1([H:8])([H:9])[C@@:2]2([H:10])[C@@:3]3([H:11])[O:4][C:5]([H:12])([H:13])[C@:6]1([H:14])[C@@:7]23[H:15]>>[C:1]([C@@:2]1([H:10])[C@@:3]2([H:11])[O:4][C:5]([H:12])([H:13])[C:6]([H:8])([H:14])[C@@:7]12[H:15])[H:9]"
C        1.21124204       1.15594810       0.49880307
C        1.43795441      -0.19466235      -0.09788040
C        0.39880901      -1.27121815       0.22884918
O       -0.56808862      -1.04796958       1.20538166
C       -1.47184229      -0.06858892       0.70873950
C       -0.68736934       0.68460571      -0.35469607
C        0.21211039      -0.40364674      -0.95402704
H       -0.11638300       1.53498274       0.43596390
H        1.67294187       1.87562006      -0.19863225
H        2.42733286      -0.51494906      -0.40416230
H        0.70842823      -2.30424817       0.14397281
H       -1.76461445       0.56178031       1.54937047
H       -2.36393847      -0.54717951       0.28457756
H       -1.26834629       1.27104585      -1.06264469
H        0.17176366      -0.73152031      -1.98361541
15
Frame=6 idx=008457 GeodesicLength=0.3999348678920445 rxn_smarts="[C:1]1([H:8])([H:9])[C@@:2]2([H:10])[C@@:3]3([H:11])[O:4][C:5]([H:12])([H:13])[C@:6]1([H:14])[C@@:7]23[H:15]>>[C:1]([C@@:2]1([H:10])[C@@:3]2([H:11])[O:4][C:5]([H:12])([H:13])[C:6]([H:8])([H:14])[C@@:7]12[H:15])[H:9]"
C        1.20054350       1.15165025       0.49461548
C        1.43879791      -0.19284006      -0.09876271
C        0.39515876      -1.27378099       0.22413456
O       -0.57030054      -1.05469992       1.19997940
C       -1.47041049      -0.06761197       0.70963467
C       -0.68870029       0.68342817      -0.35817690
C        0.21020269      -0.40612831      -0.95592584
H       -0.13044914       1.56219692       0.43491625
H        1.69310619       1.87479382      -0.17668452
H        2.42677765      -0.51638974      -0.40656426
H        0.71294806      -2.30451952       0.14258907
H       -1.74825959       0.56432652       1.55410203
H       -2.37056777      -0.53964199       0.29629888
H       -1.27900446       1.25132970      -1.07385815
H        0.18015752      -0.73211288      -1.98629798
15
Frame=7 idx=008457 GeodesicLength=0.4665703327493902 rxn_smarts="[C:1]1([H:8])([H:9])[C@@:2]2([H:10])[C@@:3]3([H:11])[O:4][C:5]([H:12])([H:13])[C@:6]1([H:14])[C@@:7]23[H:15]>>[C:1]([C@@:2]1([H:10])[C@@:3]2([H:11])[O:4][C:5]([H:12])([H:13])[C:6]([H:8])([H:14])[C@@:7]12[H:15])[H:9]"
C        1.18962918       1.14755994       0.48988928
C        1.43957041      -0.19092526      -0.09982331
C        0.39152777      -1.27633819       0.21936706
O       -0.57250245      -1.06135150       1.19449994
C       -1.46888696      -0.06654607       0.71053305
C       -0.69015240       0.68218869      -0.36189010
C        0.20820594      -0.40875223      -0.95797477
H       -0.14452876       1.58943290       0.43322184
H        1.71332312       1.87360820      -0.15316858
H        2.42616339      -0.51768030      -0.40911762
H        0.71755432      -2.30469641       0.14131602
H       -1.73159050       0.56694255       1.55863684
H       -2.37705215      -0.53192827       0.30835732
H       -1.28968356       1.23138927      -1.08484158
H        0.18842265      -0.73290331      -1.98900540
15
Frame=8 idx=008457 GeodesicLength=0.5331983892689404 rxn_smarts="[C:1]1([H:8])([H:9])[C@@:2]2([H:10])[C@@:3]3([H:11])[O:4][C:5]([H:12])([H:13])[C@:6]1([H:14])[C@@:7]23[H:15]>>[C:1]([C@@:2]1([H:10])[C@@:3]2([H:11])[O:4][C:5]([H:12])([H:13])[C:6]([H:8])([H:14])[C@@:7]12[H:15])[H:9]"
C        1.17853689       1.14369452       0.48456239
C        1.44027414      -0.18891245      -0.10109925
C        0.38792449      -1.27887671       0.21455008
O       -0.57467027      -1.06789043       1.18895811
C       -1.46726627      -0.06538635       0.71142821
C       -0.69173663       0.68087499      -0.36585547
C        0.20611143      -0.41152754      -0.96018270
H       -0.15862397       1.61668628       0.43089323
H        1.73355285       1.87202051      -0.12791639
H        2.42548631      -0.51882665      -0.41187031
H        0.72225337      -2.30476220       0.14017129
H       -1.71460433       0.56965075       1.56294427
H       -2.38337165      -0.52404408       0.32076138
H       -1.30039887       1.21121946      -1.09560808
H        0.19653251      -0.73392011      -1.99173676
15
Frame=9 idx=008457 GeodesicLength=0.5998144285720746 rxn_smarts="[C:1]1([H:8])([H:9])[C@@:2]2([H:10])[C@@:3]3([H:11])[O:4][C:5]([H:12])([H:13])[C@:6]1([H:14])[C@@:7]23[H:15]>>[C:1]([C@@:2]1([H:10])[C@@:3]2([H:11])[O:4][C:5]([H:12])([H:13])[C:6]([H:8])([H:14])[C@@:7]12[H:15])[H:9]"
C        1.16729614       1.14005658       0.47863017
C        1.44092014      -0.18677914      -0.10262285
C        0.38436389      -1.28137802       0.20969410
O       -0.57677353      -1.07428152       1.18337906
C       -1.46553564      -0.06412419       0.71232165
C       -0.69344986       0.67949418      -0.37009115
C        0.20391963      -0.41444935      -0.96255947
H       -0.17275543       1.64397989       0.42792917
H        1.75369127       1.86985909      -0.10080932
H        2.42475335      -0.51980578      -0.41487239
H        0.72705435      -2.30470186       0.13917474
H       -1.69729547       0.57247882       1.56700655
H       -2.38950301      -0.51600111       0.33351626
H       -1.31115788       1.19083184      -1.10617528
H        0.20447204      -0.73517944      -1.99452125
15
Frame=10 idx=008457 GeodesicLength=0.6664269242502767 rxn_smarts="[C:1]1([H:8])([H:9])[C@@:2]2([H:10])[C@@:3]3([H:11])[O:4][C:5]([H:12])([H:13])[C@:6]1([H:14])[C@@:7]23[H:15]>>[C:1]([C@@:2]1([H:10])[C@@:3]2([H:11])[O:4][C:5]([H:12])([H:13])[C:6]([H:8])([H:14])[C@@:7]12[H:15])[H:9]"
C        1.15594806       1.13667299       0.47197533
C        1.44150512      -0.18452513      -0.10443958
C        0.38085139      -1.28383410       0.20479954
O       -0.57878777      -1.08048996       1.17777689
C       -1.46368974      -0.06275169       0.71320364
C       -0.69530910       0.67802482      -0.37462287
C        0.20161385      -0.41753939      -0.96511863
H       -0.18690851       1.67130034       0.42434591
H        1.77371589       1.86714082      -0.07160656
H        2.42395456      -0.52063289      -0.41817659
H        0.73196462      -2.30449962       0.13834544
H       -1.67965544       0.57545271       1.57078819
H       -2.39542536      -0.50779939       0.34664052
H       -1.32197984       1.17020508      -1.11656184
H        0.21220228      -0.73672459      -1.99734938
15
Frame=11 idx=008457 GeodesicLength=0.7330289442574429 rxn_smarts="[C:1]1([H:8])([H:9])[C@@:2]2([H:10])[C@@:3]3([H:11])[O:4][C:5]([H:12])([H:13])[C@:6]1([H:14])[C@@:7]23[H:15]>>[C:1]([C@@:2]1([H:10])[C@@:3]2([H:11])[O:4][C:5]([H:12])([H:13])[C:6]([H:8])([H:14])[C@@:7]12[H:15])[H:9]"
C        1.14452744       1.13355489       0.46454898
C        1.44203198      -0.18213926      -0.10658184
C        0.37739693      -1.28623256       0.19987067
O       -0.58068762      -1.08648505       1.17216888
C       -1.46171844      -0.06125974       0.71407131
C       -0.69731757       0.67646302      -0.37946657
C        0.19918856      -0.42080329      -0.96786846
H       -0.20108316       1.69865727       0.42016206
H        1.79354911       1.86377818      -0.04017077
H        2.42308832      -0.52130240      -0.42182528
H        0.73699334      -2.30413950       0.13769680
H       -1.66167812       0.57859815       1.57426314
H       -2.40111547      -0.49944169       0.36013995
H       -1.33287758       1.14933124      -1.12678083
H        0.21970227      -0.73857924      -2.00022805
15
Frame=12 idx=008457 GeodesicLength=0.7996196173230323 rxn_smarts="[C:1]1([H:8])([H:9])[C@@:2]2([H:10])[C@@:3]3([H:11])[O:4][C:5]([H:12])([H:13])[C@:6]1([H:14])[C@@:7]23[H:15]>>[C:1]([C@@:2]1([H:10])[C@@:3]2([H:11])[O:4][C:5]([H:12])([H:13])[C:6]([H:8])([H:14])[C@@:7]12[H:15])[H:9]"
C        1.13306932       1.13071993       0.45627970
C        1.44250544      -0.17960783      -0.10909926
C        0.37401410      -1.28855851       0.19491230
O       -0.58243733      -1.09222517       1.16657822
C       -1.45960509      -0.05963202       0.71492198
C       -0.69948013       0.67480106      -0.38464715
C        0.19663474      -0.42425291      -0.97082408
H       -0.21528225       1.72606782       0.41537514
H        1.81308723       1.85965379      -0.00627531
H        2.42215466      -0.52180433      -0.42588023
H        0.74215386      -2.30360348       0.13724829
H       -1.64334530       0.58195533       1.57740245
H       -2.40654308      -0.49092859       0.37403266
H       -1.34386804       1.12819607      -1.13685258
H        0.22694189      -0.74078117      -2.00317213
15
Frame=13 idx=008457 GeodesicLength=0.8661811403779174 rxn_smarts="[C:1]1([H:8])([H:9])[C@@:2]2([H:10])[C@@:3]3([H:11])[O:4][C:5]([H:12])([H:13])[C@:6]1([H:14])[C@@:7]23[H:15]>>[C:1]([C@@:2]1([H:10])[C@@:3]2([H:11])[O:4][C:5]([H:12])([H:13])[C:6]([H:8])([H:14])[C@@:7]12[H:15])[H:9]"
C        1.12160940       1.12818567       0.44710230
C        1.44293168      -0.17692120      -0.11204071
C        0.37071805      -1.29079716       0.18992705
O       -0.58399924      -1.09766958       1.16102581
C       -1.45733077      -0.05785146       0.71575326
C       -0.70179888       0.67303217      -0.39018615
C        0.19394471      -0.42790009      -0.97399716
H       -0.22950922       1.75354977       0.40997971
H        1.83220576       1.85464290       0.03029284
H        2.42115497      -0.52213235      -0.43040128
H        0.74746208      -2.30287045       0.13701448
H       -1.62463774       0.58556485       1.58017857
H       -2.41167522      -0.48225156       0.38833392
H       -1.35496829       1.10678252      -1.14679372
H        0.23389272      -0.74336403      -2.00618892
15
Frame=14 idx=008457 GeodesicLength=0.9327030311354388 rxn_smarts="[C:1]1([H:8])([H:9])[C@@:2]2([H:10])[C@@:3]3([H:11])[O:4][C:5]([H:12])([H:13])[C@:6]1([H:14])[C@@:7]23[H:15]>>[C:1]([C@@:2]1([H:10])[C@@:3]2([H:11])[O:4][C:5]([H:12])([H:13])[C:6]([H:8])([H:14])[C@@:7]12[H:15])[H:9]"
C        1.11018598       1.12598018       0.43691137
C        1.44331444      -0.17406552      -0.11548319
C        0.36753181      -1.29292580       0.18491500
O       -0.58531401      -1.10275382       1.15553715
C       -1.45486146      -0.05588577       0.71656265
C       -0.70427867       0.67114474      -0.39611784
C        0.19110654      -0.43176501      -0.97740779
H       -0.24377213       1.78112972       0.40393866
H        1.85072634       1.84855812       0.06989522
H        2.42008561      -0.52227544      -0.43548097
H        0.75294514      -2.30190994       0.13701411
H       -1.60551700       0.58949462       1.58255079
H       -2.41646134      -0.47339453       0.40307726
H       -1.36620529       1.08505509      -1.15662241
H        0.24051404      -0.74638664      -2.00929003
15
Frame=15 idx=008457 GeodesicLength=0.9991724535690167 rxn_smarts="[C:1]1([H:8])([H:9])[C@@:2]2([H:10])[C@@:3]3([H:11])[O:4][C:5]([H:12])([H:13])[C@:6]1([H:14])[C@@:7]23[H:15]>>[C:1]([C@@:2]1([H:10])[C@@:3]2([H:11])[O:4][C:5]([H:12])([H:13])[C:6]([H:8])([H:14])[C@@:7]12[H:15])[H:9]"
C        1.09882906       1.12413990       0.42557142
C        1.44366263      -0.17102530      -0.11952624
C        0.36448850      -1.29491519       0.17987534
O       -0.58630066      -1.10739762       1.15014316
C       -1.45215218      -0.05369362       0.71735026
C       -0.70692821       0.66912554      -0.40248774
C        0.18810324      -0.43587269      -0.98107964
H       -0.25808349       1.80884438       0.39717883
H        1.86842799       1.84114469       0.11300573
H        2.41894822      -0.52221688      -0.44123838
H        0.75864471      -2.30068251       0.13727383
H       -1.58592952       0.59382885       1.58447196
H       -2.42084204      -0.46433236       0.41830950
H       -1.37761667       1.06297165      -1.16636125
H        0.24674843      -0.74991884      -2.01248678
15
Frame=16 idx=008457 GeodesicLength=1.065622554092316 rxn_smarts="[C:1]1([H:8])([H:9])[C@@:2]2([H:10])[C@@:3]3([H:11])[O:4][C:5]([H:12])([H:13])[C@:6]1([H:14])[C@@:7]23[H:15]>>[C:1]([C@@:2]1([H:10])[C@@:3]2([H:11])[O:4][C:5]([H:12])([H:13])[C:6]([H:8])([H:14])[C@@:7]12[H:15])[H:9]"
C        1.08757364       1.12272022       0.41287692
C        1.44399438      -0.16776484      -0.12431260
C        0.36162732      -1.29673239       0.17481377
O       -0.58685413      -1.11150069       1.14490859
C       -1.44914064      -0.05121880       0.71812707
C       -0.70975724       0.66696148      -0.40937553
C        0.18490570      -0.44026268      -0.98506371
H       -0.27244886       1.83675747       0.38956855
H        1.88503250       1.83207140       0.16035252
H        2.41775100      -0.52191312      -0.44785245
H        0.76460710      -2.29915103       0.13784320
H       -1.56578955       0.59868568       1.58590055
H       -2.42475060      -0.45504659       0.43411111
H       -1.38925359       1.04047014      -1.17606465
H        0.25250297      -0.75407625      -2.01583335
