14
Frame=0 idx=005617 GeodesicLength=0.0 rxn_smarts="[C:1]([C:2]1([H:10])[O:3][C:4]([H:11])([H:12])[C:5]([H:13])([H:14])[O:6]1)([H:7])([H:8])[H:9]>>[C:1]([H:7])([H:8])([H:9])[H:13].[C:2]1([H:10])=[O+:6][C-:5]([H:14])[C:4]([H:11])([H:12])[O:3]1"
C       -1.38737105      -0.06428360       1.05050116
C       -0.29516687      -0.84531172      -0.85851720
O       -0.10450878       0.32324195      -1.44928539
C        1.09491371       0.89113800      -0.82806027
C        1.27123062      -0.06823326       0.33313787
O        0.72713420      -1.27466695      -0.20906718
H       -1.64600776      -1.03415206       1.47839525
H       -2.15409958       0.22887590       0.33201663
H       -1.43351341       0.67663704       1.85612933
H       -1.03046753      -1.52386341      -1.26542504
H        1.87570572       0.91067625      -1.59891322
H        0.86872122       1.91026495      -0.51189577
H       -0.05346327       0.11078957       0.94620244
H        2.26689277      -0.24111268       0.72478141
14
Frame=1 idx=005617 GeodesicLength=0.08577411598282103 rxn_smarts="[C:1]([C:2]1([H:10])[O:3][C:4]([H:11])([H:12])[C:5]([H:13])([H:14])[O:6]1)([H:7])([H:8])[H:9]>>[C:1]([H:7])([H:8])([H:9])[H:13].[C:2]1([H:10])=[O+:6][C-:5]([H:14])[C:4]([H:11])([H:12])[O:3]1"
C       -1.39827755      -0.07296817       1.04581104
C       -0.30391993      -0.83124673      -0.85313875
O       -0.10357735       0.33889036      -1.44159124
C        1.10335772       0.89367498      -0.82506283
C        1.28169395      -0.07163200       0.33167823
O        0.72099258      -1.27190684      -0.21074987
H       -1.64162770      -1.02509081       1.52000781
H       -2.19255029       0.16683218       0.33659186
H       -1.45656669       0.71247845       1.80683750
H       -1.02518340      -1.51264305      -1.28094772
H        1.88020927       0.91217591      -1.60001751
H        0.88605655       1.91280868      -0.50279544
H       -0.03584653       0.11036680       0.97778120
H        2.28523938      -0.26173976       0.69559569
14
Frame=2 idx=005617 GeodesicLength=0.1713548124785805 rxn_smarts="[C:1]([C:2]1([H:10])[O:3][C:4]([H:11])([H:12])[C:5]([H:13])([H:14])[O:6]1)([H:7])([H:8])[H:9]>>[C:1]([H:7])([H:8])([H:9])[H:13].[C:2]1([H:10])=[O+:6][C-:5]([H:14])[C:4]([H:11])([H:12])[O:3]1"
C       -1.40926001      -0.08213214       1.04120186
C       -0.31274096      -0.81706710      -0.84780438
O       -0.10270096       0.35468284      -1.43376416
C        1.11162880       0.89623969      -0.82198796
C        1.29175485      -0.07497148       0.33034008
O        0.71456955      -1.26891510      -0.21227721
H       -1.63794624      -1.01338712       1.56196506
H       -2.22848055       0.10385178       0.34308477
H       -1.47885563       0.74595117       1.75411157
H       -1.01984572      -1.50069734      -1.29631213
H        1.88458012       0.91370078      -1.60095947
H        0.90326882       1.91530118      -0.49368805
H       -0.01814397       0.10956170       1.00968393
H        2.30217191      -0.28211883       0.66640609
14
Frame=3 idx=005617 GeodesicLength=0.25673165735699194 rxn_smarts="[C:1]([C:2]1([H:10])[O:3][C:4]([H:11])([H:12])[C:5]([H:13])([H:14])[O:6]1)([H:7])([H:8])[H:9]>>[C:1]([H:7])([H:8])([H:9])[H:13].[C:2]1([H:10])=[O+:6][C-:5]([H:14])[C:4]([H:11])([H:12])[O:3]1"
C       -1.42034364      -0.09191564       1.03676518
C       -0.32162927      -0.80278935      -0.84249079
O       -0.10185795       0.37055520      -1.42586327
C        1.11973295       0.89881723      -0.81890927
C        1.30140433      -0.07817862       0.32912798
O        0.70787105      -1.26566253      -0.21358020
H       -1.63519658      -0.99915845       1.60394057
H       -2.26167587       0.04053748       0.35146356
H       -1.50033062       0.77645324       1.69834688
H       -1.01451697      -1.48805343      -1.31140245
H        1.88884054       0.91517407      -1.60179945
H        0.92036851       1.91775949      -0.48473748
H       -0.00034173       0.10858628       1.04181337
H        2.31767524      -0.30212498       0.63732536
14
Frame=4 idx=005617 GeodesicLength=0.34195598869173477 rxn_smarts="[C:1]([C:2]1([H:10])[O:3][C:4]([H:11])([H:12])[C:5]([H:13])([H:14])[O:6]1)([H:7])([H:8])[H:9]>>[C:1]([H:7])([H:8])([H:9])[H:13].[C:2]1([H:10])=[O+:6][C-:5]([H:14])[C:4]([H:11])([H:12])[O:3]1"
C       -1.43152616      -0.10240151       1.03257800
C       -0.33056724      -0.78842566      -0.83716734
O       -0.10102017       0.38644501      -1.41793306
C        1.12768101       0.90138898      -0.81589667
C        1.31066290      -0.08119774       0.32803293
O        0.70091934      -1.26212397      -0.21459596
H       -1.63359916      -0.98251850       1.64559953
H       -2.29211213      -0.02254877       0.36158900
H       -1.52100256       0.80342515       1.64004834
H       -1.00923044      -1.47473963      -1.32609038
H        1.89299979       0.91652538      -1.60260988
H        0.93737068       1.92018847      -0.47608016
H        0.01764787       0.10765566       1.07411532
H        2.33177626      -0.32167287       0.60841032
14
Frame=5 idx=005617 GeodesicLength=0.42716660760486375 rxn_smarts="[C:1]([C:2]1([H:10])[O:3][C:4]([H:11])([H:12])[C:5]([H:13])([H:14])[O:6]1)([H:7])([H:8])[H:9]>>[C:1]([H:7])([H:8])([H:9])[H:13].[C:2]1([H:10])=[O+:6][C-:5]([H:14])[C:4]([H:11])([H:12])[O:3]1"
C       -1.44284913      -0.11354119       1.02863780
C       -0.33953579      -0.77398997      -0.83177874
O       -0.10017527       0.40231034      -1.40999391
C        1.13549814       0.90395944      -0.81302042
C        1.31960567      -0.08398243       0.32702563
O        0.69374570      -1.25827520      -0.21523883
H       -1.63349656      -0.96362222       1.68658460
H       -2.31990235      -0.08505347       0.37321261
H       -1.54074609       0.82646762       1.57988055
H       -1.00400952      -1.46084022      -1.34026526
H        1.89708081       0.91772002      -1.60347414
H        0.95429448       1.92261058      -0.46784320
H        0.03588056       0.10694844       1.10663500
H        2.34460936      -0.34071173       0.57963831
14
Frame=6 idx=005617 GeodesicLength=0.5122758190279796 rxn_smarts="[C:1]([C:2]1([H:10])[O:3][C:4]([H:11])([H:12])[C:5]([H:13])([H:14])[O:6]1)([H:7])([H:8])[H:9]>>[C:1]([H:7])([H:8])([H:9])[H:13].[C:2]1([H:10])=[O+:6][C-:5]([H:14])[C:4]([H:11])([H:12])[O:3]1"
C       -1.45428055      -0.12539981       1.02499982
C       -0.34851659      -0.75952794      -0.82631863
O       -0.09930741       0.41806814      -1.40210236
C        1.14316155       0.90650933      -0.81031963
C        1.32825320      -0.08651560       0.32608949
O        0.68639586      -1.25413356      -0.21550187
H       -1.63499056      -0.94250588       1.72650689
H       -2.34490316      -0.14637806       0.38621055
H       -1.55973737       0.84520721       1.51837096
H       -0.99889917      -1.44643401      -1.35380615
H        1.90105667       0.91874913      -1.60443214
H        0.97108449       1.92501288      -0.46008823
H        0.05449885       0.10652096       1.13931301
H        2.35618418      -0.35917279       0.55107829
14
Frame=7 idx=005617 GeodesicLength=0.5973130818003656 rxn_smarts="[C:1]([C:2]1([H:10])[O:3][C:4]([H:11])([H:12])[C:5]([H:13])([H:14])[O:6]1)([H:7])([H:8])[H:9]>>[C:1]([H:7])([H:8])([H:9])[H:13].[C:2]1([H:10])=[O+:6][C-:5]([H:14])[C:4]([H:11])([H:12])[O:3]1"
C       -1.46581916      -0.13792542       1.02165282
C       -0.35748198      -0.74508029      -0.82075952
O       -0.09840479       0.43365030      -1.39429133
C        1.15066176       0.90903168      -0.80783186
C        1.33666284      -0.08878407       0.32519330
O        0.67892064      -1.24971238      -0.21535356
H       -1.63824376      -0.91926706       1.76502703
H       -2.36718863      -0.20610219       0.40031981
H       -1.57804114       0.85940168       1.45617648
H       -0.99391413      -1.43162621      -1.36662036
H        1.90490819       0.91961345      -1.60553091
H        0.98769709       1.92739387      -0.45286837
H        0.07364660       0.10643209       1.17216202
H        2.36659648      -0.37702546       0.52272443
14
Frame=8 idx=005617 GeodesicLength=0.6823149726784535 rxn_smarts="[C:1]([C:2]1([H:10])[O:3][C:4]([H:11])([H:12])[C:5]([H:13])([H:14])[O:6]1)([H:7])([H:8])[H:9]>>[C:1]([H:7])([H:8])([H:9])[H:13].[C:2]1([H:10])=[O+:6][C-:5]([H:14])[C:4]([H:11])([H:12])[O:3]1"
C       -1.47743225      -0.15104171       1.01860003
C       -0.36639394      -0.73069242      -0.81507792
O       -0.09745803       0.44899330      -1.38657485
C        1.15798296       0.91152061      -0.80557571
C        1.34489524      -0.09079082       0.32430558
O        0.67138355      -1.24503672      -0.21477930
H       -1.64340347      -0.89396686       1.80177090
H       -2.38698053      -0.26394471       0.41528778
H       -1.59569271       0.86897616       1.39390596
H       -0.98903850      -1.41652259      -1.37861972
H        1.90860061       0.92033539      -1.60680612
H        1.00407714       1.92974196      -0.44618792
H        0.09352789       0.10667950       1.20520843
H        2.37593204      -0.39425108       0.49454287
14
Frame=9 idx=005617 GeodesicLength=0.7674159464089548 rxn_smarts="[C:1]([C:2]1([H:10])[O:3][C:4]([H:11])([H:12])[C:5]([H:13])([H:14])[O:6]1)([H:7])([H:8])[H:9]>>[C:1]([H:7])([H:8])([H:9])[H:13].[C:2]1([H:10])=[O+:6][C-:5]([H:14])[C:4]([H:11])([H:12])[O:3]1"
C       -1.48917843      -0.16454171       1.01571293
C       -0.37525141      -0.71638523      -0.80922550
O       -0.09649342       0.46408144      -1.37894271
C        1.16513598       0.91399298      -0.80357321
C        1.35304786      -0.09254348       0.32338951
O        0.66380624      -1.24009918      -0.21372050
H       -1.65060963      -0.86687351       1.83650306
H       -2.40453006      -0.32000781       0.43077527
H       -1.61258589       0.87424829       1.33217440
H       -0.98428943      -1.40123383      -1.38976373
H        1.91213993       0.92095363      -1.60829255
H        1.02021469       1.93206311      -0.44007068
H        0.11422630       0.10723699       1.23860311
H        2.38436727      -0.41089169       0.46643059
14
Frame=10 idx=005617 GeodesicLength=0.85253520294711 rxn_smarts="[C:1]([C:2]1([H:10])[O:3][C:4]([H:11])([H:12])[C:5]([H:13])([H:14])[O:6]1)([H:7])([H:8])[H:9]>>[C:1]([H:7])([H:8])([H:9])[H:13].[C:2]1([H:10])=[O+:6][C-:5]([H:14])[C:4]([H:11])([H:12])[O:3]1"
C       -1.50098820      -0.17839342       1.01303209
C       -0.38399745      -0.70221667      -0.80320186
O       -0.09549800       0.47883653      -1.37139068
C        1.17207099       0.91642279      -0.80180102
C        1.36113943      -0.09407323       0.32241127
O        0.65627387      -1.23495002      -0.21222245
H       -1.65979571      -0.83801521       1.86895414
H       -2.42012086      -0.37399046       0.44652259
H       -1.62888846       0.87534017       1.27141297
H       -0.97960486      -1.38584673      -1.39998944
H        1.91544669       0.92149889      -1.60998402
H        1.03600083       1.93431455      -0.43444058
H        0.13605205       0.10799910       1.27231731
H        2.39190968      -0.42692631       0.43837966
14
Frame=11 idx=005617 GeodesicLength=0.9376680954757708 rxn_smarts="[C:1]([C:2]1([H:10])[O:3][C:4]([H:11])([H:12])[C:5]([H:13])([H:14])[O:6]1)([H:7])([H:8])[H:9]>>[C:1]([H:7])([H:8])([H:9])[H:13].[C:2]1([H:10])=[O+:6][C-:5]([H:14])[C:4]([H:11])([H:12])[O:3]1"
C       -1.51287434      -0.19245739       1.01047243
C       -0.39261648      -0.68823507      -0.79699779
O       -0.09449709       0.49323004      -1.36390881
C        1.17877012       0.91881811      -0.80024295
C        1.36923086      -0.09541473       0.32134274
O        0.64882511      -1.22962679      -0.21028250
H       -1.67089942      -0.80748827       1.89896340
H       -2.43399300      -0.42596364       0.46228754
H       -1.64469116       0.87267030       1.21200819
H       -0.97497471      -1.37047109      -1.40929741
H        1.91849166       0.92203876      -1.61187871
H        1.05138443       1.93649345      -0.42924013
H        0.15918521       0.10879678       1.30644678
H        2.39865879      -0.44239045       0.41032724
14
Frame=12 idx=005617 GeodesicLength=1.0228286473862513 rxn_smarts="[C:1]([C:2]1([H:10])[O:3][C:4]([H:11])([H:12])[C:5]([H:13])([H:14])[O:6]1)([H:7])([H:8])[H:9]>>[C:1]([H:7])([H:8])([H:9])[H:13].[C:2]1([H:10])=[O+:6][C-:5]([H:14])[C:4]([H:11])([H:12])[O:3]1"
C       -1.52484393      -0.20659379       1.00800705
C       -0.40108216      -0.67449157      -0.79058261
O       -0.09351688       0.50722858      -1.35646287
C        1.18519959       0.92118574      -0.79887624
C        1.37737809      -0.09659150       0.32015742
O        0.64150892      -1.22416472      -0.20788149
H       -1.68395907      -0.77541004       1.92623108
H       -2.44640793      -0.47593654       0.47797184
H       -1.66000280       0.86657903       1.15421398
H       -0.97034876      -1.35522390      -1.41767079
H        1.92121073       0.92262985      -1.61397830
H        1.06629239       1.93859554      -0.42439994
H        0.18387828       0.10949571       1.34105916
H        2.40469355      -0.45730239       0.38221171
14
Frame=13 idx=005617 GeodesicLength=1.1080574607036033 rxn_smarts="[C:1]([C:2]1([H:10])[O:3][C:4]([H:11])([H:12])[C:5]([H:13])([H:14])[O:6]1)([H:7])([H:8])[H:9]>>[C:1]([H:7])([H:8])([H:9])[H:13].[C:2]1([H:10])=[O+:6][C-:5]([H:14])[C:4]([H:11])([H:12])[O:3]1"
C       -1.53698840      -0.22058993       1.00542521
C       -0.40941755      -0.66100734      -0.78395555
O       -0.09258754       0.52084779      -1.34905030
C        1.19137700       0.92355470      -0.79769388
C        1.38564584      -0.09762236       0.31884436
O        0.63429885      -1.21856124      -0.20497050
H       -1.69879873      -0.74207184       1.95085623
H       -2.45773653      -0.52425998       0.49340206
H       -1.67477092       0.85774605       1.09820423
H       -0.96571792      -1.34022089      -1.42517590
H        1.92363305       0.92334519      -1.61627411
H        1.08073552       1.94063545      -0.41989309
H        0.21022123       0.10992209       1.37631456
H        2.41010611      -0.47171769       0.35396667
14
Frame=14 idx=005617 GeodesicLength=1.1932533328652806 rxn_smarts="[C:1]([C:2]1([H:10])[O:3][C:4]([H:11])([H:12])[C:5]([H:13])([H:14])[O:6]1)([H:7])([H:8])[H:9]>>[C:1]([H:7])([H:8])([H:9])[H:13].[C:2]1([H:10])=[O+:6][C-:5]([H:14])[C:4]([H:11])([H:12])[O:3]1"
C       -1.54928371      -0.23439877       1.00278276
C       -0.41757940      -0.64784531      -0.77710592
O       -0.09173669       0.53404173      -1.34162532
C        1.19723500       0.92591641      -0.79664316
C        1.39404118      -0.09854637       0.31738054
O        0.62726381      -1.21287744      -0.20156832
H       -1.71535832      -0.70744582       1.97255474
H       -2.46808085      -0.57078809       0.50856269
H       -1.68919771       0.84641948       1.04401781
H       -0.96101097      -1.32554315      -1.43180056
H        1.92565756       0.92423207      -1.61873428
H        1.09459300       1.94259426      -0.41560116
H        0.23855413       0.10987316       1.41221640
H        2.41490297      -0.48563217       0.32556378
14
Frame=15 idx=005617 GeodesicLength=1.2783856610914799 rxn_smarts="[C:1]([C:2]1([H:10])[O:3][C:4]([H:11])([H:12])[C:5]([H:13])([H:14])[O:6]1)([H:7])([H:8])[H:9]>>[C:1]([H:7])([H:8])([H:9])[H:13].[C:2]1([H:10])=[O+:6][C-:5]([H:14])[C:4]([H:11])([H:12])[O:3]1"
C       -1.56178002      -0.24788095       1.00001568
C       -0.42557491      -0.63503874      -0.77001749
O       -0.09099716       0.54680628      -1.33415981
C        1.20275642       0.92828500      -0.79569437
C        1.40259123      -0.09937854       0.31576685
O        0.62039831      -1.20713349      -0.19763294
H       -1.73343006      -0.67172497       1.99123323
H       -2.47767533      -0.61565163       0.52341896
H       -1.70338095       0.83307901       0.99160964
H       -0.95620468      -1.31127920      -1.43756751
H        1.92725733       0.92534074      -1.62133969
H        1.10783578       1.94448479      -0.41146531
H        0.26908600       0.10916778       1.44885888
H        2.41911804      -0.49907609       0.29697388
14
Frame=16 idx=005617 GeodesicLength=1.3634320857800128 rxn_smarts="[C:1]([C:2]1([H:10])[O:3][C:4]([H:11])([H:12])[C:5]([H:13])([H:14])[O:6]1)([H:7])([H:8])[H:9]>>[C:1]([H:7])([H:8])([H:9])[H:13].[C:2]1([H:10])=[O+:6][C-:5]([H:14])[C:4]([H:11])([H:12])[O:3]1"
C       -1.57455915      -0.26090770       0.99701213
C       -0.43341000      -0.62262557      -0.76270315
O       -0.09039603       0.55913851      -1.32665471
C        1.20792527       0.93068113      -0.79482558
C        1.41130775      -0.10012448       0.31401024
O        0.61369129      -1.20134642      -0.19311911
H       -1.75282647      -0.63510469       2.00689165
H       -2.48672710      -0.65892847       0.53800406
H       -1.71737146       0.81814051       0.94092189
H       -0.95125293      -1.29753448      -1.44254370
H        1.92842181       0.92672046      -1.62406463
H        1.12042696       1.94632895      -0.40744395
H        0.30200540       0.10762442       1.48631300
H        2.42276466      -0.51206218       0.26820186
