8
Frame=0 idx=000358 GeodesicLength=0.0 rxn_smarts="[n:1]1([H:6])[c:2]([H:7])[c:3]([H:8])[n:4][n:5]1>>[n:1]1[c:2]([H:7])[c:3]([H:8])[n:4][n:5]1[H:6]"
N       -1.10398552       0.26598212       0.42543651
C        0.05223878       0.86353783       0.12979753
C        0.98490112      -0.12288685      -0.13006102
N        0.38437211      -1.31263869      -0.09663788
N       -0.85400237      -1.12697587       0.27750176
H       -1.65408260      -0.47109441      -0.40665608
H        0.15145945       1.93682879       0.14083718
H        2.03909903      -0.03275295      -0.34021800
8
Frame=1 idx=000358 GeodesicLength=0.047097520466870914 rxn_smarts="[n:1]1([H:6])[c:2]([H:7])[c:3]([H:8])[n:4][n:5]1>>[n:1]1[c:2]([H:7])[c:3]([H:8])[n:4][n:5]1[H:6]"
N       -1.09773461       0.26428372       0.41532818
C        0.05590124       0.86522344       0.11910171
C        0.98924665      -0.12052168      -0.14077867
N        0.38890056      -1.31086549      -0.10486245
N       -0.84827372      -1.12204872       0.26788365
H       -1.69353401      -0.48148074      -0.38392428
H        0.15559435       1.93817139       0.14355554
H        2.04989955      -0.03276192      -0.31630367
8
Frame=2 idx=000358 GeodesicLength=0.09413825784722848 rxn_smarts="[n:1]1([H:6])[c:2]([H:7])[c:3]([H:8])[n:4][n:5]1>>[n:1]1[c:2]([H:7])[c:3]([H:8])[n:4][n:5]1[H:6]"
N       -1.09192710       0.26277257       0.40299395
C        0.05998889       0.86690317       0.10922773
C        0.99450431      -0.11829456      -0.14852323
N        0.39383914      -1.30906217      -0.11244447
N       -0.84297041      -1.11698295       0.25602644
H       -1.73309555      -0.49217265      -0.35905725
H        0.15988600       1.93940486       0.14611787
H        2.05977471      -0.03256827      -0.29434104
8
Frame=3 idx=000358 GeodesicLength=0.14109316507023822 rxn_smarts="[n:1]1([H:6])[c:2]([H:7])[c:3]([H:8])[n:4][n:5]1>>[n:1]1[c:2]([H:7])[c:3]([H:8])[n:4][n:5]1[H:6]"
N       -1.08660592       0.26138077       0.38837242
C        0.06457148       0.86852496       0.10065455
C        1.00065415      -0.11624432      -0.15302891
N        0.39923837      -1.30728841      -0.11912123
N       -0.83824812      -1.11181149       0.24136121
H       -1.77276998      -0.50296474      -0.33182046
H        0.16410667       1.94057071       0.14819661
H        2.06905335      -0.03216748      -0.27461419
8
Frame=4 idx=000358 GeodesicLength=0.1879271084401784 rxn_smarts="[n:1]1([H:6])[c:2]([H:7])[c:3]([H:8])[n:4][n:5]1>>[n:1]1[c:2]([H:7])[c:3]([H:8])[n:4][n:5]1[H:6]"
N       -1.08192683       0.26028827       0.37063816
C        0.06957725       0.87016798       0.09291925
C        1.00746797      -0.11431891      -0.15509092
N        0.40512445      -1.30556732      -0.12445733
N       -0.83412017      -1.10640647       0.22383359
H       -1.81262966      -0.51427286      -0.30164656
H        0.16851016       1.94170096       0.15062231
H        2.07799684      -0.03159164      -0.25681848
8
Frame=5 idx=000358 GeodesicLength=0.2345970030880533 rxn_smarts="[n:1]1([H:6])[c:2]([H:7])[c:3]([H:8])[n:4][n:5]1>>[n:1]1[c:2]([H:7])[c:3]([H:8])[n:4][n:5]1[H:6]"
N       -1.07801139       0.25959968       0.34896228
C        0.07500129       0.87185263       0.08595835
C        1.01481662      -0.11251458      -0.15503261
N        0.41157541      -1.30396236      -0.12777654
N       -0.83067188      -1.10068503       0.20291978
H       -1.85263748      -0.52624882      -0.26790022
H        0.17318674       1.94278378       0.15390184
H        2.08674069      -0.03082530      -0.24103289
8
Frame=6 idx=000358 GeodesicLength=0.28102424148548133 rxn_smarts="[n:1]1([H:6])[c:2]([H:7])[c:3]([H:8])[n:4][n:5]1>>[n:1]1[c:2]([H:7])[c:3]([H:8])[n:4][n:5]1[H:6]"
N       -1.07501935       0.25947110       0.32202159
C        0.08081495       0.87360679       0.07960448
C        1.02257263      -0.11084190      -0.15311834
N        0.41869765      -1.30256956      -0.12788021
N       -0.82801436      -1.09453187       0.17781161
H       -1.89265371      -0.53906515      -0.22971740
H        0.17827298       1.94375226       0.15891623
H        2.09532921      -0.02982166      -0.22763798
8
Frame=7 idx=000358 GeodesicLength=0.32701836398942374 rxn_smarts="[n:1]1([H:6])[c:2]([H:7])[c:3]([H:8])[n:4][n:5]1>>[n:1]1[c:2]([H:7])[c:3]([H:8])[n:4][n:5]1[H:6]"
N       -1.07295730       0.25993084       0.28851995
C        0.08709762       0.87535482       0.07440537
C        1.03065081      -0.10933496      -0.14956442
N        0.42649452      -1.30146539      -0.12387801
N       -0.82625719      -1.08788538       0.14671456
H       -1.93238943      -0.55256991      -0.18536289
H        0.18351978       1.94456922       0.16565494
H        2.10384119      -0.02859925      -0.21648949
8
Frame=8 idx=000358 GeodesicLength=0.3720474144902084 rxn_smarts="[n:1]1([H:6])[c:2]([H:7])[c:3]([H:8])[n:4][n:5]1>>[n:1]1[c:2]([H:7])[c:3]([H:8])[n:4][n:5]1[H:6]"
N       -1.07266616       0.26187368       0.24263427
C        0.09369999       0.87733400       0.07026660
C        1.03867158      -0.10795532      -0.14477686
N        0.43484258      -1.30064886      -0.11142930
N       -0.82542069      -1.08030039       0.10948762
H       -1.97060254      -0.56792347      -0.13381133
H        0.18963088       1.94496427       0.17829605
H        2.11184435      -0.02734390      -0.21066705
8
Frame=9 idx=000358 GeodesicLength=0.4143037821104082 rxn_smarts="[n:1]1([H:6])[c:2]([H:7])[c:3]([H:8])[n:4][n:5]1>>[n:1]1[c:2]([H:7])[c:3]([H:8])[n:4][n:5]1[H:6]"
N       -1.07274837       0.26400743       0.18800923
C        0.10073467       0.87842813       0.07233561
C        1.04691008      -0.10733111      -0.13502199
N        0.44239266      -1.30014606      -0.09475996
N       -0.82567822      -1.07223615       0.05940736
H       -2.00447946      -0.58190776      -0.07092710
H        0.19340056       1.94538315       0.18855583
H        2.11946807      -0.02619764      -0.20759898
8
Frame=10 idx=000358 GeodesicLength=0.45151999760547346 rxn_smarts="[n:1]1([H:6])[c:2]([H:7])[c:3]([H:8])[n:4][n:5]1>>[n:1]1[c:2]([H:7])[c:3]([H:8])[n:4][n:5]1[H:6]"
N       -1.07369706       0.26726193       0.11827441
C        0.10584428       0.87929750       0.07470582
C        1.05431734      -0.10714366      -0.11863805
N        0.44667453      -1.29910571      -0.07933624
N       -0.82640626      -1.06324201      -0.00162868
H       -2.02786647      -0.59555792       0.00980835
H        0.19528319       1.94535864       0.19985594
H        2.12585046      -0.02686877      -0.20304154
8
Frame=11 idx=000358 GeodesicLength=0.48500063475390864 rxn_smarts="[n:1]1([H:6])[c:2]([H:7])[c:3]([H:8])[n:4][n:5]1>>[n:1]1[c:2]([H:7])[c:3]([H:8])[n:4][n:5]1[H:6]"
N       -1.07419359       0.27027661       0.04741236
C        0.10808263       0.87836529       0.08515852
C        1.05956159      -0.10869770      -0.09045421
N        0.44589028      -1.29884264      -0.07058483
N       -0.82789673      -1.05408422      -0.06870226
H       -2.03269027      -0.60415770       0.09544523
H        0.19270841       1.94560567       0.20222855
H        2.12853768      -0.02846531      -0.20050337
8
Frame=12 idx=000358 GeodesicLength=0.5210700313373317 rxn_smarts="[n:1]1([H:6])[c:2]([H:7])[c:3]([H:8])[n:4][n:5]1>>[n:1]1[c:2]([H:7])[c:3]([H:8])[n:4][n:5]1[H:6]"
N       -1.07443970       0.27239948      -0.01350425
C        0.10668147       0.87722197       0.08942224
C        1.06073769      -0.11047821      -0.06999970
N        0.44152105      -1.29880383      -0.06762240
N       -0.82966162      -1.04572483      -0.12608706
H       -2.02170159      -0.60818112       0.17325126
H        0.18834299       1.94477863       0.20489338
H        2.12851970      -0.03121209      -0.19035347
8
Frame=13 idx=000358 GeodesicLength=0.5595166235255873 rxn_smarts="[n:1]1([H:6])[c:2]([H:7])[c:3]([H:8])[n:4][n:5]1>>[n:1]1[c:2]([H:7])[c:3]([H:8])[n:4][n:5]1[H:6]"
N       -1.07406454       0.27325406      -0.06102780
C        0.10400630       0.87593167       0.09150640
C        1.05995927      -0.11214493      -0.05646534
N        0.43621007      -1.29899673      -0.06435429
N       -0.83107452      -1.03875449      -0.16880169
H       -2.00532945      -0.60871922       0.23215516
H        0.18318667       1.94339447       0.20877654
H        2.12710620      -0.03396485      -0.18178896
8
Frame=14 idx=000358 GeodesicLength=0.5985421510236667 rxn_smarts="[n:1]1([H:6])[c:2]([H:7])[c:3]([H:8])[n:4][n:5]1>>[n:1]1[c:2]([H:7])[c:3]([H:8])[n:4][n:5]1[H:6]"
N       -1.07350048       0.27329613      -0.09761434
C        0.10106694       0.87483536       0.09176240
C        1.05839161      -0.11345345      -0.04850686
N        0.43067634      -1.29909277      -0.06176879
N       -0.83227467      -1.03245154      -0.20267243
H       -1.98806697      -0.60824584       0.27897260
H        0.17805004       1.94200126       0.21233659
H        2.12565720      -0.03688914      -0.17250917
8
Frame=15 idx=000358 GeodesicLength=0.6377282034148191 rxn_smarts="[n:1]1([H:6])[c:2]([H:7])[c:3]([H:8])[n:4][n:5]1>>[n:1]1[c:2]([H:7])[c:3]([H:8])[n:4][n:5]1[H:6]"
N       -1.07285837       0.27277203      -0.12886202
C        0.09807003       0.87387780       0.09001562
C        1.05649981      -0.11453634      -0.04442170
N        0.42520260      -1.29915335      -0.06038061
N       -0.83348725      -1.02684035      -0.23033868
H       -1.97054287      -0.60671018       0.31935199
H        0.17264927       1.94042556       0.21656220
H        2.12446678      -0.03983517      -0.16192679
8
Frame=16 idx=000358 GeodesicLength=0.676984746982299 rxn_smarts="[n:1]1([H:6])[c:2]([H:7])[c:3]([H:8])[n:4][n:5]1>>[n:1]1[c:2]([H:7])[c:3]([H:8])[n:4][n:5]1[H:6]"
N       -1.07225530       0.27196810      -0.15580004
C        0.09509932       0.87298757       0.08781427
C        1.05443889      -0.11549448      -0.04227210
N        0.41971989      -1.29916459      -0.05996977
N       -0.83474091      -1.02147961      -0.25464096
H       -1.95287036      -0.60489345       0.35536030
H        0.16726928       1.93889998       0.22014846
H        2.12333919      -0.04282352      -0.15064016
