14
Frame=0 idx=006651 GeodesicLength=0.0 rxn_smarts="[C:1]1([H:8])([H:9])[N:2]([H:10])[C@:3]12[C@:4]1([H:11])[C:5]([H:12])([H:13])[C@@:6]2([H:14])[O:7]1>>[C:1]1([H:8])([H:9])[N:2]([H:10])[C@@:3]12[C@@:4]([O:7][H:13])([H:11])[C:5]([H:12])=[C:6]2[H:14]"
C       -1.57985914      -0.81002801      -0.28407237
N       -1.78991456       0.62991654      -0.02528997
C       -0.45852202       0.09608386      -0.06012150
C        0.70240268       0.05282263       0.91046056
C        1.67938872      -0.48678926      -0.14330628
C        0.75468231       0.50252714      -0.86524547
O        1.15039206       1.43985362       0.33665811
H       -1.82218042      -1.52037361       0.49976709
H       -1.83657819      -1.13235081      -1.28645133
H       -2.10755975       0.79820240       0.92161213
H        0.71210304      -0.01001366       1.99658677
H        1.62005478      -1.54271620      -0.41229070
H        2.15660644       1.00871805       0.25371540
H        0.81898402       0.97414734      -1.84202247
14
Frame=1 idx=006651 GeodesicLength=0.08981028463396898 rxn_smarts="[C:1]1([H:8])([H:9])[N:2]([H:10])[C@:3]12[C@:4]1([H:11])[C:5]([H:12])([H:13])[C@@:6]2([H:14])[O:7]1>>[C:1]1([H:8])([H:9])[N:2]([H:10])[C@@:3]12[C@@:4]([O:7][H:13])([H:11])[C:5]([H:12])=[C:6]2[H:14]"
C       -1.58651210      -0.81095004      -0.28095448
N       -1.78575694       0.63184575      -0.03165133
C       -0.45800788       0.08826837      -0.06617699
C        0.70057988       0.05315067       0.90882316
C        1.67939050      -0.47562881      -0.14873455
C        0.75173946       0.49912382      -0.87289084
O        1.14252412       1.44295067       0.35993974
H       -1.83304881      -1.51329905       0.50874778
H       -1.84729107      -1.13819066      -1.28070596
H       -2.09599202       0.81046927       0.91587618
H        0.70631733      -0.03028928       1.99324079
H        1.64838076      -1.53310454      -0.41358838
H        2.16378264       1.01089928       0.26063827
H        0.81389414       0.96475455      -1.85256339
14
Frame=2 idx=006651 GeodesicLength=0.1796043276420945 rxn_smarts="[C:1]1([H:8])([H:9])[N:2]([H:10])[C@:3]12[C@:4]1([H:11])[C:5]([H:12])([H:13])[C@@:6]2([H:14])[O:7]1>>[C:1]1([H:8])([H:9])[N:2]([H:10])[C@@:3]12[C@@:4]([O:7][H:13])([H:11])[C:5]([H:12])=[C:6]2[H:14]"
C       -1.59321064      -0.81165510      -0.27780730
N       -1.78155635       0.63384874      -0.03795871
C       -0.45752906       0.08050191      -0.07218443
C        0.69868588       0.05338278       0.90718591
C        1.67936816      -0.46425752      -0.15410729
C        0.74866603       0.49547899      -0.88073670
O        1.13444115       1.44581182       0.38379989
H       -1.84393659      -1.50594647       0.51767321
H       -1.85820305      -1.14371186      -1.27487693
H       -2.08439830       0.82265329       0.91004836
H        0.70069154      -0.05099916       1.98947159
H        1.67738166      -1.52255653      -0.41468471
H        2.17099012       1.01303102       0.26777111
H        0.80860945       0.95441808      -1.86359399
14
Frame=3 idx=006651 GeodesicLength=0.2693693966074414 rxn_smarts="[C:1]1([H:8])([H:9])[N:2]([H:10])[C@:3]12[C@:4]1([H:11])[C:5]([H:12])([H:13])[C@@:6]2([H:14])[O:7]1>>[C:1]1([H:8])([H:9])[N:2]([H:10])[C@@:3]12[C@@:4]([O:7][H:13])([H:11])[C:5]([H:12])=[C:6]2[H:14]"
C       -1.59995004      -0.81213232      -0.27464354
N       -1.77731873       0.63592946      -0.04419193
C       -0.45709004       0.07280069      -0.07813515
C        0.69672306       0.05352800       0.90555169
C        1.67930685      -0.45267605      -0.15942254
C        0.74545866       0.49157050      -0.88879417
O        1.12615146       1.44841840       0.40825867
H       -1.85481792      -1.49833524       0.52651173
H       -1.86930227      -1.14888111      -1.26898569
H       -2.07279194       0.83472508       0.90415935
H        0.69523989      -0.07210271       1.98526670
H        1.70701771      -1.51102273      -0.41555601
H        2.17824535       1.01509592       0.27510457
H        0.80312796       0.94308212      -1.87512369
14
Frame=4 idx=006651 GeodesicLength=0.3590918041505838 rxn_smarts="[C:1]1([H:8])([H:9])[N:2]([H:10])[C@:3]12[C@:4]1([H:11])[C:5]([H:12])([H:13])[C@@:6]2([H:14])[O:7]1>>[C:1]1([H:8])([H:9])[N:2]([H:10])[C@@:3]12[C@@:4]([O:7][H:13])([H:11])[C:5]([H:12])=[C:6]2[H:14]"
C       -1.60672529      -0.81237155      -0.27147554
N       -1.77304991       0.63809250      -0.05033227
C       -0.45669518       0.06518146      -0.08402081
C        0.69469417       0.05359609       0.90392281
C        1.67919155      -0.44088479      -0.16467965
C        0.74211405       0.48737427      -0.89707556
O        1.11766433       1.45075072       0.43333682
H       -1.86566623      -1.49048633       0.53523348
H       -1.88057425      -1.15366836      -1.26305367
H       -2.06118661       0.84665810       0.89823926
H        0.68997639      -0.09355854       1.98061460
H        1.73724320      -1.49845316      -0.41618016
H        2.18556562       1.01707571       0.28262864
H        0.79744816       0.93069389      -1.88715795
14
Frame=5 idx=006651 GeodesicLength=0.4487571118795354 rxn_smarts="[C:1]1([H:8])([H:9])[N:2]([H:10])[C@:3]12[C@:4]1([H:11])[C:5]([H:12])([H:13])[C@@:6]2([H:14])[O:7]1>>[C:1]1([H:8])([H:9])[N:2]([H:10])[C@@:3]12[C@@:4]([O:7][H:13])([H:11])[C:5]([H:12])=[C:6]2[H:14]"
C       -1.61353109      -0.81236392      -0.26831440
N       -1.76875609       0.64034311      -0.05636305
C       -0.45634854       0.05766152      -0.08983319
C        0.69260350       0.05359683       0.90230063
C        1.67900835      -0.42888367      -0.16988075
C        0.73862900       0.48286514      -0.90559451
O        1.10899136       1.45278808       0.45905641
H       -1.87645508      -1.48242255       0.54381177
H       -1.89200111      -1.15804906      -1.25710101
H       -2.04959730       0.85843006       0.89231650
H        0.68491090      -0.11532640       1.97550437
H        1.76800598      -1.48479939      -0.41653493
H        2.19297054       1.01895217       0.29032959
H        0.79156957       0.91720807      -1.89969741
14
Frame=6 idx=006651 GeodesicLength=0.5383503968379862 rxn_smarts="[C:1]1([H:8])([H:9])[N:2]([H:10])[C@:3]12[C@:4]1([H:11])[C:5]([H:12])([H:13])[C@@:6]2([H:14])[O:7]1>>[C:1]1([H:8])([H:9])[N:2]([H:10])[C@@:3]12[C@@:4]([O:7][H:13])([H:11])[C:5]([H:12])=[C:6]2[H:14]"
C       -1.62036351      -0.81210116      -0.26517184
N       -1.76444053       0.64268684      -0.06226936
C       -0.45605351       0.05025552      -0.09556527
C        0.69045395       0.05354096       0.90068659
C        1.67874481      -0.41666951      -0.17502439
C        0.73500119       0.47801285      -0.91436426
O        1.10013989       1.45450918       0.48544002
H       -1.88716177      -1.47416548       0.55222093
H       -1.90356929      -1.16199775      -1.25114826
H       -2.03803490       0.87002034       0.88641811
H        0.68006057      -0.13736551       1.96992562
H        1.79925242      -1.47000621      -0.41660799
H        2.20047691       1.02070952       0.29820013
H        0.78549376       0.90257040      -1.91274001
14
Frame=7 idx=006651 GeodesicLength=0.6278575093249161 rxn_smarts="[C:1]1([H:8])([H:9])[N:2]([H:10])[C@:3]12[C@:4]1([H:11])[C:5]([H:12])([H:13])[C@@:6]2([H:14])[O:7]1>>[C:1]1([H:8])([H:9])[N:2]([H:10])[C@@:3]12[C@@:4]([O:7][H:13])([H:11])[C:5]([H:12])=[C:6]2[H:14]"
C       -1.62721729      -0.81157579      -0.26205960
N       -1.76010654       0.64513058      -0.06803557
C       -0.45581276       0.04297799      -0.10120980
C        0.68825180       0.05343922       0.89908060
C        1.67838976      -0.40423911      -0.18011494
C        0.73122717       0.47278458      -0.92340059
O        1.09112064       1.45589097       0.51251109
H       -1.89776023      -1.46574061       0.56043585
H       -1.91526653      -1.16548933      -1.24521637
H       -2.02651351       0.88140954       0.88057290
H        0.67543205      -0.15963276       1.96386933
H        1.83092700      -1.45402539      -0.41637821
H        2.20810440       1.02233240       0.30622280
H        0.77922403       0.88673772      -1.92627749
14
Frame=8 idx=006651 GeodesicLength=0.7172889203679159 rxn_smarts="[C:1]1([H:8])([H:9])[N:2]([H:10])[C@:3]12[C@:4]1([H:11])[C:5]([H:12])([H:13])[C@@:6]2([H:14])[O:7]1>>[C:1]1([H:8])([H:9])[N:2]([H:10])[C@@:3]12[C@@:4]([O:7][H:13])([H:11])[C:5]([H:12])=[C:6]2[H:14]"
C       -1.63410367      -0.81078525      -0.25896239
N       -1.75574237       0.64768643      -0.07369362
C       -0.45562527       0.03581726      -0.10677422
C        0.68600010       0.05326781       0.89747531
C        1.67795631      -0.39155547      -0.18516537
C        0.72730689       0.46716085      -0.93271533
O        1.08190712       1.45689406       0.54033381
H       -1.90829277      -1.45710820       0.56849887
H       -1.92710467      -1.16854744      -1.23928049
H       -2.01502192       0.89265046       0.87474804
H        0.67103610      -0.18220385       1.95730167
H        1.86307634      -1.43674776      -0.41587336
H        2.21585196       1.02383329       0.31442294
H        0.77275585       0.86963781      -1.94031586
14
Frame=9 idx=006651 GeodesicLength=0.8066555503555992 rxn_smarts="[C:1]1([H:8])([H:9])[N:2]([H:10])[C@:3]12[C@:4]1([H:11])[C:5]([H:12])([H:13])[C@@:6]2([H:14])[O:7]1>>[C:1]1([H:8])([H:9])[N:2]([H:10])[C@@:3]12[C@@:4]([O:7][H:13])([H:11])[C:5]([H:12])=[C:6]2[H:14]"
C       -1.64103320      -0.80972645      -0.25586859
N       -1.75133473       0.65036736      -0.07927164
C       -0.45548962       0.02876108      -0.11226530
C        0.68370335       0.05300485       0.89586512
C        1.67745592      -0.37858121      -0.19018453
C        0.72324000       0.46111617      -0.94231931
O        1.07247301       1.45747570       0.56897581
H       -1.91879801      -1.44823225       0.57644295
H       -1.93910782      -1.17118543      -1.23331911
H       -2.00354848       0.90378953       0.86891420
H        0.66688709      -0.20514225       1.95018736
H        1.89574446      -1.41805658      -0.41512549
H        2.22371892       1.02522779       0.32282475
H        0.76608910       0.85118168      -1.95485620
14
Frame=10 idx=006651 GeodesicLength=0.8959697021425604 rxn_smarts="[C:1]1([H:8])([H:9])[N:2]([H:10])[C@:3]12[C@:4]1([H:11])[C:5]([H:12])([H:13])[C@@:6]2([H:14])[O:7]1>>[C:1]1([H:8])([H:9])[N:2]([H:10])[C@@:3]12[C@@:4]([O:7][H:13])([H:11])[C:5]([H:12])=[C:6]2[H:14]"
C       -1.64801701      -0.80839386      -0.25276319
N       -1.74686737       0.65318634      -0.08480271
C       -0.45540394       0.02179527      -0.11769171
C        0.68136595       0.05262315       0.89424225
C        1.67689925      -0.36527316      -0.19518610
C        0.71902551       0.45462275      -0.95222607
O        1.06278778       1.45758016       0.59851205
H       -1.92931781      -1.43906273       0.58431017
H       -1.95129481      -1.17342174      -1.22730551
H       -1.99207832       0.91488003       0.86303433
H        0.66299933      -0.22852660       1.94248114
H        1.92897993      -1.39781823      -0.41416148
H        2.23170189       1.02653064       0.33145575
H        0.75921962       0.83127799      -1.96989891
14
Frame=11 idx=006651 GeodesicLength=0.9852150685151694 rxn_smarts="[C:1]1([H:8])([H:9])[N:2]([H:10])[C@:3]12[C@:4]1([H:11])[C:5]([H:12])([H:13])[C@@:6]2([H:14])[O:7]1>>[C:1]1([H:8])([H:9])[N:2]([H:10])[C@@:3]12[C@@:4]([O:7][H:13])([H:11])[C:5]([H:12])=[C:6]2[H:14]"
C       -1.65505321      -0.80677591      -0.24965478
N       -1.74233803       0.65615083      -0.09027721
C       -0.45536962       0.01493065      -0.12304655
C        0.67899373       0.05213123       0.89260759
C        1.67627797      -0.35161138      -0.20016950
C        0.71466278       0.44763275      -0.96245084
O        1.05285037       1.45716314       0.62898096
H       -1.93983602      -1.42961021       0.59208108
H       -1.96365049      -1.17523388      -1.22125474
H       -1.98061430       0.92591359       0.85712672
H        0.65939169      -0.25232911       1.93415961
H        1.96270997      -1.37594259      -0.41298560
H        2.23981619       1.02773649       0.34031002
H        0.75215896       0.80984437      -1.98542676
14
Frame=12 idx=006651 GeodesicLength=1.074406566148576 rxn_smarts="[C:1]1([H:8])([H:9])[N:2]([H:10])[C@:3]12[C@:4]1([H:11])[C:5]([H:12])([H:13])[C@@:6]2([H:14])[O:7]1>>[C:1]1([H:8])([H:9])[N:2]([H:10])[C@@:3]12[C@@:4]([O:7][H:13])([H:11])[C:5]([H:12])=[C:6]2[H:14]"
C       -1.66215498      -0.80486378      -0.24652920
N       -1.73772598       0.65927676      -0.09572966
C       -0.45538355       0.00815069      -0.12833980
C        0.67659371       0.05149957       0.89095288
C        1.67560493      -0.33754124      -0.20514961
C        0.71015152       0.44010828      -0.97300990
O        1.04262374       1.45615509       0.66046723
H       -1.95039082      -1.41982271       0.59979598
H       -1.97620551      -1.17662927      -1.21514093
H       -1.96913593       0.93694503       0.85115237
H        0.65608759      -0.27663937       1.92516620
H        1.99697397      -1.35227731      -0.41161355
H        2.24805544       1.02887100       0.34941474
H        0.74490588       0.78676726      -2.00143673
14
Frame=13 idx=006651 GeodesicLength=1.163557618930547 rxn_smarts="[C:1]1([H:8])([H:9])[N:2]([H:10])[C@:3]12[C@:4]1([H:11])[C:5]([H:12])([H:13])[C@@:6]2([H:14])[O:7]1>>[C:1]1([H:8])([H:9])[N:2]([H:10])[C@@:3]12[C@@:4]([O:7][H:13])([H:11])[C:5]([H:12])=[C:6]2[H:14]"
C       -1.66933704      -0.80264363      -0.24337227
N       -1.73300871       0.66258103      -0.10119302
C       -0.45544246       0.00143850      -0.13357894
C        0.67417286       0.05069755       0.88927214
C        1.67489291      -0.32300099      -0.21013561
C        0.70549383       0.43200414      -0.98391701
O        1.03206737       1.45447411       0.69306296
H       -1.96102735      -1.40964307       0.60749059
H       -1.98898973      -1.17761145      -1.20893635
H       -1.95761821       0.94802789       0.84507319
H        0.65311214      -0.30154604       1.91543827
H        2.03180579      -1.32664477      -0.41008139
H        2.25641145       1.02996577       0.35879935
H        0.73746715       0.76190096      -2.01792191
14
Frame=14 idx=006651 GeodesicLength=1.2526836755662156 rxn_smarts="[C:1]1([H:8])([H:9])[N:2]([H:10])[C@:3]12[C@:4]1([H:11])[C:5]([H:12])([H:13])[C@@:6]2([H:14])[O:7]1>>[C:1]1([H:8])([H:9])[N:2]([H:10])[C@@:3]12[C@@:4]([O:7][H:13])([H:11])[C:5]([H:12])=[C:6]2[H:14]"
C       -1.67661712      -0.80010070      -0.24016616
N       -1.72816546       0.66608655      -0.10670661
C       -0.45554296      -0.00522350      -0.13877280
C        0.67173783       0.04968828       0.88755969
C        1.67416049      -0.30792120      -0.21513791
C        0.70069820       0.42327481      -0.99518739
O        1.02113223       1.45202738       0.72687040
H       -1.97179727      -1.39900692       0.61520985
H       -2.00203359      -1.17818608      -1.20260806
H       -1.94604512       0.95922471       0.83884247
H        0.65050486      -0.32714974       1.90490524
H        2.06723630      -1.29885228      -0.40843828
H        2.26487661       1.03105730       0.36850452
H        0.72985498       0.73508138      -2.03487497
14
Frame=15 idx=006651 GeodesicLength=1.3417938087935644 rxn_smarts="[C:1]1([H:8])([H:9])[N:2]([H:10])[C@:3]12[C@:4]1([H:11])[C:5]([H:12])([H:13])[C@@:6]2([H:14])[O:7]1>>[C:1]1([H:8])([H:9])[N:2]([H:10])[C@@:3]12[C@@:4]([O:7][H:13])([H:11])[C:5]([H:12])=[C:6]2[H:14]"
C       -1.68399144      -0.79720655      -0.23690742
N       -1.72314223       0.66980089      -0.11229681
C       -0.45567527      -0.01185032      -0.14393063
C        0.66929966       0.04844294       0.88580290
C        1.67339156      -0.29221290      -0.22016855
C        0.69575139       0.41385266      -1.00682929
O        1.00977469       1.44868850       0.76200715
H       -1.98270774      -1.38783581       0.62296352
H       -2.01536383      -1.17833151      -1.19613634
H       -1.93434514       0.97057342       0.83242445
H        0.64830261      -0.35353492       1.89346563
H        2.10322952      -1.26867153      -0.40668894
H        2.27341448       1.03219074       0.37855785
H        0.72206174       0.70609440      -2.05226351
14
Frame=16 idx=006651 GeodesicLength=1.430894735653765 rxn_smarts="[C:1]1([H:8])([H:9])[N:2]([H:10])[C@:3]12[C@:4]1([H:11])[C:5]([H:12])([H:13])[C@@:6]2([H:14])[O:7]1>>[C:1]1([H:8])([H:9])[N:2]([H:10])[C@@:3]12[C@@:4]([O:7][H:13])([H:11])[C:5]([H:12])=[C:6]2[H:14]"
C       -1.69148341      -0.79394566      -0.23358124
N       -1.71793650       0.67375357      -0.11799335
C       -0.45583831      -0.01845170      -0.14905411
C        0.66687091       0.04693157       0.88400460
C        1.67261454      -0.27580434      -0.22523262
C        0.69067800       0.40367092      -1.01886782
O        0.99795064       1.44434939       0.79856513
H       -1.99380643      -1.37609299       0.63078838
H       -2.02900359      -1.17803764      -1.18950083
H       -1.92253217       0.98212436       0.82578829
H        0.64656059      -0.38077042       1.88105565
H        2.13975512      -1.23592133      -0.40489028
H        2.28203529       1.03341266       0.38898198
H        0.71413533       0.67478162      -2.07006376
