14
Frame=0 idx=003297 GeodesicLength=0.0 rxn_smarts="[O:1]=[C:2]([C:3]1([H:8])[C:4]([H:9])([H:10])[C:5]([H:11])([H:12])[C:6]1([H:13])[H:14])[H:7]>>[C:4](=[C:5]([H:11])[H:12])([H:9])[H:10].[O:1]=[C:2]([C:3](=[C:6]([H:13])[H:14])[H:8])[H:7]"
O        1.86778582       0.34339014      -1.27705434
C        1.94928514       0.36347915      -0.03542260
C        0.85433258       0.40886313       0.82276433
C       -0.46417615      -1.04751849      -0.15459217
C       -1.64580399      -0.43883042      -0.56815144
C       -0.48710029       0.72949381       0.22371094
H        2.94207299       0.33367869       0.45144063
H        0.93039118       0.27906555       1.89211739
H        0.33961018      -1.18855204      -0.87011374
H       -0.45427346      -1.64210246       0.74677993
H       -1.74936005      -0.09381448      -1.58550532
H       -2.54167667      -0.50874851       0.03146876
H       -0.35520802       1.36739763      -0.64421364
H       -1.18587920       1.09419826       0.96677128
14
Frame=1 idx=003297 GeodesicLength=0.11021235337076338 rxn_smarts="[O:1]=[C:2]([C:3]1([H:8])[C:4]([H:9])([H:10])[C:5]([H:11])([H:12])[C:6]1([H:13])[H:14])[H:7]>>[C:4](=[C:5]([H:11])[H:12])([H:9])[H:10].[O:1]=[C:2]([C:3](=[C:6]([H:13])[H:14])[H:8])[H:7]"
O        1.87776521       0.32410676      -1.27704746
C        1.95526615       0.36456683      -0.03834363
C        0.85413882       0.39602152       0.82146359
C       -0.47412738      -1.06393558      -0.15489228
C       -1.64746102      -0.43681243      -0.57133639
C       -0.48141253       0.74638538       0.23883854
H        2.94773563       0.39298038       0.44978654
H        0.94163827       0.27799784       1.89176063
H        0.32689042      -1.21727048      -0.87107294
H       -0.47978334      -1.67551968       0.73558504
H       -1.74491484      -0.09498571      -1.59088103
H       -2.55014235      -0.51225339       0.01799512
H       -0.35336997       1.37602004      -0.63565830
H       -1.17222308       1.12269852       0.98380258
14
Frame=2 idx=003297 GeodesicLength=0.22031150650727682 rxn_smarts="[O:1]=[C:2]([C:3]1([H:8])[C:4]([H:9])([H:10])[C:5]([H:11])([H:12])[C:6]1([H:13])[H:14])[H:7]>>[C:4](=[C:5]([H:11])[H:12])([H:9])[H:10].[O:1]=[C:2]([C:3](=[C:6]([H:13])[H:14])[H:8])[H:7]"
O        1.88793639       0.30513848      -1.27655932
C        1.96108560       0.36665464      -0.04112170
C        0.85366700       0.38358356       0.82011684
C       -0.48381648      -1.08081063      -0.15500364
C       -1.64842849      -0.43510577      -0.57441669
C       -0.47543340       0.76394697       0.25446434
H        2.95069411       0.45067247       0.44695795
H        0.95299422       0.27752819       1.89113136
H        0.31425091      -1.24642141      -0.87183852
H       -0.50581465      -1.70955258       0.72371946
H       -1.73964598      -0.09661960      -1.59617250
H       -2.55813845      -0.51610657       0.00397470
H       -0.35181366       1.38491454      -0.62682163
H       -1.15753714       1.15217770       1.00156936
14
Frame=3 idx=003297 GeodesicLength=0.3303205077356642 rxn_smarts="[O:1]=[C:2]([C:3]1([H:8])[C:4]([H:9])([H:10])[C:5]([H:11])([H:12])[C:6]1([H:13])[H:14])[H:7]>>[C:4](=[C:5]([H:11])[H:12])([H:9])[H:10].[O:1]=[C:2]([C:3](=[C:6]([H:13])[H:14])[H:8])[H:7]"
O        1.89831665       0.28644842      -1.27557871
C        1.96668188       0.36968308      -0.04378507
C        0.85287678       0.37158229       0.81869959
C       -0.49327281      -1.09819090      -0.15492571
C       -1.64871749      -0.43372893      -0.57736000
C       -0.46916451       0.78222390       0.27058525
H        2.95118906       0.50693066       0.44308659
H        0.96441551       0.27752811       1.89017577
H        0.30164243      -1.27604742      -0.87243404
H       -0.53241406      -1.74425414       0.71109202
H       -1.73357514      -0.09872624      -1.60134085
H       -2.56565312      -0.52027924      -0.01056052
H       -0.35058713       1.39407988      -0.61772117
H       -1.14173809       1.18275053       1.02006684
14
Frame=4 idx=003297 GeodesicLength=0.44025117677213227 rxn_smarts="[O:1]=[C:2]([C:3]1([H:8])[C:4]([H:9])([H:10])[C:5]([H:11])([H:12])[C:6]1([H:13])[H:14])[H:7]>>[C:4](=[C:5]([H:11])[H:12])([H:9])[H:10].[O:1]=[C:2]([C:3](=[C:6]([H:13])[H:14])[H:8])[H:7]"
O        1.90890889       0.26808001      -1.27409567
C        1.97198583       0.37365617      -0.04636379
C        0.85171583       0.36011172       0.81718435
C       -0.50249525      -1.11611239      -0.15464925
C       -1.64832443      -0.43272240      -0.58012793
C       -0.46262460       0.80128283       0.28719290
H        2.94943713       0.56166588       0.43829573
H        0.97584058       0.27791093       1.88884187
H        0.28904957      -1.30615926      -0.87287516
H       -0.55958273      -1.77966146       0.69761184
H       -1.72671758      -0.10134416      -1.60634239
H       -2.57265640      -0.52478423      -0.02557038
H       -0.34977859       1.40353137      -0.60838002
H       -1.12475824       1.21454498       1.03927789
14
Frame=5 idx=003297 GeodesicLength=0.5501131137888566 rxn_smarts="[O:1]=[C:2]([C:3]1([H:8])[C:4]([H:9])([H:10])[C:5]([H:11])([H:12])[C:6]1([H:13])[H:14])[H:7]>>[C:4](=[C:5]([H:11])[H:12])([H:9])[H:10].[O:1]=[C:2]([C:3](=[C:6]([H:13])[H:14])[H:8])[H:7]"
O        1.91971434       0.25007912      -1.27209854
C        1.97693371       0.37855513      -0.04888374
C        0.85012894       0.34926465       0.81554373
C       -0.51148309      -1.13461689      -0.15416332
C       -1.64724577      -0.43212992      -0.58267881
C       -0.45582974       0.82119435       0.30427554
H        2.94564734       0.61482435       0.43270313
H        0.98719671       0.27857482       1.88708501
H        0.27645699      -1.33677023      -0.87317784
H       -0.58732388      -1.81581618       0.68317799
H       -1.71908865      -0.10451212      -1.61112976
H       -2.57911608      -0.52963293      -0.04100641
H       -0.34947707       1.41328223      -0.59882218
H       -1.10651376       1.24770363       1.05917521
14
Frame=6 idx=003297 GeodesicLength=0.6599128872660373 rxn_smarts="[O:1]=[C:2]([C:3]1([H:8])[C:4]([H:9])([H:10])[C:5]([H:11])([H:12])[C:6]1([H:13])[H:14])[H:7]>>[C:4](=[C:5]([H:11])[H:12])([H:9])[H:10].[O:1]=[C:2]([C:3](=[C:6]([H:13])[H:14])[H:8])[H:7]"
O        1.93072530       0.23251303      -1.26957850
C        1.98146166       0.38436642      -0.05137057
C        0.84805428       0.33914491       0.81374862
C       -0.52022918      -1.15374929      -0.15345424
C       -1.64547557      -0.43200354      -0.58496734
C       -0.44879966       0.84203710       0.32181796
H        2.94003219       0.66630485       0.42642965
H        0.99839880       0.27942577       1.88486671
H        0.26385743      -1.36788794      -0.87335722
H       -0.61563050      -1.85276073       0.66767951
H       -1.71070283      -0.10827432      -1.61565147
H       -2.58499525      -0.53484706      -0.05681186
H       -0.34978547       1.42334872      -0.58907156
H       -1.08691121       1.28238207       1.07972031
14
Frame=7 idx=003297 GeodesicLength=0.7696588394809025 rxn_smarts="[O:1]=[C:2]([C:3]1([H:8])[C:4]([H:9])([H:10])[C:5]([H:11])([H:12])[C:6]1([H:13])[H:14])[H:7]>>[C:4](=[C:5]([H:11])[H:12])([H:9])[H:10].[O:1]=[C:2]([C:3](=[C:6]([H:13])[H:14])[H:8])[H:7]"
O        1.94193433       0.21542397      -1.26652107
C        1.98551780       0.39103632      -0.05383915
C        0.84542966       0.32983097       0.81177345
C       -0.52873572      -1.17356721      -0.15250873
C       -1.64300901      -0.43239330      -0.58694787
C       -0.44154232       0.86388627       0.33980567
H        2.93277333       0.71612608       0.41957615
H        1.00935561       0.28035024       1.88216053
H        0.25123558      -1.39953372      -0.87342923
H       -0.64451386      -1.89054762       0.65098858
H       -1.70156950      -0.11266429      -1.61985395
H       -2.59025863      -0.54043410      -0.07292625
H       -0.35079406       1.43373943      -0.57914453
H       -1.06582322       1.31874697       1.10086639
14
Frame=8 idx=003297 GeodesicLength=0.8793593160025388 rxn_smarts="[O:1]=[C:2]([C:3]1([H:8])[C:4]([H:9])([H:10])[C:5]([H:11])([H:12])[C:6]1([H:13])[H:14])[H:7]>>[C:4](=[C:5]([H:11])[H:12])([H:9])[H:10].[O:1]=[C:2]([C:3](=[C:6]([H:13])[H:14])[H:8])[H:7]"
O        1.95331942       0.19889676      -1.26292099
C        1.98904294       0.39854851      -0.05630874
C        0.84218102       0.32142338       0.80958808
C       -0.53699158      -1.19413006      -0.15131342
C       -1.63984088      -0.43336487      -0.58856860
C       -0.43407701       0.88682968       0.35821809
H        2.92408334       0.76416424       0.41227457
H        1.01996173       0.28127452       1.87894300
H        0.23859167      -1.43171269      -0.87341491
H       -0.67395657      -1.92922661       0.63296232
H       -1.69170688      -0.11772695      -1.62367693
H       -2.59486559      -0.54642601      -0.08927251
H       -0.35262473       1.44446943      -0.56905895
H       -1.04311688       1.35698067       1.12254899
14
Frame=9 idx=003297 GeodesicLength=0.9890077453376318 rxn_smarts="[O:1]=[C:2]([C:3]1([H:8])[C:4]([H:9])([H:10])[C:5]([H:11])([H:12])[C:6]1([H:13])[H:14])[H:7]>>[C:4](=[C:5]([H:11])[H:12])([H:9])[H:10].[O:1]=[C:2]([C:3](=[C:6]([H:13])[H:14])[H:8])[H:7]"
O        1.96487785       0.18293067      -1.25874382
C        1.99200728       0.40679441      -0.05876548
C        0.83823846       0.31395303       0.80717462
C       -0.54501210      -1.21551583      -0.14985944
C       -1.63596250      -0.43496783      -0.58978040
C       -0.42638710       0.91093194       0.37704414
H        2.91403927       0.81060605       0.40456974
H        1.03010672       0.28207792       1.87520829
H        0.22590311      -1.46445777      -0.87333531
H       -0.70399352      -1.96885369       0.61343092
H       -1.68110654      -0.12347514      -1.62705563
H       -2.59877720      -0.55281246      -0.10577670
H       -0.35534600       1.45552748      -0.55880847
H       -1.01858773       1.39726122       1.14469755
14
Frame=10 idx=003297 GeodesicLength=1.0986178174087176 rxn_smarts="[O:1]=[C:2]([C:3]1([H:8])[C:4]([H:9])([H:10])[C:5]([H:11])([H:12])[C:6]1([H:13])[H:14])[H:7]>>[C:4](=[C:5]([H:11])[H:12])([H:9])[H:10].[O:1]=[C:2]([C:3](=[C:6]([H:13])[H:14])[H:8])[H:7]"
O        1.97655013       0.16771783      -1.25401574
C        1.99432266       0.41585658      -0.06124789
C        0.83349707       0.30757590       0.80448765
C       -0.55275507      -1.23778736      -0.14813824
C       -1.63137703      -0.43730627      -0.59051121
C       -0.41852344       0.93631191       0.39624326
H        2.90298426       0.85495825       0.39672258
H        1.03965010       0.28279493       1.87092853
H        0.21320398      -1.49773045      -0.87323597
H       -0.73452646      -2.00947269       0.59221180
H       -1.66982711      -0.12998381      -1.62991011
H       -2.60194585      -0.55969220      -0.12230793
H       -0.35916718       1.46694264      -0.54841919
H       -0.99208606       1.43981473       1.16719245
14
Frame=11 idx=003297 GeodesicLength=1.208190934114465 rxn_smarts="[O:1]=[C:2]([C:3]1([H:8])[C:4]([H:9])([H:10])[C:5]([H:11])([H:12])[C:6]1([H:13])[H:14])[H:7]>>[C:4](=[C:5]([H:11])[H:12])([H:9])[H:10].[O:1]=[C:2]([C:3](=[C:6]([H:13])[H:14])[H:8])[H:7]"
O        1.98829578       0.15334578      -1.24873168
C        1.99593129       0.42570644      -0.06375790
C        0.82785704       0.30236271       0.80149521
C       -0.56021182      -1.26103196      -0.14614874
C       -1.62608855      -0.44046543      -0.59069290
C       -0.41049516       0.96305968       0.41578510
H        2.89113088       0.89711304       0.38891298
H        1.04844637       0.28339671       1.86609129
H        0.20049845      -1.53152866      -0.87316536
H       -0.76551614      -2.05113012       0.56909509
H       -1.65790379      -0.13728912      -1.63215662
H       -2.60433213      -0.56711312      -0.13873760
H       -0.36423975       1.47871075      -0.53788625
H       -0.96337247       1.48486330       1.18989737
14
Frame=12 idx=003297 GeodesicLength=1.317732082736934 rxn_smarts="[O:1]=[C:2]([C:3]1([H:8])[C:4]([H:9])([H:10])[C:5]([H:11])([H:12])[C:6]1([H:13])[H:14])[H:7]>>[C:4](=[C:5]([H:11])[H:12])([H:9])[H:10].[O:1]=[C:2]([C:3](=[C:6]([H:13])[H:14])[H:8])[H:7]"
O        2.00006925       0.13989641      -1.24288521
C        1.99677523       0.43631840      -0.06629103
C        0.82120969       0.29837841       0.79816405
C       -0.56737386      -1.28534642      -0.14389678
C       -1.62010782      -0.44453796      -0.59025156
C       -0.40230720       0.99126734       0.43563486
H        2.87868938       0.93696102       0.38134959
H        1.05633543       0.28386411       1.86068479
H        0.18779279      -1.56584604      -0.87318610
H       -0.79690238      -2.09386116       0.54385355
H       -1.64538486      -0.14542270      -1.63370473
H       -2.60590202      -0.57513186      -0.15491688
H       -0.37073265       1.49082220      -0.52719375
H       -0.93216097       1.53263825       1.21263920
14
Frame=13 idx=003297 GeodesicLength=1.4272459402513238 rxn_smarts="[O:1]=[C:2]([C:3]1([H:8])[C:4]([H:9])([H:10])[C:5]([H:11])([H:12])[C:6]1([H:13])[H:14])[H:7]>>[C:4](=[C:5]([H:11])[H:12])([H:9])[H:10].[O:1]=[C:2]([C:3](=[C:6]([H:13])[H:14])[H:8])[H:7]"
O        2.01182000       0.12744678      -1.23646359
C        1.99679989       0.44765375      -0.06882818
C        0.81343724       0.29567421       0.79446213
C       -0.57423508      -1.31083792      -0.14139974
C       -1.61345173      -0.44962298      -0.58910982
C       -0.39395505       1.02102428       0.45575430
H        2.86584957       0.97442173       0.37425660
H        1.06313888       0.28417723       1.85470014
H        0.17509403      -1.60067289      -0.87337692
H       -0.82860552      -2.13767770       0.51625049
H       -1.63233068      -0.15440777      -1.63445737
H       -2.60662581      -0.58380961      -0.17067612
H       -0.37882647       1.50325647      -0.51630756
H       -0.89810927       1.58337441       1.23519565
14
Frame=14 idx=003297 GeodesicLength=1.5367381608184383 rxn_smarts="[O:1]=[C:2]([C:3]1([H:8])[C:4]([H:9])([H:10])[C:5]([H:11])([H:12])[C:6]1([H:13])[H:14])[H:7]>>[C:4](=[C:5]([H:11])[H:12])([H:9])[H:10].[O:1]=[C:2]([C:3](=[C:6]([H:13])[H:14])[H:8])[H:7]"
O        2.02348974       0.11607807      -1.22945224
C        1.99594879       0.45968178      -0.07134221
C        0.80441075       0.29430221       0.79035488
C       -0.58078644      -1.33761854      -0.13868994
C       -1.60614620      -0.45582798      -0.58718686
C       -0.38543109       1.05242133       0.47610049
H        2.85280282       1.00937978       0.36789571
H        1.06865697       0.28432460       1.84812738
H        0.16241594      -1.63598779      -0.87383731
H       -0.86050563      -2.18255703       0.48605334
H       -1.61882047      -0.16426121      -1.63431213
H       -2.60648228      -0.59322447      -0.18582450
H       -0.38873103       1.51598764      -0.50517157
H       -0.86082188       1.63730162       1.25728495
14
Frame=15 idx=003297 GeodesicLength=1.6462156461521693 rxn_smarts="[O:1]=[C:2]([C:3]1([H:8])[C:4]([H:9])([H:10])[C:5]([H:11])([H:12])[C:6]1([H:13])[H:14])[H:7]>>[C:4](=[C:5]([H:11])[H:12])([H:9])[H:10].[O:1]=[C:2]([C:3](=[C:6]([H:13])[H:14])[H:8])[H:7]"
O        2.03500861       0.10587194      -1.22183358
C        1.99416740       0.47236256      -0.07379255
C        0.79399222       0.29430640       0.78580770
C       -0.58701911      -1.36580540      -0.13581814
C       -1.59822377      -0.46326486      -0.58440517
C       -0.37671879       1.08554467       0.49663131
H        2.83971683       1.04172843       0.36254831
H        1.07266991       0.28428945       1.84095756
H        0.14977781      -1.67176500      -0.87468449
H       -0.89244910      -2.22843106       0.45305346
H       -1.60494217      -0.17498615      -1.63316668
H       -2.60545916      -0.60346413      -0.20016178
H       -0.40068163       1.52898326      -0.49369132
H       -0.81983904       1.69462989       1.27855536
14
Frame=16 idx=003297 GeodesicLength=1.7556894867265542 rxn_smarts="[O:1]=[C:2]([C:3]1([H:8])[C:4]([H:9])([H:10])[C:5]([H:11])([H:12])[C:6]1([H:13])[H:14])[H:7]>>[C:4](=[C:5]([H:11])[H:12])([H:9])[H:10].[O:1]=[C:2]([C:3](=[C:6]([H:13])[H:14])[H:8])[H:7]"
O        2.04627178       0.09692968      -1.21360342
C        1.99139806       0.48564983      -0.07613239
C        0.78203635       0.29572690       0.78078739
C       -0.59292369      -1.39551792      -0.13285282
C       -1.58971576      -0.47204834      -0.58070512
C       -0.36779498       1.12047180       0.51731796
H        2.82673724       1.07134884       0.35850694
H        1.07494598       0.28405106       1.83318299
H        0.13721039      -1.70798519      -0.87604041
H       -0.92425549      -2.27516962       0.41710526
H       -1.59076653      -0.18656952      -1.63093334
H       -2.60355182      -0.61462344      -0.21350804
H       -0.41495274       1.54221132      -0.48170804
H       -0.77463878       1.75552461       1.29858305
