17
Frame=0 idx=010575 GeodesicLength=0.0 rxn_smarts="[C:1]([C@@:2]1([H:11])[C:3]([H:12])([H:13])[C@:4]1([C:5]([C:6]#[C:7][H:17])([H:15])[H:16])[H:14])([H:8])([H:9])[H:10]>>[C:1]([C@@:2]1([H:11])[C:6]([C:5]([C:4](=[C:3]([H:12])[H:13])[H:14])([H:15])[H:16])=[C:7]1[H:17])([H:8])([H:9])[H:10]"
C       -1.15455649       1.17230885       0.62261534
C       -0.33563626      -0.09126728       0.77258065
C       -1.01294208      -0.88114458      -1.64063284
C       -0.06456743      -1.02698478      -0.62253835
C        1.32358072      -0.36705069      -0.75487927
C        1.21980786       0.13537133       0.68428870
C        1.87909766       0.55101239       1.66671926
H       -2.21967384       0.94942997       0.56791166
H       -0.98942832       1.81558704       1.48793310
H       -0.87434088       1.72606298      -0.27612301
H       -0.66299075      -0.69218897       1.62423687
H       -1.78110799      -1.62294218      -1.81807292
H       -1.05646268       0.02806074      -2.22907984
H        0.00298071      -2.04301000      -0.23238219
H        1.30810658       0.47532725      -1.45135900
H        2.16195604      -1.01839059      -1.00619622
H        2.25617710       0.88981859       2.60497804
17
Frame=1 idx=010575 GeodesicLength=0.10010644034923562 rxn_smarts="[C:1]([C@@:2]1([H:11])[C:3]([H:12])([H:13])[C@:4]1([C:5]([C:6]#[C:7][H:17])([H:15])[H:16])[H:14])([H:8])([H:9])[H:10]>>[C:1]([C@@:2]1([H:11])[C:6]([C:5]([C:4](=[C:3]([H:12])[H:13])[H:14])([H:15])[H:16])=[C:7]1[H:17])([H:8])([H:9])[H:10]"
C       -1.15425855       1.18749408       0.62445649
C       -0.34384944      -0.08295323       0.76680199
C       -1.02348501      -0.88912971      -1.62045565
C       -0.04609280      -1.04272316      -0.63258724
C        1.32912415      -0.36166205      -0.76649994
C        1.23645405       0.14615663       0.66729518
C        1.86055152       0.53705350       1.67998413
H       -2.22083888       0.97363938       0.55888785
H       -0.99758506       1.82160797       1.49817790
H       -0.86466679       1.74914380      -0.26632853
H       -0.68218271      -0.68700432       1.61188968
H       -1.78425886      -1.63933386      -1.79403109
H       -1.06150981       0.00841185      -2.22688307
H        0.03180767      -2.05600889      -0.23856138
H        1.29799281       0.47894102      -1.46441142
H        2.17344254      -1.00560553      -1.01615488
H        2.24935518       0.86197252       2.61841999
17
Frame=2 idx=010575 GeodesicLength=0.2002564008946573 rxn_smarts="[C:1]([C@@:2]1([H:11])[C:3]([H:12])([H:13])[C@:4]1([C:5]([C:6]#[C:7][H:17])([H:15])[H:16])[H:14])([H:8])([H:9])[H:10]>>[C:1]([C@@:2]1([H:11])[C:6]([C:5]([C:4](=[C:3]([H:12])[H:13])[H:14])([H:15])[H:16])=[C:7]1[H:17])([H:8])([H:9])[H:10]"
C       -1.15387272       1.20292313       0.62700336
C       -0.35286304      -0.07490453       0.76110156
C       -1.03308749      -0.89709148      -1.59997717
C       -0.02770456      -1.05828533      -0.64289239
C        1.33448548      -0.35648639      -0.77760890
C        1.25322430       0.15625662       0.65105221
C        1.84093582       0.52058181       1.69288003
H       -2.22188593       0.99903505       0.55025166
H       -1.00562766       1.82722533       1.50933047
H       -0.85426763       1.77266570      -0.25524525
H       -0.70312497      -0.68250737       1.59871688
H       -1.78588833      -1.65590733      -1.77070793
H       -1.06640133      -0.01181885      -2.22448481
H        0.06051739      -2.06883684      -0.24526860
H        1.28795205       0.48243209      -1.47651768
H        2.18457375      -0.99293574      -1.02612305
H        2.24303488       0.83765415       2.62848962
17
Frame=3 idx=010575 GeodesicLength=0.3004700968440687 rxn_smarts="[C:1]([C@@:2]1([H:11])[C:3]([H:12])([H:13])[C@:4]1([C:5]([C:6]#[C:7][H:17])([H:15])[H:16])[H:14])([H:8])([H:9])[H:10]>>[C:1]([C@@:2]1([H:11])[C:6]([C:5]([C:4](=[C:3]([H:12])[H:13])[H:14])([H:15])[H:16])=[C:7]1[H:17])([H:8])([H:9])[H:10]"
C       -1.15267670       1.21781942       0.63120901
C       -0.36279774      -0.06844938       0.75562153
C       -1.04177061      -0.90408245      -1.58003662
C       -0.00983568      -1.07411674      -0.65405362
C        1.33975668      -0.35274153      -0.78786547
C        1.27023320       0.16333057       0.63630367
C        1.82029951       0.49855694       1.70625458
H       -2.22215751       1.02560679       0.54251696
H       -1.01271801       1.83086443       1.52284985
H       -0.84176651       1.79634429      -0.24131600
H       -0.72645775      -0.68038540       1.58429483
H       -1.78683581      -1.67080518      -1.74941324
H       -1.07049518      -0.03104499      -2.22186113
H        0.08790076      -2.08232738      -0.25388099
H        1.27881098       0.48520370      -1.48667700
H        2.19508706      -0.98196902      -1.03605636
H        2.23542329       0.82819593       2.63211000
17
Frame=4 idx=010575 GeodesicLength=0.4007458777114896 rxn_smarts="[C:1]([C@@:2]1([H:11])[C:3]([H:12])([H:13])[C@:4]1([C:5]([C:6]#[C:7][H:17])([H:15])[H:16])[H:14])([H:8])([H:9])[H:10]>>[C:1]([C@@:2]1([H:11])[C:6]([C:5]([C:4](=[C:3]([H:12])[H:13])[H:14])([H:15])[H:16])=[C:7]1[H:17])([H:8])([H:9])[H:10]"
C       -1.15162397       1.23290208       0.63592396
C       -0.37356845      -0.06205136       0.75023271
C       -1.04928916      -0.91131219      -1.55999591
C        0.00802831      -1.08976977      -0.66537194
C        1.34492537      -0.34908511      -0.79748391
C        1.28742467       0.16997118       0.62238376
C        1.79849739       0.47582705       1.71862116
H       -2.22241215       1.05318755       0.53492160
H       -1.02018357       1.83416257       1.53695790
H       -0.82865531       1.82030359      -0.22618525
H       -0.75131654      -0.67849452       1.56917609
H       -1.78666446      -1.68571338      -1.72832199
H       -1.07441063      -0.05093832      -2.21900755
H        0.11528653      -2.09560938      -0.26277519
H        1.26980352       0.48793497      -1.49588081
H        2.20539663      -0.97097439      -1.04572451
H        2.22876184       0.81965942       2.63252987
17
Frame=5 idx=010575 GeodesicLength=0.5010937593757449 rxn_smarts="[C:1]([C@@:2]1([H:11])[C:3]([H:12])([H:13])[C@:4]1([C:5]([C:6]#[C:7][H:17])([H:15])[H:16])[H:14])([H:8])([H:9])[H:10]>>[C:1]([C@@:2]1([H:11])[C:6]([C:5]([C:4](=[C:3]([H:12])[H:13])[H:14])([H:15])[H:16])=[C:7]1[H:17])([H:8])([H:9])[H:10]"
C       -1.15099610       1.24845584       0.64066942
C       -0.38502420      -0.05510182       0.74484656
C       -1.05559743      -0.91928278      -1.53959801
C        0.02610857      -1.10509151      -0.67659505
C        1.34997796      -0.34503213      -0.80673106
C        1.30490525       0.17718511       0.60882618
C        1.77583034       0.45452556       1.72909720
H       -2.22285503       1.08169525       0.52719504
H       -1.02840468       1.83779174       1.55091027
H       -0.81547732       1.84459368      -0.21053872
H       -0.77709651      -0.67595041       1.55363342
H       -1.78533823      -1.70127344      -1.70651390
H       -1.07849988      -0.07215238      -2.21584131
H        0.14323973      -2.10833870      -0.27132450
H        1.26056301       0.49082932      -1.50470228
H        2.21561803      -0.95931712      -1.05531211
H        2.22304648       0.80646378       2.63197885
17
Frame=6 idx=010575 GeodesicLength=0.6015206402264832 rxn_smarts="[C:1]([C@@:2]1([H:11])[C:3]([H:12])([H:13])[C@:4]1([C:5]([C:6]#[C:7][H:17])([H:15])[H:16])[H:14])([H:8])([H:9])[H:10]>>[C:1]([C@@:2]1([H:11])[C:6]([C:5]([C:4](=[C:3]([H:12])[H:13])[H:14])([H:15])[H:16])=[C:7]1[H:17])([H:8])([H:9])[H:10]"
C       -1.15089863       1.26465992       0.64514927
C       -0.39701011      -0.04724403       0.73938880
C       -1.06070260      -0.92828932      -1.51866661
C        0.04454826      -1.12000082      -0.68759014
C        1.35489342      -0.34031477      -0.81588277
C        1.32281024       0.18557208       0.59521388
C        1.75269316       0.43589457       1.73707298
H       -2.22355681       1.11108009       0.51920836
H       -1.03749438       1.84218123       1.56424583
H       -0.80253698       1.86925612      -0.19481749
H       -0.80329846      -0.67222996       1.53786820
H       -1.78287710      -1.71786840      -1.68332869
H       -1.08302141      -0.09507960      -2.21226687
H        0.17212694      -2.12030112      -0.27917576
H        1.25081985       0.49397409      -1.51358787
H        2.22577859      -0.94663904      -1.06511896
H        2.21772601       0.78534896       2.63228784
17
Frame=7 idx=010575 GeodesicLength=0.7020353848494857 rxn_smarts="[C:1]([C@@:2]1([H:11])[C:3]([H:12])([H:13])[C@:4]1([C:5]([C:6]#[C:7][H:17])([H:15])[H:16])[H:14])([H:8])([H:9])[H:10]>>[C:1]([C@@:2]1([H:11])[C:6]([C:5]([C:4](=[C:3]([H:12])[H:13])[H:14])([H:15])[H:16])=[C:7]1[H:17])([H:8])([H:9])[H:10]"
C       -1.15118061       1.28140507       0.64948573
C       -0.40947775      -0.03865607       0.73386756
C       -1.06463115      -0.93819328      -1.49730531
C        0.06330748      -1.13457589      -0.69844267
C        1.35968302      -0.33513243      -0.82499498
C        1.34124730       0.19480737       0.58150957
C        1.72934987       0.41968133       1.74256778
H       -2.22436477       1.14132434       0.51103971
H       -1.04727557       1.84712645       1.57714662
H       -0.78960562       1.89424796      -0.17879733
H       -0.82981745      -0.66752930       1.52190578
H       -1.77943879      -1.73524413      -1.65881379
H       -1.08791810      -0.11946354      -2.20820457
H        0.20181225      -2.13160735      -0.28652472
H        1.24065399       0.49724609      -1.52248822
H        2.23580882      -0.93319406      -1.07531204
H        2.21184707       0.75775746       2.63336089
17
Frame=8 idx=010575 GeodesicLength=0.8026440567609183 rxn_smarts="[C:1]([C@@:2]1([H:11])[C:3]([H:12])([H:13])[C@:4]1([C:5]([C:6]#[C:7][H:17])([H:15])[H:16])[H:14])([H:8])([H:9])[H:10]>>[C:1]([C@@:2]1([H:11])[C:6]([C:5]([C:4](=[C:3]([H:12])[H:13])[H:14])([H:15])[H:16])=[C:7]1[H:17])([H:8])([H:9])[H:10]"
C       -1.15165361       1.29852222       0.65389505
C       -0.42242376      -0.02961709       0.72831287
C       -1.06742229      -0.94876989      -1.47567770
C        0.08229786      -1.14892889      -0.70928516
C        1.36436448      -0.32977257      -0.83404765
C        1.36030008       0.20437432       0.56778934
C        1.70597612       0.40530059       1.74577110
H       -2.22508372       1.17242816       0.50281046
H       -1.05754727       1.85228775       1.58992796
H       -0.77634740       1.91949213      -0.16209367
H       -0.85666991      -0.66217529       1.50573117
H       -1.77517662      -1.75305096      -1.63322856
H       -1.09305854      -0.14491857      -2.20360628
H        0.23204385      -2.14244557      -0.29368251
H        1.23022315       0.50049793      -1.53122140
H        2.24562794      -0.91935365      -1.08598501
H        2.20454962       0.72612939       2.63458998
17
Frame=9 idx=010575 GeodesicLength=0.9033518689700683 rxn_smarts="[C:1]([C@@:2]1([H:11])[C:3]([H:12])([H:13])[C@:4]1([C:5]([C:6]#[C:7][H:17])([H:15])[H:16])[H:14])([H:8])([H:9])[H:10]>>[C:1]([C@@:2]1([H:11])[C:6]([C:5]([C:4](=[C:3]([H:12])[H:13])[H:14])([H:15])[H:16])=[C:7]1[H:17])([H:8])([H:9])[H:10]"
C       -1.15218433       1.31588341       0.65854141
C       -0.43585567      -0.02032442       0.72274608
C       -1.06912079      -0.95985223      -1.45390714
C        0.10144625      -1.16314781      -0.72022248
C        1.36894855      -0.32444778      -0.84302366
C        1.38003683       0.21388082       0.55410744
C        1.68269347       0.39236146       1.74682766
H       -2.22556027       1.20439630       0.49462018
H       -1.06817754       1.85741588       1.60281364
H       -0.76251322       1.94490517      -0.14440041
H       -0.88386178      -0.65638510       1.48935102
H       -1.77019479      -1.77105290      -1.60678714
H       -1.09833321      -0.17117244      -2.19846725
H        0.26262902      -2.15296522      -0.30089104
H        1.21963920       0.50363016      -1.53964458
H        2.25517312      -0.90539134      -1.09721186
H        2.19523515       0.69226604       2.63554811
17
Frame=10 idx=010575 GeodesicLength=1.0041691562683195 rxn_smarts="[C:1]([C@@:2]1([H:11])[C:3]([H:12])([H:13])[C@:4]1([C:5]([C:6]#[C:7][H:17])([H:15])[H:16])[H:14])([H:8])([H:9])[H:10]>>[C:1]([C@@:2]1([H:11])[C:6]([C:5]([C:4](=[C:3]([H:12])[H:13])[H:14])([H:15])[H:16])=[C:7]1[H:17])([H:8])([H:9])[H:10]"
C       -1.15272408       1.33342769       0.66349409
C       -0.44980032      -0.01086032       0.71717436
C       -1.06976236      -0.97136222      -1.43205304
C        0.12071591      -1.17728482      -0.73130729
C        1.37343640      -0.31925993      -0.85190744
C        1.40049627       0.22314013       0.54048234
C        1.65956667       0.38065467       1.74584889
H       -2.22570807       1.23724312       0.48646695
H       -1.07917200       1.86238527       1.61589639
H       -0.74796506       1.97043019      -0.12552973
H       -0.91140118      -0.65023280       1.47279136
H       -1.76451754      -1.78917240      -1.57961119
H       -1.10369170      -0.19807616      -2.19276652
H        0.29347694      -2.16324693      -0.30827001
H        1.20894560       0.50660434      -1.54767186
H        2.26440649      -0.89143380      -1.10903596
H        2.18369804       0.65704397       2.63599867
17
Frame=11 idx=010575 GeodesicLength=1.105107390875973 rxn_smarts="[C:1]([C@@:2]1([H:11])[C:3]([H:12])([H:13])[C@:4]1([C:5]([C:6]#[C:7][H:17])([H:15])[H:16])[H:14])([H:8])([H:9])[H:10]>>[C:1]([C@@:2]1([H:11])[C:6]([C:5]([C:4](=[C:3]([H:12])[H:13])[H:14])([H:15])[H:16])=[C:7]1[H:17])([H:8])([H:9])[H:10]"
C       -1.15322129       1.35109093       0.66882910
C       -0.46428939      -0.00130885       0.71160085
C       -1.06939026      -0.98322157      -1.41017494
C        0.14006573      -1.19139381      -0.74260323
C        1.37782974      -0.31431164      -0.86068069
C        1.42171882       0.23194507       0.52694160
C        1.63663680       0.36997014       1.74293572
H       -2.22543064       1.27099032       0.47836453
H       -1.09053192       1.86706765       1.62926778
H       -0.73256244       1.99599083      -0.10528058
H       -0.93930926      -0.64379408       1.45607124
H       -1.75817568      -1.80733003      -1.55183190
H       -1.10907961      -0.22549828      -2.18650989
H        0.32449213      -2.17337990      -0.31595706
H        1.19818682       0.50938843      -1.55520953
H        2.27329081      -0.87760539      -1.12150156
H        2.16976966       0.62140016       2.63573856
17
Frame=12 idx=010575 GeodesicLength=1.2061799411559624 rxn_smarts="[C:1]([C@@:2]1([H:11])[C:3]([H:12])([H:13])[C@:4]1([C:5]([C:6]#[C:7][H:17])([H:15])[H:16])[H:14])([H:8])([H:9])[H:10]>>[C:1]([C@@:2]1([H:11])[C:6]([C:5]([C:4](=[C:3]([H:12])[H:13])[H:14])([H:15])[H:16])=[C:7]1[H:17])([H:8])([H:9])[H:10]"
C       -1.15366023       1.36883916       0.67458144
C       -0.47936236       0.00829718       0.70602040
C       -1.06804075      -0.99538977      -1.38829994
C        0.15947358      -1.20551090      -0.75415226
C        1.38212844      -0.30965642      -0.86932522
C        1.44373603       0.24016990       0.51349998
C        1.61391686       0.36021112       1.73815922
H       -2.22465681       1.30566631       0.47029386
H       -1.10231020       1.87139543       1.64295610
H       -0.71621842       2.02151308      -0.08350439
H       -0.96760679      -0.63708321       1.43921760
H       -1.75117143      -1.82550603      -1.52352373
H       -1.11446369      -0.25337429      -2.17970268
H        0.35562742      -2.18342233      -0.32404164
H        1.18737944       0.51197795      -1.56218593
H        2.28180075      -0.86396227      -1.13464174
H        2.15342816       0.58583511       2.63464893
17
Frame=13 idx=010575 GeodesicLength=1.3074025618833063 rxn_smarts="[C:1]([C@@:2]1([H:11])[C:3]([H:12])([H:13])[C@:4]1([C:5]([C:6]#[C:7][H:17])([H:15])[H:16])[H:14])([H:8])([H:9])[H:10]>>[C:1]([C@@:2]1([H:11])[C:6]([C:5]([C:4](=[C:3]([H:12])[H:13])[H:14])([H:15])[H:16])=[C:7]1[H:17])([H:8])([H:9])[H:10]"
C       -1.15402018       1.38663535       0.68079046
C       -0.49506219       0.01792185       0.70042338
C       -1.06575191      -1.00782688      -1.36645420
C        0.17891653      -1.21967401      -0.76600701
C        1.38633487      -0.30535032      -0.87782011
C        1.46658173       0.24766981       0.50018047
C        1.59140774       0.35125827       1.73158380
H       -2.22330065       1.34130839       0.46223779
H       -1.11456258       1.87529436       1.65699007
H       -0.69883709       2.04690739      -0.06003457
H       -0.99632915      -0.63012090       1.42224558
H       -1.74351339      -1.84367605      -1.49476031
H       -1.11981667      -0.28164305      -2.17235307
H        0.38683447      -2.19343974      -0.33263097
H        1.17654369       0.51437142      -1.56852111
H        2.28991200      -0.85055916      -1.14849062
H        2.13466277       0.55092325       2.63262042
17
Frame=14 idx=010575 GeodesicLength=1.408793364746957 rxn_smarts="[C:1]([C@@:2]1([H:11])[C:3]([H:12])([H:13])[C@:4]1([C:5]([C:6]#[C:7][H:17])([H:15])[H:16])[H:14])([H:8])([H:9])[H:10]>>[C:1]([C@@:2]1([H:11])[C:6]([C:5]([C:4](=[C:3]([H:12])[H:13])[H:14])([H:15])[H:16])=[C:7]1[H:17])([H:8])([H:9])[H:10]"
C       -1.15430683       1.40446548       0.68746439
C       -0.51143597       0.02756804       0.69479390
C       -1.06255231      -1.02051868      -1.34463477
C        0.19838800      -1.23390638      -0.77820300
C        1.39045239      -0.30141529      -0.88614403
C        1.49028493       0.25435785       0.48699624
C        1.56909654       0.34309137       1.72324344
H       -2.22129097       1.37795926       0.45415076
H       -1.12738799       1.87873552       1.67134994
H       -0.68036218       2.07208463      -0.03473832
H       -1.02550864      -0.62288441       1.40517561
H       -1.73518826      -1.86185388      -1.46556310
H       -1.12512829      -0.31028876      -2.16445650
H        0.41810207      -2.20347300      -0.34179795
H        1.16568308       0.51658354      -1.57415058
H        2.29760913      -0.83740214      -1.16307300
H        2.11354530       0.51689684       2.62958698
17
Frame=15 idx=010575 GeodesicLength=1.5103737093655387 rxn_smarts="[C:1]([C@@:2]1([H:11])[C:3]([H:12])([H:13])[C@:4]1([C:5]([C:6]#[C:7][H:17])([H:15])[H:16])[H:14])([H:8])([H:9])[H:10]>>[C:1]([C@@:2]1([H:11])[C:6]([C:5]([C:4](=[C:3]([H:12])[H:13])[H:14])([H:15])[H:16])=[C:7]1[H:17])([H:8])([H:9])[H:10]"
C       -1.15450810       1.42230036       0.69463227
C       -0.52853039       0.03721907       0.68911347
C       -1.05847407      -1.03343786      -1.32284787
C        0.21787336      -1.24823830      -0.79079794
C        1.39448920      -0.29789448      -0.89427393
C        1.51488154       0.26009291       0.47397339
C        1.54696978       0.33564291       1.71316664
H       -2.21852677       1.41566851       0.44600667
H       -1.14087115       1.88166367       1.68603536
H       -0.66071287       2.09692831      -0.00744045
H       -1.05519067      -0.61537868       1.38801104
H       -1.72620032      -1.88002663      -1.43596813
H       -1.13038880      -0.33927882      -2.15601303
H        0.44940052      -2.21358313      -0.35165888
H        1.15481751       0.51862179      -1.57899381
H        2.30487380      -0.82451989      -1.17841929
H        2.09009744       0.48422026       2.62547448
17
Frame=16 idx=010575 GeodesicLength=1.6121700692616212 rxn_smarts="[C:1]([C@@:2]1([H:11])[C:3]([H:12])([H:13])[C@:4]1([C:5]([C:6]#[C:7][H:17])([H:15])[H:16])[H:14])([H:8])([H:9])[H:10]>>[C:1]([C@@:2]1([H:11])[C:6]([C:5]([C:4](=[C:3]([H:12])[H:13])[H:14])([H:15])[H:16])=[C:7]1[H:17])([H:8])([H:9])[H:10]"
C       -1.15462483       1.44012320       0.70230642
C       -0.54639396       0.04688096       0.68335907
C       -1.05354208      -1.04657144      -1.30107896
C        0.23736726      -1.26269094      -0.80384417
C        1.39845598      -0.29481374      -0.90218648
C        1.54040530       0.26475754       0.46113457
C        1.52501010       0.32889501       1.70135828
H       -2.21490329       1.45449314       0.43775590
H       -1.15513247       1.88404673       1.70101628
H       -0.63982659       2.12131443       0.02203008
H       -1.08542198      -0.60758589       1.37075245
H       -1.71654110      -1.89820146      -1.40597327
H       -1.13560440      -0.36860345      -2.14700586
H        0.48072173      -2.22381906      -0.36232093
H        1.14396034       0.52050192      -1.58297610
H        2.31169263      -0.81191277      -1.19455529
H        2.06437735       0.45318585       2.62022800
