17
Frame=0 idx=004336 GeodesicLength=0.0 rxn_smarts="[C:1]([C:2]([C:3]([H:11])([H:12])[H:13])([N:4]1[C:5]([H:14])([H:15])[C:6]1([H:16])[H:17])[H:10])([H:7])([H:8])[H:9]>>[C:1]([C:2]([C:3]([H:11])([H:12])[H:13])=[N+:4]1[C-:5]([H:15])[C:6]1([H:16])[H:17])([H:7])([H:8])[H:9].[H:10][H:14]"
C       -1.48463390      -0.85978034       0.60459899
C       -0.51955297      -0.04386011      -0.19266260
C       -1.03039296       0.75931703      -1.34579743
N        0.75180113      -0.39514295      -0.22297785
C        1.90599274       0.34253569      -0.17552250
C        1.67176836      -0.74001643       0.82681500
H       -1.97209690      -1.61218318      -0.02488879
H       -0.98760762      -1.36886091       1.42947185
H       -2.26748530      -0.21733185       1.00818552
H        0.22309635       1.53885895       0.83962342
H       -1.29540822       0.10501538      -2.18373918
H       -0.27075109       1.46329592      -1.68691537
H       -1.92527319       1.31062078      -1.05779965
H        1.05612273       1.49922342       0.55019188
H        2.65086095       0.36385160      -0.95852017
H        2.09934698      -1.73514099       0.75889222
H        1.39421284      -0.41040209       1.83104458
17
Frame=1 idx=004336 GeodesicLength=0.05600908166105282 rxn_smarts="[C:1]([C:2]([C:3]([H:11])([H:12])[H:13])([N:4]1[C:5]([H:14])([H:15])[C:6]1([H:16])[H:17])[H:10])([H:7])([H:8])[H:9]>>[C:1]([C:2]([C:3]([H:11])([H:12])[H:13])=[N+:4]1[C-:5]([H:15])[C:6]1([H:16])[H:17])([H:7])([H:8])[H:9].[H:10][H:14]"
C       -1.48562647      -0.85326912       0.60809278
C       -0.51993706      -0.02936787      -0.18160812
C       -1.03086372       0.75712513      -1.34751164
N        0.75124393      -0.39300402      -0.22243139
C        1.90680044       0.34758710      -0.16772280
C        1.67413997      -0.74724727       0.82179781
H       -1.96173914      -1.61106391      -0.02333426
H       -0.99130727      -1.35815113       1.43724795
H       -2.27682980      -0.21639351       1.00454810
H        0.21076055       1.53950922       0.83586490
H       -1.28967830       0.09370971      -2.17999487
H       -0.27264865       1.46040328      -1.69356781
H       -1.92947715       1.30733130      -1.06875119
H        1.06379653       1.50710168       0.56024513
H        2.64799339       0.36708475      -0.95459946
H        2.10089017      -1.74185596       0.74059977
H        1.40248259      -0.42949936       1.83112510
17
Frame=2 idx=004336 GeodesicLength=0.11200044608239013 rxn_smarts="[C:1]([C:2]([C:3]([H:11])([H:12])[H:13])([N:4]1[C:5]([H:14])([H:15])[C:6]1([H:16])[H:17])[H:10])([H:7])([H:8])[H:9]>>[C:1]([C:2]([C:3]([H:11])([H:12])[H:13])=[N+:4]1[C-:5]([H:15])[C:6]1([H:16])[H:17])([H:7])([H:8])[H:9].[H:10][H:14]"
C       -1.48651023      -0.84670924       0.61155583
C       -0.52027745      -0.01514460      -0.17092660
C       -1.03129164       0.75477130      -1.34921236
N        0.75067190      -0.39082765      -0.22192744
C        1.90759008       0.35260472      -0.15969213
C        1.67637692      -0.75447918       0.81669924
H       -1.95151915      -1.60977878      -0.02151682
H       -0.99491817      -1.34744799       1.44492102
H       -2.28574389      -0.21530952       1.00099253
H        0.19837945       1.54036711       0.83202088
H       -1.28410267       0.08245904      -2.17617214
H       -0.27449486       1.45726656      -1.70027835
H       -1.93347869       1.30388240      -1.07953344
H        1.07145863       1.51500480       0.57031719
H        2.64515820       0.37060276      -0.95035785
H        2.10230593      -1.74838482       0.72215874
H        1.41039564      -0.44887690       1.83095170
17
Frame=3 idx=004336 GeodesicLength=0.16797134964942068 rxn_smarts="[C:1]([C:2]([C:3]([H:11])([H:12])[H:13])([N:4]1[C:5]([H:14])([H:15])[C:6]1([H:16])[H:17])[H:10])([H:7])([H:8])[H:9]>>[C:1]([C:2]([C:3]([H:11])([H:12])[H:13])=[N+:4]1[C-:5]([H:15])[C:6]1([H:16])[H:17])([H:7])([H:8])[H:9].[H:10][H:14]"
C       -1.48729032      -0.84010579       0.61499130
C       -0.52057859      -0.00118197      -0.16060693
C       -1.03167890       0.75226732      -1.35089733
N        0.75008891      -0.38861880      -0.22146456
C        1.90836213       0.35757761      -0.15143516
C        1.67848406      -0.76170889       0.81151999
H       -1.94142868      -1.60834456      -0.01944458
H       -0.99843938      -1.33674336       1.45249883
H       -2.29425298      -0.21408884       0.99751321
H        0.18593435       1.54141679       0.82810150
H       -1.27867139       0.07126859      -2.17227552
H       -0.27629056       1.45389891      -1.70703273
H       -1.93728977       1.30028114      -1.09014993
H        1.07913152       1.52294106       0.58038704
H        2.64235732       0.37438299      -0.94580096
H        2.10360492      -1.75471964       0.70357823
H        1.41795738      -0.46852255       1.83051761
17
Frame=4 idx=004336 GeodesicLength=0.22391520507745197 rxn_smarts="[C:1]([C:2]([C:3]([H:11])([H:12])[H:13])([N:4]1[C:5]([H:14])([H:15])[C:6]1([H:16])[H:17])[H:10])([H:7])([H:8])[H:9]>>[C:1]([C:2]([C:3]([H:11])([H:12])[H:13])=[N+:4]1[C-:5]([H:15])[C:6]1([H:16])[H:17])([H:7])([H:8])[H:9].[H:10][H:14]"
C       -1.48797102      -0.83348322       0.61838811
C       -0.52084061       0.01251502      -0.15064691
C       -1.03203118       0.74963069      -1.35255936
N        0.74950338      -0.38639182      -0.22104240
C        1.90912117       0.36248961      -0.14296985
C        1.68046476      -0.76891194       0.80628024
H       -1.93150386      -1.60675927      -0.01715625
H       -1.00186083      -1.32610181       1.45994016
H       -2.30235094      -0.21274998       0.99414220
H        0.17340851       1.54263834       0.82410372
H       -1.27340437       0.06016475      -2.16831039
H       -0.27803474       1.45031187      -1.71381737
H       -1.94091188       1.29655437      -1.10057331
H        1.08684094       1.53092495       0.59040728
H        2.63960455       0.37837270      -0.94094206
H        2.10479511      -1.76083676       0.68492938
H        1.42517099      -0.48836752       1.82982682
17
Frame=5 idx=004336 GeodesicLength=0.27984011241427836 rxn_smarts="[C:1]([C:2]([C:3]([H:11])([H:12])[H:13])([N:4]1[C:5]([H:14])([H:15])[C:6]1([H:16])[H:17])[H:10])([H:7])([H:8])[H:9]>>[C:1]([C:2]([C:3]([H:11])([H:12])[H:13])=[N+:4]1[C-:5]([H:15])[C:6]1([H:16])[H:17])([H:7])([H:8])[H:9].[H:10][H:14]"
C       -1.48856235      -0.82684893       0.62174880
C       -0.52106989       0.02595689      -0.14103202
C       -1.03235331       0.74687402      -1.35419809
N        0.74891870      -0.38415050      -0.22065894
C        1.90987263       0.36732998      -0.13430501
C        1.68232778      -0.77608412       0.80098455
H       -1.92174013      -1.60504031      -0.01466581
H       -1.00518706      -1.31552057       1.46725462
H       -2.31007105      -0.21130709       0.99087493
H        0.16078655       1.54401723       0.82004484
H       -1.26829276       0.04915355      -2.16428638
H       -0.27972990       1.44652267      -1.72062002
H       -1.94436279       1.29270880      -1.11080952
H        1.09461956       1.53896764       0.60035575
H        2.63690642       0.38254631      -0.93579499
H        2.10588950      -1.76673085       0.66622624
H        1.43204809      -0.50839471       1.82888105
17
Frame=6 idx=004336 GeodesicLength=0.33572452943973996 rxn_smarts="[C:1]([C:2]([C:3]([H:11])([H:12])[H:13])([N:4]1[C:5]([H:14])([H:15])[C:6]1([H:16])[H:17])[H:10])([H:7])([H:8])[H:9]>>[C:1]([C:2]([C:3]([H:11])([H:12])[H:13])=[N+:4]1[C-:5]([H:15])[C:6]1([H:16])[H:17])([H:7])([H:8])[H:9].[H:10][H:14]"
C       -1.48906952      -0.82020939       0.62507378
C       -0.52127072       0.03915397      -0.13174781
C       -1.03264639       0.74400747      -1.35580962
N        0.74833556      -0.38189836      -0.22031161
C        1.91061533       0.37208903      -0.12544852
C        1.68407599      -0.78322101       0.79563506
H       -1.91212785      -1.60320374      -0.01198592
H       -1.00842002      -1.30499613       1.47444673
H       -2.31743725      -0.20977316       0.98770398
H        0.14805506       1.54554135       0.81593768
H       -1.26332683       0.03823754      -2.16020495
H       -0.28137654       1.44254458      -1.72742609
H       -1.94765162       1.28875057      -1.12086115
H        1.10249511       1.54708021       0.61021050
H        2.63426092       0.38688046      -0.93036939
H        2.10689277      -1.77239708       0.64748054
H        1.43859600      -0.52858630       1.82767680
17
Frame=7 idx=004336 GeodesicLength=0.3916058902329616 rxn_smarts="[C:1]([C:2]([C:3]([H:11])([H:12])[H:13])([N:4]1[C:5]([H:14])([H:15])[C:6]1([H:16])[H:17])[H:10])([H:7])([H:8])[H:9]>>[C:1]([C:2]([C:3]([H:11])([H:12])[H:13])=[N+:4]1[C-:5]([H:15])[C:6]1([H:16])[H:17])([H:7])([H:8])[H:9].[H:10][H:14]"
C       -1.48949641      -0.81359153       0.62834795
C       -0.52144380       0.05210561      -0.12278558
C       -1.03291740       0.74105184      -1.35738256
N        0.74775801      -0.37964850      -0.21999553
C        1.91135381       0.37674700      -0.11642843
C        1.68571264      -0.79029572       0.79025792
H       -1.90269180      -1.60125032      -0.00916494
H       -1.01155218      -1.29459643       1.48147504
H       -2.32445080      -0.20817544       0.98465174
H        0.13519143       1.54718549       0.81179109
H       -1.25851620       0.02744842      -2.15607066
H       -0.28298011       1.43840015      -1.73421227
H       -1.95078670       1.28470467      -1.13070188
H        1.11051392       1.55528546       0.61991026
H        2.63167518       0.39130671      -0.92469409
H        2.10780603      -1.77781852       0.62877609
H        1.44482439      -0.54885888       1.82622586
17
Frame=8 idx=004336 GeodesicLength=0.44744999270782604 rxn_smarts="[C:1]([C:2]([C:3]([H:11])([H:12])[H:13])([N:4]1[C:5]([H:14])([H:15])[C:6]1([H:16])[H:17])[H:10])([H:7])([H:8])[H:9]>>[C:1]([C:2]([C:3]([H:11])([H:12])[H:13])=[N+:4]1[C-:5]([H:15])[C:6]1([H:16])[H:17])([H:7])([H:8])[H:9].[H:10][H:14]"
C       -1.48985266      -0.80698513       0.63158533
C       -0.52159612       0.06483091      -0.11412542
C       -1.03316589       0.73800858      -1.35892342
N        0.74718509      -0.37739516      -0.21970868
C        1.91208757       0.38130397      -0.10723871
C        1.68724619      -0.79732356       0.78483939
H       -1.89339817      -1.59920501      -0.00618895
H       -1.01459712      -1.28426445       1.48838496
H       -2.33116113      -0.20651670       0.98168660
H        0.12217909       1.54894978       0.80762118
H       -1.25384087       0.01676434      -2.15188630
H       -0.28453794       1.43409335      -1.74097927
H       -1.95378333       1.28056434      -1.14036090
H        1.11870390       1.56358612       0.62947587
H        2.62914572       0.39584266      -0.91876845
H        2.10863876      -1.78300633       0.61006559
H        1.45074693      -0.56924770       1.82452119
17
Frame=9 idx=004336 GeodesicLength=0.5032865154215678 rxn_smarts="[C:1]([C:2]([C:3]([H:11])([H:12])[H:13])([N:4]1[C:5]([H:14])([H:15])[C:6]1([H:16])[H:17])[H:10])([H:7])([H:8])[H:9]>>[C:1]([C:2]([C:3]([H:11])([H:12])[H:13])=[N+:4]1[C-:5]([H:15])[C:6]1([H:16])[H:17])([H:7])([H:8])[H:9].[H:10][H:14]"
C       -1.49014243      -0.80041793       0.63476952
C       -0.52173124       0.07733099      -0.10575468
C       -1.03339738       0.73489871      -1.36041818
N        0.74661713      -0.37514923      -0.21944472
C        1.91281987       0.38574032      -0.09791030
C        1.68867676      -0.80427740       0.77940588
H       -1.88426475      -1.59707183      -0.00310659
H       -1.01755107      -1.27406517       1.49513706
H       -2.33756997      -0.20482852       0.97882614
H        0.10899878       1.55081102       0.80344990
H       -1.24929866       0.00621818      -2.14765783
H       -0.28605861       1.42965641      -1.74769629
H       -1.95665153       1.27634744      -1.14981490
H        1.12711830       1.57200694       0.63883078
H        2.62667459       0.40041360      -0.91262659
H        2.10938853      -1.78794549       0.59143349
H        1.45637167      -0.58966805       1.82257731
17
Frame=10 idx=004336 GeodesicLength=0.5591053092831444 rxn_smarts="[C:1]([C:2]([C:3]([H:11])([H:12])[H:13])([N:4]1[C:5]([H:14])([H:15])[C:6]1([H:16])[H:17])[H:10])([H:7])([H:8])[H:9]>>[C:1]([C:2]([C:3]([H:11])([H:12])[H:13])=[N+:4]1[C-:5]([H:15])[C:6]1([H:16])[H:17])([H:7])([H:8])[H:9].[H:10][H:14]"
C       -1.49037345      -0.79387680       0.63791299
C       -0.52185405       0.08962476      -0.09765769
C       -1.03361193       0.73172120      -1.36187479
N        0.74605229      -0.37290317      -0.21920194
C        1.91354890       0.39005676      -0.08843525
C        1.69001018      -0.81117588       0.77394164
H       -1.87525680      -1.59487414       0.00010140
H       -1.02042607      -1.26393344       1.50177716
H       -2.34372177      -0.20311053       0.97603818
H        0.09562135       1.55276642       0.79929187
H       -1.24487022      -0.00421140      -2.14338843
H       -0.28754350       1.42509318      -1.75436497
H       -1.95940729       1.27204361      -1.15909647
H        1.13579243       1.58055252       0.64800414
H        2.62425804       0.40503696      -0.90626345
H        2.11006853      -1.79264782       0.57283046
H        1.46171337      -0.61016222       1.82038513
17
Frame=11 idx=004336 GeodesicLength=0.614915455872649 rxn_smarts="[C:1]([C:2]([C:3]([H:11])([H:12])[H:13])([N:4]1[C:5]([H:14])([H:15])[C:6]1([H:16])[H:17])[H:10])([H:7])([H:8])[H:9]>>[C:1]([C:2]([C:3]([H:11])([H:12])[H:13])=[N+:4]1[C-:5]([H:15])[C:6]1([H:16])[H:17])([H:7])([H:8])[H:9].[H:10][H:14]"
C       -1.49055303      -0.78734828       0.64102922
C       -0.52197118       0.10173348      -0.08981709
C       -1.03381079       0.72847319      -1.36330105
N        0.74548738      -0.37064620      -0.21897661
C        1.91427427       0.39425424      -0.07880202
C        1.69125021      -0.81803611       0.76843198
H       -1.86635277      -1.59262161       0.00345034
H       -1.02323023      -1.25382569       1.50833721
H       -2.34964858      -0.20135945       0.97330952
H        0.08201628       1.55482463       0.79515588
H       -1.24052473      -0.01454990      -2.13908163
H       -0.28899806       1.42040974      -1.76098719
H       -1.96207391       1.26762933      -1.16824168
H        1.14477263       1.58922963       0.65702178
H        2.62189616       0.40972867      -0.89966982
H        2.11068748      -1.79712236       0.55420603
H        1.46677887      -0.63077331       1.81793512
17
Frame=12 idx=004336 GeodesicLength=0.6707274707148538 rxn_smarts="[C:1]([C:2]([C:3]([H:11])([H:12])[H:13])([N:4]1[C:5]([H:14])([H:15])[C:6]1([H:16])[H:17])[H:10])([H:7])([H:8])[H:9]>>[C:1]([C:2]([C:3]([H:11])([H:12])[H:13])=[N+:4]1[C-:5]([H:15])[C:6]1([H:16])[H:17])([H:7])([H:8])[H:9].[H:10][H:14]"
C       -1.49068239      -0.78082063       0.64412823
C       -0.52208542       0.11367713      -0.08222007
C       -1.03399314       0.72515180      -1.36470461
N        0.74492032      -0.36836570      -0.21876450
C        1.91499045       0.39833338      -0.06899859
C        1.69239850      -0.82487409       0.76286224
H       -1.85752078      -1.59032800       0.00695713
H       -1.02596594      -1.24369169       1.51484928
H       -2.35537768      -0.19957522       0.97061794
H        0.06814415       1.55699046       0.79104763
H       -1.23624736      -0.02482074      -2.13473338
H       -0.29042478       1.41560503      -1.76757004
H       -1.96466302       1.26309294      -1.17728212
H        1.15410255       1.59804011       0.66591369
H        2.61958152       0.41450624      -0.89283170
H        2.11124111      -1.80138039       0.53551438
H        1.47158192      -0.65154064       1.81521450
17
Frame=13 idx=004336 GeodesicLength=0.7265384361075421 rxn_smarts="[C:1]([C:2]([C:3]([H:11])([H:12])[H:13])([N:4]1[C:5]([H:14])([H:15])[C:6]1([H:16])[H:17])[H:10])([H:7])([H:8])[H:9]>>[C:1]([C:2]([C:3]([H:11])([H:12])[H:13])=[N+:4]1[C-:5]([H:15])[C:6]1([H:16])[H:17])([H:7])([H:8])[H:9].[H:10][H:14]"
C       -1.49076717      -0.77432353       0.64719086
C       -0.52220206       0.12545487      -0.07485143
C       -1.03416542       0.72177728      -1.36606634
N        0.74435020      -0.36607285      -0.21855735
C        1.91570588       0.40227427      -0.05905986
C        1.69345721      -0.83165839       0.75726077
H       -1.84876424      -1.58800252       0.01057110
H       -1.02863849      -1.23358923       1.52127839
H       -2.36092117      -0.19780126       0.96796067
H        0.05399231       1.55924280       0.78699089
H       -1.23204155      -0.03498737      -2.13034518
H       -0.29182948       1.41070776      -1.77407858
H       -1.96718071       1.25845412      -1.18618302
H        1.16384482       1.60700916       0.67460188
H        2.61731709       0.41929361      -0.88579287
H        2.11171655      -1.80540722       0.51684071
H        1.47612624      -0.67237150       1.81223935
17
Frame=14 idx=004336 GeodesicLength=0.7823494855998134 rxn_smarts="[C:1]([C:2]([C:3]([H:11])([H:12])[H:13])([N:4]1[C:5]([H:14])([H:15])[C:6]1([H:16])[H:17])[H:10])([H:7])([H:8])[H:9]>>[C:1]([C:2]([C:3]([H:11])([H:12])[H:13])=[N+:4]1[C-:5]([H:15])[C:6]1([H:16])[H:17])([H:7])([H:8])[H:9].[H:10][H:14]"
C       -1.49081200      -0.76786861       0.65021553
C       -0.52232434       0.13707521      -0.06769883
C       -1.03432857       0.71835943      -1.36738458
N        0.74377560      -0.36376774      -0.21835103
C        1.91642152       0.40607166      -0.04899949
C        1.69442642      -0.83838411       0.75163577
H       -1.84007613      -1.58565968       0.01427769
H       -1.03125317      -1.22353154       1.52762498
H       -2.36629572      -0.19605780       0.96533496
H        0.03953044       1.56157872       0.78300150
H       -1.22789967      -0.04504492      -2.12592167
H       -0.29321388       1.40573582      -1.78050554
H       -1.96963412       1.25371891      -1.19494562
H        1.17405693       1.61615601       0.68306547
H        2.61510150       0.42406731      -0.87857257
H        2.11210602      -1.80920754       0.49820525
H        1.48041918      -0.69324114       1.80901817
17
Frame=15 idx=004336 GeodesicLength=0.8381624311246899 rxn_smarts="[C:1]([C:2]([C:3]([H:11])([H:12])[H:13])([N:4]1[C:5]([H:14])([H:15])[C:6]1([H:16])[H:17])[H:10])([H:7])([H:8])[H:9]>>[C:1]([C:2]([C:3]([H:11])([H:12])[H:13])=[N+:4]1[C-:5]([H:15])[C:6]1([H:16])[H:17])([H:7])([H:8])[H:9].[H:10][H:14]"
C       -1.49081977      -0.76146324       0.65319646
C       -0.52245670       0.14854584      -0.06074994
C       -1.03448671       0.71490637      -1.36865504
N        0.74319506      -0.36145016      -0.21813890
C        1.91713761       0.40971703      -0.03882909
C        1.69530897      -0.84504487       0.74599609
H       -1.83144882      -1.58330378       0.01805877
H       -1.03381190      -1.21352948       1.53388200
H       -2.37151516      -0.19436120       0.96273374
H        0.02472280       1.56399149       0.77909055
H       -1.22381447      -0.05498649      -2.12146368
H       -0.29458540       1.40070369      -1.78683795
H       -1.97203507       1.24888944      -1.20357068
H        1.18479842       1.62549135       0.69128502
H        2.61293185       0.42879842      -0.87118506
H        2.11240678      -1.81278192       0.47963067
H        1.48447250      -0.71412249       1.80555707
17
Frame=16 idx=004336 GeodesicLength=0.8939597713236226 rxn_smarts="[C:1]([C:2]([C:3]([H:11])([H:12])[H:13])([N:4]1[C:5]([H:14])([H:15])[C:6]1([H:16])[H:17])[H:10])([H:7])([H:8])[H:9]>>[C:1]([C:2]([C:3]([H:11])([H:12])[H:13])=[N+:4]1[C-:5]([H:15])[C:6]1([H:16])[H:17])([H:7])([H:8])[H:9].[H:10][H:14]"
C       -1.49079394      -0.75514437       0.65611276
C       -0.52260151       0.15986130      -0.05398934
C       -1.03463870       0.71144081      -1.36985417
N        0.74260377      -0.35913248      -0.21791308
C        1.91785589       0.41319561      -0.02859319
C        1.69609641      -0.85160687       0.74037403
H       -1.82288854      -1.58094961       0.02186234
H       -1.03632082      -1.20365540       1.54000879
H       -2.37658243      -0.19276025       0.96015575
H        0.00955107       1.56645127       0.77529208
H       -1.21978636      -0.06477167      -2.11696858
H       -0.29594211       1.39564521      -1.79303637
H       -1.97437519       1.24399251      -1.21201697
H        1.19614314       1.63505150       0.69915350
H        2.61080244       0.43341383      -0.86368004
H        2.11259552      -1.81611986       0.46121368
H        1.48828135      -0.73491155       1.80187880
