19
Frame=0 idx=010906 GeodesicLength=0.0 rxn_smarts="[C:1]([C:2]([C@@:3]1([H:13])[C:4]([H:14])([H:15])[C:5]([H:16])([H:17])[C:6]([H:18])([H:19])[O:7]1)([H:11])[H:12])([H:8])([H:9])[H:10]>>[C:1]([H:8])([H:9])([H:10])[H:16].[C:2](=[C:3]([O:7][C:6]([C:5](=[C:4]([H:14])[H:15])[H:17])([H:18])[H:19])[H:13])([H:11])[H:12]"
C        1.27555317      -1.09986705      -1.15572078
C        1.29052568       1.10296687       0.02766408
C       -0.04644958       1.31791003       0.47341946
C       -1.25196963       0.65748858      -0.46298071
C       -1.16448802      -0.67980872       0.04978758
C       -0.97841333      -0.55894286       1.52862372
O       -0.35911570       0.71629877       1.72648449
H        0.80395191      -1.92677591      -1.69509069
H        1.71756221      -0.42860273      -1.88177284
H        2.04430980      -1.49823215      -0.49928545
H        1.95284008       0.47214342       0.59665204
H        1.74187214       1.81902013      -0.64871161
H       -0.28883909       2.38122810       0.49984408
H       -2.09261585       1.25680408      -0.11256560
H       -1.12066691       0.77390033      -1.53918887
H        0.25801925      -0.82134005      -0.50182384
H       -1.52536258      -1.57282018      -0.43811071
H       -1.91823896      -0.56211474       2.09544449
H       -0.33847468      -1.34925600       1.93733116
19
Frame=1 idx=010906 GeodesicLength=0.16329683445800286 rxn_smarts="[C:1]([C:2]([C@@:3]1([H:13])[C:4]([H:14])([H:15])[C:5]([H:16])([H:17])[C:6]([H:18])([H:19])[O:7]1)([H:11])[H:12])([H:8])([H:9])[H:10]>>[C:1]([H:8])([H:9])([H:10])[H:16].[C:2](=[C:3]([O:7][C:6]([C:5](=[C:4]([H:14])[H:15])[H:17])([H:18])[H:19])[H:13])([H:11])[H:12]"
C        1.30519705      -1.09884199      -1.14654299
C        1.29961672       1.09806607       0.01511858
C       -0.02912445       1.30798762       0.48483991
C       -1.27330118       0.66858641      -0.46362485
C       -1.19628355      -0.66953249       0.04519024
C       -0.99525316      -0.56297619       1.52421188
O       -0.33108749       0.68668881       1.72825226
H        0.87824476      -1.97673473      -1.64281161
H        1.69314074      -0.43479520      -1.90948060
H        2.11805424      -1.45561761      -0.51878826
H        1.99017373       0.50861027       0.59558204
H        1.73076298       1.81531664      -0.67361427
H       -0.27734807       2.36895504       0.53969821
H       -2.10522207       1.27939430      -0.11287794
H       -1.14512173       0.78359445      -1.54029261
H        0.22911453      -0.84890885      -0.50793696
H       -1.58322914      -1.55430847      -0.43780559
H       -1.92964655      -0.53863860       2.09900330
H       -0.37868736      -1.37684550       1.92187926
19
Frame=2 idx=010906 GeodesicLength=0.3263947552302998 rxn_smarts="[C:1]([C:2]([C@@:3]1([H:13])[C:4]([H:14])([H:15])[C:5]([H:16])([H:17])[C:6]([H:18])([H:19])[O:7]1)([H:11])[H:12])([H:8])([H:9])[H:10]>>[C:1]([H:8])([H:9])([H:10])[H:16].[C:2](=[C:3]([O:7][C:6]([C:5](=[C:4]([H:14])[H:15])[H:17])([H:18])[H:19])[H:13])([H:11])[H:12]"
C        1.33609007      -1.09862095      -1.13441386
C        1.30886797       1.09311953       0.00208273
C       -0.01121909       1.29685964       0.49611237
C       -1.29534180       0.68069124      -0.46406903
C       -1.22852144      -0.65850123       0.03983377
C       -1.01172227      -0.56779672       1.51874508
O       -0.30212678       0.65385649       1.72841718
H        0.95561212      -2.02246207      -1.58510940
H        1.66902925      -0.44696419      -1.93354508
H        2.19196808      -1.41105144      -0.53974286
H        2.02811340       0.54892208       0.59269795
H        1.71774233       1.81081993      -0.70020855
H       -0.26505183       2.35462295       0.58075678
H       -2.11812108       1.30280198      -0.11227224
H       -1.17072942       0.79508762      -1.54116024
H        0.19816354      -0.87701554      -0.51743381
H       -1.64394140      -1.53346025      -0.43751206
H       -1.93910213      -0.51579609       2.10254509
H       -0.41970953      -1.40511297       1.90427619
19
Frame=3 idx=010906 GeodesicLength=0.48928960309765535 rxn_smarts="[C:1]([C:2]([C@@:3]1([H:13])[C:4]([H:14])([H:15])[C:5]([H:16])([H:17])[C:6]([H:18])([H:19])[O:7]1)([H:11])[H:12])([H:8])([H:9])[H:10]>>[C:1]([H:8])([H:9])([H:10])[H:16].[C:2](=[C:3]([O:7][C:6]([C:5](=[C:4]([H:14])[H:15])[H:17])([H:18])[H:19])[H:13])([H:11])[H:12]"
C        1.36830496      -1.09902309      -1.11910821
C        1.31836411       1.08825760      -0.01130584
C        0.00729144       1.28448300       0.50717472
C       -1.31801244       0.69382841      -0.46430676
C       -1.26102094      -0.64672097       0.03363989
C       -1.02770022      -0.57348116       1.51208372
O       -0.27228092       0.61763950       1.72667846
H        1.03531364      -2.06375204      -1.52135426
H        1.64548135      -0.46530357      -1.95363810
H        2.26569816      -1.36463583      -0.56255080
H        2.06632506       0.59326299       0.58782500
H        1.70278643       1.80547683      -0.72833256
H       -0.25196165       2.33805637       0.62298979
H       -2.13128251       1.32696205      -0.11072254
H       -1.19734415       0.80847622      -1.54176397
H        0.16521874      -0.90563249      -0.53054923
H       -1.70736034      -1.51007443      -0.43709624
H       -1.94638421      -0.49380625       2.10597298
H       -0.46143650      -1.43401315       1.88436395
19
Frame=4 idx=010906 GeodesicLength=0.6519640370661941 rxn_smarts="[C:1]([C:2]([C@@:3]1([H:13])[C:4]([H:14])([H:15])[C:5]([H:16])([H:17])[C:6]([H:18])([H:19])[O:7]1)([H:11])[H:12])([H:8])([H:9])[H:10]>>[C:1]([H:8])([H:9])([H:10])[H:16].[C:2](=[C:3]([O:7][C:6]([C:5](=[C:4]([H:14])[H:15])[H:17])([H:18])[H:19])[H:13])([H:11])[H:12]"
C        1.40182030      -1.09970752      -1.10065859
C        1.32822114       1.08361917      -0.02486833
C        0.02642585       1.27084327       0.51794856
C       -1.34118637       0.70793190      -0.46435703
C       -1.29352104      -0.63426586       0.02658024
C       -1.04306166      -0.58005161       1.50414844
O       -0.24165885       0.57799368       1.72273312
H        1.11644814      -2.10018574      -1.45118871
H        1.62284086      -0.48977175      -1.96949815
H        2.33850765      -1.31665035      -0.58763014
H        2.10436836       0.64161012       0.58082878
H        1.68601070       1.79924240      -0.75768015
H       -0.23813487       2.31910008       0.66627462
H       -2.14467221       1.35171877      -0.10830323
H       -1.22471585       0.82369056      -1.54210715
H        0.13049918      -0.93480512      -0.54725119
H       -1.77313139      -1.48406954      -0.43631703
H       -1.95131046      -0.47283916       2.10919263
H       -0.50374950      -1.46340329       1.86215332
19
Frame=5 idx=010906 GeodesicLength=0.8143426656204575 rxn_smarts="[C:1]([C:2]([C@@:3]1([H:13])[C:4]([H:14])([H:15])[C:5]([H:16])([H:17])[C:6]([H:18])([H:19])[O:7]1)([H:11])[H:12])([H:8])([H:9])[H:10]>>[C:1]([H:8])([H:9])([H:10])[H:16].[C:2](=[C:3]([O:7][C:6]([C:5](=[C:4]([H:14])[H:15])[H:17])([H:18])[H:19])[H:13])([H:11])[H:12]"
C        1.43648117      -1.10017343      -1.07953379
C        1.33862082       1.07929745      -0.03828735
C        0.04621265       1.25592763       0.52836591
C       -1.36465300       0.72275566      -0.46431138
C       -1.32568513      -0.62130112       0.01872392
C       -1.05772328      -0.58739050       1.49498112
O       -0.21046827       0.53508639       1.71634347
H        1.19813856      -2.13117268      -1.37480133
H        1.60114251      -0.51983822      -1.98113328
H        2.40938168      -1.26752778      -0.61554804
H        2.14168113       0.69356132       0.57184152
H        1.66782638       1.79211835      -0.78762199
H       -0.22367418       2.29758379       0.71029753
H       -2.15823009       1.37675179      -0.10533413
H       -1.25241041       0.84032122      -1.54226921
H        0.09444391      -0.96469980      -0.56700953
H       -1.84069458      -1.45552075      -0.43479437
H       -1.95381487      -0.45286003       2.11211181
H       -0.54657501      -1.49291929       1.83797912
19
Frame=6 idx=010906 GeodesicLength=0.976408897957306 rxn_smarts="[C:1]([C:2]([C@@:3]1([H:13])[C:4]([H:14])([H:15])[C:5]([H:16])([H:17])[C:6]([H:18])([H:19])[O:7]1)([H:11])[H:12])([H:8])([H:9])[H:10]>>[C:1]([H:8])([H:9])([H:10])[H:16].[C:2](=[C:3]([O:7][C:6]([C:5](=[C:4]([H:14])[H:15])[H:17])([H:18])[H:19])[H:13])([H:11])[H:12]"
C        1.47215545      -1.09986980      -1.05648814
C        1.34969697       1.07533808      -0.05128252
C        0.06662062       1.23980511       0.53833150
C       -1.38824217       0.73805157      -0.46426165
C       -1.35723606      -0.60801952       0.01022320
C       -1.07162332      -0.59533719       1.48471540
O       -0.17904919       0.48926747       1.70732841
H        1.27955319      -2.15600699      -1.29290296
H        1.58077578      -0.55474806      -1.98863901
H        2.47723353      -1.21805495      -0.64662519
H        2.17768105       0.74844996       0.56103154
H        1.64874725       1.78413128      -0.81745143
H       -0.20873577       2.27349664       0.75464945
H       -2.17194342       1.40178817      -0.10216754
H       -1.28002639       0.85790507      -1.54234331
H        0.05741003      -0.99554847      -0.58912005
H       -1.90935035      -1.42465057      -0.43203095
H       -1.95388066      -0.43383805       2.11471573
H       -0.58978655      -1.52215974       1.81231753
19
Frame=7 idx=010906 GeodesicLength=1.138166069382557 rxn_smarts="[C:1]([C:2]([C@@:3]1([H:13])[C:4]([H:14])([H:15])[C:5]([H:16])([H:17])[C:6]([H:18])([H:19])[O:7]1)([H:11])[H:12])([H:8])([H:9])[H:10]>>[C:1]([H:8])([H:9])([H:10])[H:16].[C:2](=[C:3]([O:7][C:6]([C:5](=[C:4]([H:14])[H:15])[H:17])([H:18])[H:19])[H:13])([H:11])[H:12]"
C        1.50871587      -1.09830335      -1.03251668
C        1.36159101       1.07169576      -0.06353852
C        0.08763015       1.22251441       0.54778987
C       -1.41180235       0.75351429      -0.46433272
C       -1.38799698      -0.59460434       0.00127779
C       -1.08475519      -0.60363600       1.47354857
O       -0.14774733       0.44099959       1.69560902
H        1.36032507      -2.17407452      -1.20660737
H        1.56177838      -0.59349210      -1.99236290
H        2.54118874      -1.16900112      -0.68107108
H        2.21180728       0.80540060       0.54883876
H        1.62943739       1.77534352      -0.84635720
H       -0.19347194       2.24681063       0.79886650
H       -2.18580580       1.42654168      -0.09925707
H       -1.30718631       0.87583242      -1.54246009
H        0.01964927      -1.02766092      -0.61268030
H       -1.97847139      -1.39169913      -0.42752829
H       -1.95156790      -0.41555433       2.11700860
H       -0.63331797      -1.55062709       1.78577310
19
Frame=8 idx=010906 GeodesicLength=1.2996714704813548 rxn_smarts="[C:1]([C:2]([C@@:3]1([H:13])[C:4]([H:14])([H:15])[C:5]([H:16])([H:17])[C:6]([H:18])([H:19])[O:7]1)([H:11])[H:12])([H:8])([H:9])[H:10]>>[C:1]([H:8])([H:9])([H:10])[H:16].[C:2](=[C:3]([O:7][C:6]([C:5](=[C:4]([H:14])[H:15])[H:17])([H:18])[H:19])[H:13])([H:11])[H:12]"
C        1.54615076      -1.09513820      -1.00849323
C        1.37439021       1.06828346      -0.07486639
C        0.10919053       1.20412135       0.55668549
C       -1.43529366       0.76897494      -0.46461131
C       -1.41796248      -0.58116582      -0.00792130
C       -1.09713943      -0.61209197       1.46167320
O       -0.11692601       0.39072654       1.68116413
H        1.44038251      -2.18489323      -1.11705092
H        1.54430868      -0.63523167      -1.99259943
H        2.60081136      -1.12116627      -0.71882870
H        2.24365835       0.86361182       0.53568567
H        1.61047779       1.76581439      -0.87374773
H       -0.17801349       2.21759992       0.84255505
H       -2.19987769       1.45090045      -0.09692355
H       -1.33370240       0.89370012      -1.54273291
H       -0.01889526      -1.06132022      -0.63702144
H       -2.04753469      -1.35687317      -0.42087063
H       -1.94695178      -0.39789323       2.11905068
H       -0.67707331      -1.57795921       1.75885332
19
Frame=9 idx=010906 GeodesicLength=1.4610354205994815 rxn_smarts="[C:1]([C:2]([C@@:3]1([H:13])[C:4]([H:14])([H:15])[C:5]([H:16])([H:17])[C:6]([H:18])([H:19])[O:7]1)([H:11])[H:12])([H:8])([H:9])[H:10]>>[C:1]([H:8])([H:9])([H:10])[H:16].[C:2](=[C:3]([O:7][C:6]([C:5](=[C:4]([H:14])[H:15])[H:17])([H:18])[H:19])[H:13])([H:11])[H:12]"
C        1.58450994      -1.09024729      -0.98510994
C        1.38813047       1.06499871      -0.08516987
C        0.13127558       1.18463984       0.56497579
C       -1.45875919       0.78435351      -0.46512919
C       -1.44726542      -0.56771580      -0.01723329
C       -1.10878338      -0.62054568       1.44918658
O       -0.08681183       0.33879186       1.66393322
H        1.52011383      -2.18816185      -1.02520687
H        1.52842898      -0.67933716      -1.98957846
H        2.65599086      -1.07519132      -0.75950944
H        2.27293666       0.92245420       0.52198404
H        1.59229763       1.75559989      -0.89923623
H       -0.16241396       2.18587469       0.88541938
H       -2.21422782       1.47483834      -0.09533651
H       -1.35958267       0.91125695      -1.54319859
H       -0.05861143      -1.09673116      -0.66173609
H       -2.11624635      -1.32023542      -0.41175835
H       -1.94002282      -0.38075863       2.12087384
H       -0.72095907      -1.60388367       1.73182997
19
Frame=10 idx=010906 GeodesicLength=1.6223477840477059 rxn_smarts="[C:1]([C:2]([C@@:3]1([H:13])[C:4]([H:14])([H:15])[C:5]([H:16])([H:17])[C:6]([H:18])([H:19])[O:7]1)([H:11])[H:12])([H:8])([H:9])[H:10]>>[C:1]([H:8])([H:9])([H:10])[H:16].[C:2](=[C:3]([O:7][C:6]([C:5](=[C:4]([H:14])[H:15])[H:17])([H:18])[H:19])[H:13])([H:11])[H:12]"
C        1.62392859      -1.08364638      -0.96269125
C        1.40283451       1.06174758      -0.09448811
C        0.15385120       1.16408357       0.57261258
C       -1.48232681       0.79974072      -0.46586461
C       -1.47612822      -0.55418379      -0.02657601
C       -1.11969912      -0.62896182       1.43612673
O       -0.05760255       0.28538990       1.64385114
H        1.59999759      -2.18364289      -0.93173520
H        1.51424814      -0.72559163      -1.98325368
H        2.70700326      -1.03157016      -0.80268354
H        2.29949614       0.98156973       0.50800603
H        1.57516211       1.74467801      -0.92277807
H       -0.14669861       2.15168128       0.92730371
H       -2.22898815       1.49850300      -0.09447232
H       -1.38498956       0.92855436      -1.54386858
H       -0.10008086      -1.13402821      -0.68677511
H       -2.18438282      -1.28176867      -0.40004558
H       -1.93076584      -0.36422324       2.12252469
H       -0.76485901      -1.62833137       1.70480719
19
Frame=11 idx=010906 GeodesicLength=1.7837656498785177 rxn_smarts="[C:1]([C:2]([C@@:3]1([H:13])[C:4]([H:14])([H:15])[C:5]([H:16])([H:17])[C:6]([H:18])([H:19])[O:7]1)([H:11])[H:12])([H:8])([H:9])[H:10]>>[C:1]([H:8])([H:9])([H:10])[H:16].[C:2](=[C:3]([O:7][C:6]([C:5](=[C:4]([H:14])[H:15])[H:17])([H:18])[H:19])[H:13])([H:11])[H:12]"
C        1.66458254      -1.07551077      -0.94133488
C        1.41847942       1.05845282      -0.10292829
C        0.17691120       1.14241361       0.57952255
C       -1.50616806       0.81529727      -0.46673071
C       -1.50483574      -0.54041681      -0.03591116
C       -1.12986857      -0.63734727       1.42241338
O       -0.02937477       0.23060374       1.62071531
H        1.68084784      -2.17116688      -0.83705703
H        1.50183432      -0.77399795      -1.97337524
H        2.75425289      -0.99063243      -0.84770699
H        2.32321294       1.04076275       0.49390144
H        1.55917163       1.73299080      -0.94447899
H       -0.13080398       2.11497060       0.96809847
H       -2.24427001       1.52208262      -0.09415922
H       -1.41021688       0.94578114      -1.54465460
H       -0.14416739      -1.17322396      -0.71232077
H       -2.25187500      -1.24133283      -0.38563334
H       -1.91905069      -0.34842366       2.12399533
H       -0.80866170      -1.65130280       1.67764475
19
Frame=12 idx=010906 GeodesicLength=1.9454064200680454 rxn_smarts="[C:1]([C:2]([C@@:3]1([H:13])[C:4]([H:14])([H:15])[C:5]([H:16])([H:17])[C:6]([H:18])([H:19])[O:7]1)([H:11])[H:12])([H:8])([H:9])[H:10]>>[C:1]([H:8])([H:9])([H:10])[H:16].[C:2](=[C:3]([O:7][C:6]([C:5](=[C:4]([H:14])[H:15])[H:17])([H:18])[H:19])[H:13])([H:11])[H:12]"
C        1.70672044      -1.06607645      -0.92077791
C        1.43503918       1.05506606      -0.11068081
C        0.20045392       1.11958705       0.58561368
C       -1.53048392       0.83130615      -0.46757327
C       -1.53368345      -0.52620017      -0.04525188
C       -1.13925920      -0.64580793       1.40787571
O       -0.00219687       0.17440145       1.59423782
H        1.76347911      -2.15049806      -0.74129687
H        1.49125839      -0.82497443      -1.95929538
H        2.79828630      -0.95259582      -0.89407181
H        2.34399355       1.10010157       0.47965687
H        1.54428690       1.72034641      -0.96469297
H       -0.11462852       2.07567868       1.00779829
H       -2.26020547       1.54586218      -0.09404622
H       -1.43562941       0.96335999      -1.54540917
H       -0.19185057      -1.21422447      -0.73880693
H       -2.31863611      -1.19874934      -0.36854346
H       -1.90471477      -0.33365331       2.12523244
H       -0.85222951      -1.67292955       1.65003186
19
Frame=13 idx=010906 GeodesicLength=2.1075119603617147 rxn_smarts="[C:1]([C:2]([C@@:3]1([H:13])[C:4]([H:14])([H:15])[C:5]([H:16])([H:17])[C:6]([H:18])([H:19])[O:7]1)([H:11])[H:12])([H:8])([H:9])[H:10]>>[C:1]([H:8])([H:9])([H:10])[H:16].[C:2](=[C:3]([O:7][C:6]([C:5](=[C:4]([H:14])[H:15])[H:17])([H:18])[H:19])[H:13])([H:11])[H:12]"
C        1.75067109      -1.05569784      -0.90057826
C        1.45246860       1.05154735      -0.11800953
C        0.22449164       1.09552465       0.59073060
C       -1.55553553       0.84812587      -0.46818051
C       -1.56302031      -0.51124547      -0.05463321
C       -1.14781914      -0.65449635       1.39225392
O        0.02392208       0.11668326       1.56396576
H        1.84910448      -2.12137490      -0.64437165
H        1.48261495      -0.87907517      -1.94005547
H        2.83966773      -0.91758796      -0.94112442
H        2.36172609       1.15968221       0.46507992
H        1.53040251       1.70648890      -0.98388927
H       -0.09800389       2.03366215       1.04637297
H       -2.27695657       1.57017307      -0.09364841
H       -1.46171738       0.98185940      -1.54591870
H       -0.24437828      -1.25677807      -0.76688299
H       -2.38470698      -1.15375600      -0.34875377
H       -1.88751678      -0.32032708       2.12616869
H       -0.89541431      -1.69340803       1.62147433
19
Frame=14 idx=010906 GeodesicLength=2.2702106348954607 rxn_smarts="[C:1]([C:2]([C@@:3]1([H:13])[C:4]([H:14])([H:15])[C:5]([H:16])([H:17])[C:6]([H:18])([H:19])[O:7]1)([H:11])[H:12])([H:8])([H:9])[H:10]>>[C:1]([H:8])([H:9])([H:10])[H:16].[C:2](=[C:3]([O:7][C:6]([C:5](=[C:4]([H:14])[H:15])[H:17])([H:18])[H:19])[H:13])([H:11])[H:12]"
C        1.79685896      -1.04472853      -0.87989941
C        1.47069512       1.04787792      -0.12522869
C        0.24904103       1.07012994       0.59468767
C       -1.58155094       0.86622689      -0.46823530
C       -1.59313952      -0.49519475      -0.06415446
C       -1.15545663      -0.66365556       1.37511105
O        0.04893924       0.05727684       1.52926653
H        1.93906743      -2.08324545      -0.54585806
H        1.47586084      -0.93745761      -1.91399263
H        2.87886748      -0.88567870      -0.98863526
H        2.37616957       1.21987540       0.44983169
H        1.51726912       1.69093779      -1.00271825
H       -0.08072232       1.98870381       1.08387151
H       -2.29463923       1.59541117      -0.09226725
H       -1.48896918       1.00207628      -1.54583613
H       -0.30309236      -1.30047370      -0.79737600
H       -2.45005027      -1.10602081      -0.32635390
H       -1.86713662      -0.30903351       2.12657913
H       -0.93801171      -1.71302742       1.59120776
19
Frame=15 idx=010906 GeodesicLength=2.43382573635492 rxn_smarts="[C:1]([C:2]([C@@:3]1([H:13])[C:4]([H:14])([H:15])[C:5]([H:16])([H:17])[C:6]([H:18])([H:19])[O:7]1)([H:11])[H:12])([H:8])([H:9])[H:10]>>[C:1]([H:8])([H:9])([H:10])[H:16].[C:2](=[C:3]([O:7][C:6]([C:5](=[C:4]([H:14])[H:15])[H:17])([H:18])[H:19])[H:13])([H:11])[H:12]"
C        1.84585232      -1.03357694      -0.85763870
C        1.48963616       1.04405432      -0.13277258
C        0.27413648       1.04328296       0.59719999
C       -1.60882933       0.88619084      -0.46731898
C       -1.62438705      -0.47760599      -0.07395788
C       -1.16205378      -0.67361972       1.35585830
O        0.07283751      -0.00403536       1.48926133
H        2.03518271      -2.03525147      -0.44505957
H        1.47101658      -1.00152310      -1.87871138
H        2.91622365      -0.85704187      -1.03633519
H        2.38702548       1.28110483       0.43327420
H        1.50459717       1.67304253      -1.02201678
H       -0.06248934       1.94048506       1.12031514
H       -2.31341703       1.62202951      -0.08897539
H       -1.51801930       1.02504841      -1.54471046
H       -0.36964643      -1.34463344      -0.83140618
H       -2.51471365      -1.05515920      -0.30137763
H       -1.84317328      -0.30060751       2.12617751
H       -0.97977886      -1.73218385       1.55819426
19
Frame=16 idx=010906 GeodesicLength=2.5987905742216326 rxn_smarts="[C:1]([C:2]([C@@:3]1([H:13])[C:4]([H:14])([H:15])[C:5]([H:16])([H:17])[C:6]([H:18])([H:19])[O:7]1)([H:11])[H:12])([H:8])([H:9])[H:10]>>[C:1]([H:8])([H:9])([H:10])[H:16].[C:2](=[C:3]([O:7][C:6]([C:5](=[C:4]([H:14])[H:15])[H:17])([H:18])[H:19])[H:13])([H:11])[H:12]"
C        1.89839086      -1.02265040      -0.83228879
C        1.50918935       1.04007584      -0.14119410
C        0.29981735       1.01483881       0.59787618
C       -1.63769878       0.90872937      -0.46486664
C       -1.65709948      -0.45793854      -0.08425333
C       -1.16745301      -0.68483313       1.33366171
O        0.09557199      -0.06749298       1.44276453
H        2.13975384      -1.97593895      -0.34105283
H        1.46802901      -1.07311303      -1.83054207
H        2.95177633      -0.83210759      -1.08425620
H        2.39384964       1.34391083       0.41445105
H        1.49204084       1.65185841      -1.04283433
H       -0.04294829       1.88854024       1.15572470
H       -2.33347441       1.65053199      -0.08255238
H       -1.54958989       1.05211379      -1.54191425
H       -0.44591243      -1.38822321      -0.87036003
H       -2.57870339      -1.00074145      -0.27386870
H       -1.81514328      -0.29617792       2.12448875
H       -1.02039627      -1.75138209       1.52101674
