12
Frame=0 idx=005366 GeodesicLength=0.0 rxn_smarts="[O:1]([C@@:2]1([H:8])[C:3]([H:9])([H:10])[C@:4]1([C:5](=[O:6])[H:12])[H:11])[H:7]>>[H:11][H:12].[O:1]([C@@:2]1([H:8])[C:3]([H:9])([H:10])[C:4]1=[C:5]=[O:6])[H:7]"
O       -1.74229796       0.90759145       0.58382178
C       -1.12625979      -0.08500123      -0.16685112
C        0.00940525       0.28618805      -1.11791816
C        0.25686893      -0.42009602       0.16019692
C        1.15523368      -0.28782895       1.20155520
O        1.28089559      -0.40161863       2.37526925
H       -2.41854426       1.32319597       0.04448785
H       -1.77292658      -0.90379342      -0.47704878
H        0.08935614      -0.25668021      -2.05309063
H        0.25925589       1.33994273      -1.16680643
H        1.69652210      -1.10004497       0.12701582
H        2.31249098      -0.40185478       0.48936826
12
Frame=1 idx=005366 GeodesicLength=0.09058508375233075 rxn_smarts="[O:1]([C@@:2]1([H:8])[C:3]([H:9])([H:10])[C@:4]1([C:5](=[O:6])[H:12])[H:11])[H:7]>>[H:11][H:12].[O:1]([C@@:2]1([H:8])[C:3]([H:9])([H:10])[C:4]1=[C:5]=[O:6])[H:7]"
O       -1.74708146       0.90413018       0.58257898
C       -1.12588157      -0.08573019      -0.16781070
C        0.00918853       0.29175714      -1.11338377
C        0.25724699      -0.41542770       0.16609760
C        1.15422345      -0.27541266       1.20755913
O        1.27880436      -0.38584122       2.38152300
H       -2.42171283       1.31930736       0.04083064
H       -1.76645588      -0.90943081      -0.47727244
H        0.09883399      -0.25076572      -2.04779892
H        0.25657666       1.34611265      -1.16068625
H        1.68293034      -1.11950041       0.11235742
H        2.32332742      -0.41919863       0.47600534
12
Frame=2 idx=005366 GeodesicLength=0.1811694278603767 rxn_smarts="[O:1]([C@@:2]1([H:8])[C:3]([H:9])([H:10])[C@:4]1([C:5](=[O:6])[H:12])[H:11])[H:7]>>[H:11][H:12].[O:1]([C@@:2]1([H:8])[C:3]([H:9])([H:10])[C:4]1=[C:5]=[O:6])[H:7]"
O       -1.75185872       0.90053236       0.58129069
C       -1.12528291      -0.08650687      -0.16871040
C        0.00907865       0.29744080      -1.10880507
C        0.25787074      -0.41055733       0.17207125
C        1.15322502      -0.26235374       1.21373227
O        1.27674532      -0.36989862       2.38788938
H       -2.42492444       1.31513513       0.03709310
H       -1.75960001      -0.91517573      -0.47742004
H        0.10842891      -0.24462935      -2.04242364
H        0.25379728       1.35243547      -1.15456198
H        1.66850403      -1.13932310       0.09735407
H        2.33401612      -0.43709904       0.46249037
12
Frame=3 idx=005366 GeodesicLength=0.2717511894053093 rxn_smarts="[O:1]([C@@:2]1([H:8])[C:3]([H:9])([H:10])[C@:4]1([C:5](=[O:6])[H:12])[H:11])[H:7]>>[H:11][H:12].[O:1]([C@@:2]1([H:8])[C:3]([H:9])([H:10])[C:4]1=[C:5]=[O:6])[H:7]"
O       -1.75661366       0.89678916       0.57996054
C       -1.12444527      -0.08733791      -0.16954160
C        0.00908109       0.30323572      -1.10418396
C        0.25876276      -0.40548791       0.17811361
C        1.15222627      -0.24861195       1.22008620
O        1.27469614      -0.35380998       2.39437995
H       -2.42816078       1.31067029       0.03327662
H       -1.75234046      -0.92103137      -0.47747925
H        0.11813559      -0.23827043      -2.03696974
H        0.25091690       1.35890754      -1.14844191
H        1.65319753      -1.15950187       0.08196565
H        2.34454389      -0.45555130       0.44883389
12
Frame=4 idx=005366 GeodesicLength=0.3623290643396365 rxn_smarts="[O:1]([C@@:2]1([H:8])[C:3]([H:9])([H:10])[C@:4]1([C:5](=[O:6])[H:12])[H:11])[H:7]>>[H:11][H:12].[O:1]([C@@:2]1([H:8])[C:3]([H:9])([H:10])[C:4]1=[C:5]=[O:6])[H:7]"
O       -1.76133108       0.89288764       0.57859309
C       -1.12334828      -0.08823092      -0.17029590
C        0.00920293       0.30914174      -1.09952097
C        0.25994813      -0.40022200       0.18422035
C        1.15121455      -0.23414176       1.22663194
O        1.27263686      -0.33757867       2.40100601
H       -2.43140543       1.30589862       0.02938410
H       -1.74465526      -0.92700196      -0.47744108
H        0.12795159      -0.23168220      -2.03144268
H        0.24793358       1.36552889      -1.14233083
H        1.63695460      -1.18003520       0.06615041
H        2.35489780      -0.47456419       0.43504556
12
Frame=5 idx=005366 GeodesicLength=0.4529014836665383 rxn_smarts="[O:1]([C@@:2]1([H:8])[C:3]([H:9])([H:10])[C@:4]1([C:5](=[O:6])[H:12])[H:11])[H:7]>>[H:11][H:12].[O:1]([C@@:2]1([H:8])[C:3]([H:9])([H:10])[C:4]1=[C:5]=[O:6])[H:7]"
O       -1.76599369       0.88881441       0.57719355
C       -1.12196954      -0.08919407      -0.17096378
C        0.00945195       0.31515818      -1.09481694
C        0.26145491      -0.39476358       0.19038582
C        1.15017335      -0.21889487       1.23338198
O        1.27054524      -0.32120770       2.40777948
H       -2.43464019       1.30080481       0.02541916
H       -1.73652112      -0.93309196      -0.47729470
H        0.13787300      -0.22485789      -2.02584921
H        0.24484589       1.37229878      -1.13623423
H        1.61971474      -1.20091953       0.04986021
H        2.36506545      -0.49414657       0.42113866
12
Frame=6 idx=005366 GeodesicLength=0.543466497703575 rxn_smarts="[O:1]([C@@:2]1([H:8])[C:3]([H:9])([H:10])[C@:4]1([C:5](=[O:6])[H:12])[H:11])[H:7]>>[H:11][H:12].[O:1]([C@@:2]1([H:8])[C:3]([H:9])([H:10])[C:4]1=[C:5]=[O:6])[H:7]"
O       -1.77058370       0.88455251       0.57576828
C       -1.12028426      -0.09023659      -0.17153552
C        0.00983751       0.32128646      -1.09007175
C        0.26331444      -0.38911743       0.19660316
C        1.14908344      -0.20281879       1.24034873
O        1.26840052      -0.30468689       2.41471146
H       -2.43784742       1.29536884       0.02138731
H       -1.72791154      -0.93930649      -0.47703126
H        0.14789733      -0.21778585      -2.02019710
H        0.24165191       1.37921881      -1.13015483
H        1.60140730      -1.22215639       0.03304235
H        2.37503446      -0.51431817       0.40712917
12
Frame=7 idx=005366 GeodesicLength=0.6340245344087877 rxn_smarts="[O:1]([C@@:2]1([H:8])[C:3]([H:9])([H:10])[C@:4]1([C:5](=[O:6])[H:12])[H:11])[H:7]>>[H:11][H:12].[O:1]([C@@:2]1([H:8])[C:3]([H:9])([H:10])[C:4]1=[C:5]=[O:6])[H:7]"
O       -1.77508549       0.88007705       0.57432527
C       -1.11826454      -0.09136921      -0.17200252
C        0.01037188       0.32753428      -1.08528273
C        0.26556182      -0.38328735       0.20286581
C        1.14792604      -0.18585335       1.24754238
O        1.26618969      -0.28797770       2.42181110
H       -2.44101382       1.28956047       0.01729656
H       -1.71879375      -0.94565243      -0.47664936
H        0.15802820      -0.21044244      -2.01449490
H        0.23834750       1.38629793      -1.12408839
H        1.58194153      -1.24376239       0.01564360
H        2.38479096      -0.53512486       0.39303319
12
Frame=8 idx=005366 GeodesicLength=0.7245747663240906 rxn_smarts="[O:1]([C@@:2]1([H:8])[C:3]([H:9])([H:10])[C@:4]1([C:5](=[O:6])[H:12])[H:11])[H:7]>>[H:11][H:12].[O:1]([C@@:2]1([H:8])[C:3]([H:9])([H:10])[C:4]1=[C:5]=[O:6])[H:7]"
O       -1.77947971       0.87536266       0.57287341
C       -1.11587952      -0.09260356      -0.17235446
C        0.01106820       0.33390769      -1.08044755
C        0.26823651      -0.37728054       0.20916489
C        1.14667549      -0.16793580       1.25497475
O        1.26389768      -0.27104304       2.42908696
H       -2.44412264       1.28334840       0.01315608
H       -1.70913373      -0.95213625      -0.47614536
H        0.16826661      -0.20280488      -2.00875274
H        0.23492938       1.39354289      -1.11803162
H        1.56122093      -1.26574666      -0.00239891
H        2.39432080      -0.55661091       0.37887455
12
Frame=9 idx=005366 GeodesicLength=0.815116391156685 rxn_smarts="[O:1]([C@@:2]1([H:8])[C:3]([H:9])([H:10])[C@:4]1([C:5](=[O:6])[H:12])[H:11])[H:7]>>[H:11][H:12].[O:1]([C@@:2]1([H:8])[C:3]([H:9])([H:10])[C:4]1=[C:5]=[O:6])[H:7]"
O       -1.78374419       0.87038158       0.57142281
C       -1.11309501      -0.09395264      -0.17257962
C        0.01194108       0.34041230      -1.07556347
C        0.27138286      -0.37110768       0.21548963
C        1.14529895      -0.14899969       1.26265901
O        1.26150994      -0.25384139       2.43654636
H       -2.44715424       1.27669884       0.00897632
H       -1.69889534      -0.95876446      -0.47551543
H        0.17861231      -0.19484875      -2.00298233
H        0.23139475       1.40095975      -1.11198041
H        1.53913931      -1.28811435      -0.02115650
H        2.40360958      -0.57882350       0.36468363
12
Frame=10 idx=005366 GeodesicLength=0.9056484197494717 rxn_smarts="[O:1]([C@@:2]1([H:8])[C:3]([H:9])([H:10])[C@:4]1([C:5](=[O:6])[H:12])[H:11])[H:7]>>[H:11][H:12].[O:1]([C@@:2]1([H:8])[C:3]([H:9])([H:10])[C:4]1=[C:5]=[O:6])[H:7]"
O       -1.78785516       0.86510008       0.56998585
C       -1.10987307      -0.09543138      -0.17266582
C        0.01300752       0.34705578      -1.07062589
C        0.27505019      -0.36478367       0.22182743
C        1.14375760      -0.12897404       1.27060684
O        1.25901562      -0.23631213       2.44419462
H       -2.45008831       1.26957138       0.00477087
H       -1.68803904      -0.96554343      -0.47476066
H        0.18906713      -0.18654260      -1.99719688
H        0.22774047       1.40855667      -1.10592546
H        1.51557469      -1.31087223      -0.04070778
H        2.41264236      -0.60182445       0.35049687
12
Frame=11 idx=005366 GeodesicLength=0.9961721490225212 rxn_smarts="[O:1]([C@@:2]1([H:8])[C:3]([H:9])([H:10])[C@:4]1([C:5](=[O:6])[H:12])[H:11])[H:7]>>[H:11][H:12].[O:1]([C@@:2]1([H:8])[C:3]([H:9])([H:10])[C:4]1=[C:5]=[O:6])[H:7]"
O       -1.79178751       0.85947817       0.56857657
C       -1.10617129      -0.09705658      -0.17260034
C        0.01428750       0.35384851      -1.06562794
C        0.27929409      -0.35832705       0.22816487
C        1.14200574      -0.10778258       1.27882905
O        1.25641049      -0.21837622       2.45203435
H       -2.45290474       1.26191755       0.00055545
H       -1.67652110      -0.97247976      -0.47388760
H        0.19963567      -0.17784733      -1.99141080
H        0.22396278       1.41634492      -1.09985229
H        1.49038531      -1.33402848      -0.06113742
H        2.42140306      -0.62569115       0.33635609
12
Frame=12 idx=005366 GeodesicLength=1.0866957869049574 rxn_smarts="[O:1]([C@@:2]1([H:8])[C:3]([H:9])([H:10])[C@:4]1([C:5](=[O:6])[H:12])[H:11])[H:7]>>[H:11][H:12].[O:1]([C@@:2]1([H:8])[C:3]([H:9])([H:10])[C:4]1=[C:5]=[O:6])[H:7]"
O       -1.79551252       0.85347476       0.56721233
C       -1.10194331      -0.09884729      -0.17236790
C        0.01580201       0.36079898      -1.06056347
C        0.28417621      -0.35176442       0.23448723
C        1.13998488      -0.08534624       1.28733900
O        1.25369122      -0.19995114       2.46007087
H       -2.45557889       1.25368907      -0.00365244
H       -1.66429651      -0.97958098      -0.47290423
H        0.21032021      -0.16872427      -1.98564389
H        0.22005772       1.42433519      -1.09374659
H        1.46341997      -1.35758207      -0.08254188
H        2.42987902      -0.65050160       0.32231097
12
Frame=13 idx=005366 GeodesicLength=1.1771994605447653 rxn_smarts="[O:1]([C@@:2]1([H:8])[C:3]([H:9])([H:10])[C@:4]1([C:5](=[O:6])[H:12])[H:11])[H:7]>>[H:11][H:12].[O:1]([C@@:2]1([H:8])[C:3]([H:9])([H:10])[C:4]1=[C:5]=[O:6])[H:7]"
O       -1.79899386       0.84705166       0.56590721
C       -1.09713839      -0.10082104      -0.17194877
C        0.01757505       0.36790740      -1.05542609
C        0.28976678      -0.34512772       0.24076725
C        1.13761699      -0.06159365       1.29614846
O        1.25085001      -0.18097502       2.46829626
H       -2.45808014       1.24483533      -0.00783510
H       -1.65132367      -0.98684544      -0.47180140
H        0.22111676      -0.15914246      -1.97990906
H        0.21602863       1.43252246      -1.08759835
H        1.43452001      -1.38149903      -0.10502849
H        2.43806183      -0.67631248       0.30842809
12
Frame=14 idx=005366 GeodesicLength=1.267704019835618 rxn_smarts="[O:1]([C@@:2]1([H:8])[C:3]([H:9])([H:10])[C@:4]1([C:5](=[O:6])[H:12])[H:11])[H:7]>>[H:11][H:12].[O:1]([C@@:2]1([H:8])[C:3]([H:9])([H:10])[C:4]1=[C:5]=[O:6])[H:7]"
O       -1.80220213       0.84012650       0.56467946
C       -1.09169648      -0.10300293      -0.17133348
C        0.01963952       0.37520414      -1.05018432
C        0.29614246      -0.33844741       0.24699645
C        1.13483914      -0.03642932       1.30524724
O        1.24791576      -0.16124017       2.47668781
H       -2.46039006       1.23525533      -0.01196828
H       -1.63753847      -0.99427877      -0.47063265
H        0.23205278      -0.14901251      -1.97421042
H        0.21186579       1.44093638      -1.08134493
H        1.40344159      -1.40580058      -0.12869640
H        2.44593011      -0.70331067       0.29475952
12
Frame=15 idx=005366 GeodesicLength=1.358209149516835 rxn_smarts="[O:1]([C@@:2]1([H:8])[C:3]([H:9])([H:10])[C@:4]1([C:5](=[O:6])[H:12])[H:11])[H:7]>>[H:11][H:12].[O:1]([C@@:2]1([H:8])[C:3]([H:9])([H:10])[C:4]1=[C:5]=[O:6])[H:7]"
O       -1.80508493       0.83269517       0.56354953
C       -1.08556646      -0.10541418      -0.17048466
C        0.02201648       0.38265330      -1.04484545
C        0.30338098      -0.33180099       0.25314717
C        1.13150364      -0.00980899       1.31467702
O        1.24486655      -0.14077946       2.48526839
H       -2.46244676       1.22495036      -0.01604221
H       -1.62293007      -1.00187468      -0.46936669
H        0.24309029      -0.13835876      -1.96858428
H        0.20759166       1.44954042      -1.07500688
H        1.37006610      -1.43038321      -0.15367300
H        2.45351251      -0.73141898       0.28136107
12
Frame=16 idx=005366 GeodesicLength=1.4487157155898576 rxn_smarts="[O:1]([C@@:2]1([H:8])[C:3]([H:9])([H:10])[C@:4]1([C:5](=[O:6])[H:12])[H:11])[H:7]>>[H:11][H:12].[O:1]([C@@:2]1([H:8])[C:3]([H:9])([H:10])[C:4]1=[C:5]=[O:6])[H:7]"
O       -1.80759705       0.82471848       0.56252944
C       -1.07869286      -0.10807685      -0.16937198
C        0.02473618       0.39023694      -1.03938508
C        0.31156379      -0.32526137       0.25920286
C        1.12746451       0.01831708       1.32445208
O        1.24171503      -0.11951700       2.49402344
H       -2.46419906       1.21387307      -0.02005091
H       -1.60747909      -1.00961709      -0.46801477
H        0.25421843      -0.12716234      -1.96303692
H        0.20322640       1.45830688      -1.06855117
H        1.33419921      -1.45516477      -0.18006789
H        2.46084453      -0.76065304       0.26827089
