17
Frame=0 idx=006906 GeodesicLength=0.0 rxn_smarts="[C:1]([C@@:2]1([H:11])[O:3][C:4]([H:12])([H:13])[C@@:5]2([H:14])[C:6]([H:15])([H:16])[C@@:7]12[H:17])([H:8])([H:9])[H:10]>>[C:1]([C@@:7]([C:2](=[O:3])[H:11])([C:6]([C:5](=[C:4]([H:12])[H:13])[H:14])([H:15])[H:16])[H:17])([H:8])([H:9])[H:10]"
C       -2.12589809      -0.80880516       0.26709811
C       -1.04426059       0.19708429      -0.38410897
O       -1.02170839       1.35725879       0.20143509
C        1.62645433       1.60006906      -0.44323044
C        1.80043161       0.27997079      -0.24639467
C        1.07130569      -0.45524157       0.87216058
C        0.11179755      -0.69070342      -0.18801096
H       -3.05935894      -0.26003033       0.16415445
H       -1.92132798      -0.94816090       1.32867194
H       -2.21570169      -1.77311104      -0.23585473
H       -1.31390521       0.18250663      -1.46393434
H        2.11945219       2.09078449      -1.27518405
H        0.99724610       2.18744194       0.20859984
H        2.45170163      -0.29824290      -0.89075410
H        0.70545641       0.23808720       1.62417207
H        1.60486259      -1.31603972       1.26220510
H        0.21345274      -1.58286813      -0.80102493
17
Frame=1 idx=006906 GeodesicLength=0.08765483615701637 rxn_smarts="[C:1]([C@@:2]1([H:11])[O:3][C:4]([H:12])([H:13])[C@@:5]2([H:14])[C:6]([H:15])([H:16])[C@@:7]12[H:17])([H:8])([H:9])[H:10]>>[C:1]([C@@:7]([C:2](=[O:3])[H:11])([C:6]([C:5](=[C:4]([H:12])[H:13])[H:14])([H:15])[H:16])[H:17])([H:8])([H:9])[H:10]"
C       -2.10915891      -0.81201876       0.27554317
C       -1.04010408       0.20485494      -0.40975259
O       -0.99684107       1.37342541       0.15789852
C        1.60583626       1.60013417      -0.44427245
C        1.78840332       0.27758920      -0.24206992
C        1.05948889      -0.45529950       0.87553979
C        0.10309979      -0.69697804      -0.19045219
H       -3.04269990      -0.25752756       0.20310760
H       -1.90083584      -0.97110723       1.33354068
H       -2.22089134      -1.76653007      -0.24153706
H       -1.31503729       0.17451371      -1.48719172
H        2.09381526       2.08738403      -1.28167834
H        1.03074982       2.20242068       0.24351177
H        2.45222431      -0.29644238      -0.87740715
H        0.68986332       0.23707290       1.62672471
H        1.58973699      -1.31727577       1.26757297
H        0.21235046      -1.58421572      -0.80907778
17
Frame=2 idx=006906 GeodesicLength=0.17467053684425726 rxn_smarts="[C:1]([C@@:2]1([H:11])[O:3][C:4]([H:12])([H:13])[C@@:5]2([H:14])[C:6]([H:15])([H:16])[C@@:7]12[H:17])([H:8])([H:9])[H:10]>>[C:1]([C@@:7]([C:2](=[O:3])[H:11])([C:6]([C:5](=[C:4]([H:12])[H:13])[H:14])([H:15])[H:16])[H:17])([H:8])([H:9])[H:10]"
C       -2.09257884      -0.81557173       0.28396695
C       -1.03635143       0.21230427      -0.43445055
O       -0.97222269       1.38843351       0.11554659
C        1.58599812       1.60045449      -0.44462982
C        1.77644797       0.27534499      -0.23781824
C        1.04769795      -0.45468096       0.87897964
C        0.09430568      -0.70256254      -0.19280191
H       -3.02478074      -0.25463033       0.24273371
H       -1.88082949      -0.99712087       1.33758628
H       -2.22720278      -1.75884337      -0.24806758
H       -1.31657132       0.16742421      -1.50931115
H        2.07046021       2.08401409      -1.28656193
H        1.06292915       2.21563912       0.27317855
H        2.45262410      -0.29442339      -0.86391131
H        0.67444788       0.23697984       1.62909271
H        1.57453169      -1.31776717       1.27311390
H        0.21109453      -1.58499417      -0.81664585
17
Frame=3 idx=006906 GeodesicLength=0.26185191426032245 rxn_smarts="[C:1]([C@@:2]1([H:11])[O:3][C:4]([H:12])([H:13])[C@@:5]2([H:14])[C:6]([H:15])([H:16])[C@@:7]12[H:17])([H:8])([H:9])[H:10]>>[C:1]([C@@:7]([C:2](=[O:3])[H:11])([C:6]([C:5](=[C:4]([H:12])[H:13])[H:14])([H:15])[H:16])[H:17])([H:8])([H:9])[H:10]"
C       -2.07596094      -0.81954393       0.29234455
C       -1.03279986       0.21965814      -0.45826357
O       -0.94780956       1.40258128       0.07441752
C        1.56678154       1.60108750      -0.44465411
C        1.76447372       0.27316101      -0.23355053
C        1.03569459      -0.45360918       0.88268025
C        0.08546481      -0.70755163      -0.19503756
H       -3.00514720      -0.25123041       0.28318555
H       -1.86130577      -1.02656105       1.34071948
H       -2.23440581      -1.75006237      -0.25541787
H       -1.31810080       0.16157972      -1.53053665
H        2.04868524       2.08063375      -1.29081722
H        1.09400875       2.22786829       0.29822552
H        2.45283107      -0.29239468      -0.85015591
H        0.65888397       0.23761063       1.63153475
H        1.55887725      -1.31792409       1.27914979
H        0.20982899      -1.58530298      -0.82382399
17
Frame=4 idx=006906 GeodesicLength=0.3488284996810065 rxn_smarts="[C:1]([C@@:2]1([H:11])[O:3][C:4]([H:12])([H:13])[C@@:5]2([H:14])[C:6]([H:15])([H:16])[C@@:7]12[H:17])([H:8])([H:9])[H:10]>>[C:1]([C@@:7]([C:2](=[O:3])[H:11])([C:6]([C:5](=[C:4]([H:12])[H:13])[H:14])([H:15])[H:16])[H:17])([H:8])([H:9])[H:10]"
C       -2.05943475      -0.82405915       0.30072426
C       -1.02939766       0.22678182      -0.48116177
O       -0.92346412       1.41567714       0.03434955
C        1.54844874       1.60199201      -0.44438486
C        1.75252608       0.27118795      -0.22932740
C        1.02337652      -0.45189962       0.88636323
C        0.07650464      -0.71189384      -0.19717691
H       -2.98385644      -0.24785261       0.32444640
H       -1.84247276      -1.05909835       1.34256422
H       -2.24270356      -1.74017693      -0.26315441
H       -1.31956797       0.15659180      -1.55062494
H        2.02862573       2.07716844      -1.29443984
H        1.12448711       2.23901656       0.31941051
H        2.45290727      -0.29007665      -0.83604281
H        0.64309505       0.23902235       1.63363746
H        1.54255087      -1.31736851       1.28529765
H        0.20837526      -1.58501241      -0.83048033
17
Frame=5 idx=006906 GeodesicLength=0.4356715696766 rxn_smarts="[C:1]([C@@:2]1([H:11])[O:3][C:4]([H:12])([H:13])[C@@:5]2([H:14])[C:6]([H:15])([H:16])[C@@:7]12[H:17])([H:8])([H:9])[H:10]>>[C:1]([C@@:7]([C:2](=[O:3])[H:11])([C:6]([C:5](=[C:4]([H:12])[H:13])[H:14])([H:15])[H:16])[H:17])([H:8])([H:9])[H:10]"
C       -2.04308785      -0.82904383       0.30903976
C       -1.02638048       0.23383490      -0.50335179
O       -0.89960490       1.42812381      -0.00465969
C        1.53088237       1.60318217      -0.44385599
C        1.74080807       0.26924388      -0.22506106
C        1.01107287      -0.44969485       0.89030622
C        0.06755923      -0.71575109      -0.19932441
H       -2.96119430      -0.24429697       0.36643582
H       -1.82424807      -1.09446480       1.34318835
H       -2.25208978      -1.72924364      -0.27140995
H       -1.32138237       0.15249520      -1.57011272
H        2.00976333       2.07351743      -1.29784743
H        1.15428418       2.24959920       0.33741168
H        2.45318868      -0.28788582      -0.82161201
H        0.62730674       0.24126794       1.63590259
H        1.52615307      -1.31641518       1.29191503
H        0.20696919      -1.58446835      -0.83696440
17
Frame=6 idx=006906 GeodesicLength=0.5223225199045219 rxn_smarts="[C:1]([C@@:2]1([H:11])[O:3][C:4]([H:12])([H:13])[C@@:5]2([H:14])[C:6]([H:15])([H:16])[C@@:7]12[H:17])([H:8])([H:9])[H:10]>>[C:1]([C@@:7]([C:2](=[O:3])[H:11])([C:6]([C:5](=[C:4]([H:12])[H:13])[H:14])([H:15])[H:16])[H:17])([H:8])([H:9])[H:10]"
C       -2.02679454      -0.83446883       0.31736584
C       -1.02360001       0.24087086      -0.52482316
O       -0.87604865       1.43987929      -0.04269167
C        1.51420672       1.60457792      -0.44297527
C        1.72923130       0.26731853      -0.22073133
C        0.99862284      -0.44711448       0.89436970
C        0.05859242      -0.71906913      -0.20150382
H       -2.93717606      -0.24092346       0.40854281
H       -1.80664137      -1.13183725       1.34273591
H       -2.26191544      -1.71757417      -0.27951253
H       -1.32345302       0.14932262      -1.58887215
H        1.99197824       2.06963970      -1.30102386
H        1.18329449       2.25966164       0.35248628
H        2.45342950      -0.28572254      -0.80688605
H        0.61146616       0.24407486       1.63817355
H        1.50932749      -1.31521826       1.29870887
H        0.20547993      -1.58341731      -0.84336311
17
Frame=7 idx=006906 GeodesicLength=0.6092285170434505 rxn_smarts="[C:1]([C@@:2]1([H:11])[O:3][C:4]([H:12])([H:13])[C@@:5]2([H:14])[C:6]([H:15])([H:16])[C@@:7]12[H:17])([H:8])([H:9])[H:10]>>[C:1]([C@@:7]([C:2](=[O:3])[H:11])([C:6]([C:5](=[C:4]([H:12])[H:13])[H:14])([H:15])[H:16])[H:17])([H:8])([H:9])[H:10]"
C       -2.01038804      -0.84053309       0.32565348
C       -1.02087844       0.24775943      -0.54561124
O       -0.85260454       1.45074372      -0.08001427
C        1.49803639       1.60617693      -0.44212683
C        1.71750756       0.26558238      -0.21637443
C        0.98570265      -0.44396689       0.89844753
C        0.04954701      -0.72185381      -0.20365457
H       -2.91079046      -0.23780238       0.45186161
H       -1.78952880      -1.17206035       1.34033011
H       -2.27288521      -1.70440247      -0.28763984
H       -1.32531153       0.14685203      -1.60681831
H        1.97524135       2.06556568      -1.30407243
H        1.21220401       2.26894874       0.36491369
H        2.45344965      -0.28331004      -0.79151876
H        0.59511469       0.24752971       1.64008224
H        1.49168697      -1.31333653       1.30578296
H        0.20389674      -1.58189305      -0.84924094
17
Frame=8 idx=006906 GeodesicLength=0.6960438490013289 rxn_smarts="[C:1]([C@@:2]1([H:11])[O:3][C:4]([H:12])([H:13])[C@@:5]2([H:14])[C:6]([H:15])([H:16])[C@@:7]12[H:17])([H:8])([H:9])[H:10]>>[C:1]([C@@:7]([C:2](=[O:3])[H:11])([C:6]([C:5](=[C:4]([H:12])[H:13])[H:14])([H:15])[H:16])[H:17])([H:8])([H:9])[H:10]"
C       -1.99409069      -0.84715057       0.33389117
C       -1.01846952       0.25459365      -0.56585491
O       -0.82960267       1.46100461      -0.11657196
C        1.48252324       1.60800067      -0.44111484
C        1.70592748       0.26389702      -0.21195105
C        0.97265194      -0.44040175       0.90265466
C        0.04050694      -0.72422836      -0.20591259
H       -2.88276318      -0.23501203       0.49574797
H       -1.77297539      -1.21407422       1.33635077
H       -2.28468316      -1.69026746      -0.29548274
H       -1.32748982       0.14503148      -1.62428459
H        1.95944471       2.06128927      -1.30700348
H        1.24078834       2.27782204       0.37517373
H        2.45358030      -0.28092171      -0.77572657
H        0.57858230       0.25161310       1.64199575
H        1.47374722      -1.31109582       1.31314518
H        0.20232197      -1.58009990      -0.85505651
17
Frame=9 idx=006906 GeodesicLength=0.7828908821944628 rxn_smarts="[C:1]([C@@:2]1([H:11])[O:3][C:4]([H:12])([H:13])[C@@:5]2([H:14])[C:6]([H:15])([H:16])[C@@:7]12[H:17])([H:8])([H:9])[H:10]>>[C:1]([C@@:7]([C:2](=[O:3])[H:11])([C:6]([C:5](=[C:4]([H:12])[H:13])[H:14])([H:15])[H:16])[H:17])([H:8])([H:9])[H:10]"
C       -1.97783541      -0.85435254       0.34207095
C       -1.01629978       0.26137788      -0.58558389
O       -0.80697026       1.47063758      -0.15244352
C        1.46758089       1.61002799      -0.43997481
C        1.69439681       0.26227789      -0.20746158
C        0.95937079      -0.43645612       0.90694222
C        0.03145681      -0.72620719      -0.20828084
H       -2.85289519      -0.23272442       0.54014248
H       -1.75694361      -1.25754322       1.33071210
H       -2.29718082      -1.67516888      -0.30279546
H       -1.32988519       0.14383515      -1.64126452
H        1.94450202       2.05682058      -1.30982165
H        1.26913681       2.28624443       0.38345024
H        2.45370274      -0.27848587      -0.75946682
H        0.56177072       0.25622196       1.64383396
H        1.45535722      -1.30851232       1.32073475
H        0.20073545      -1.57799289      -0.86079363
17
Frame=10 idx=006906 GeodesicLength=0.8698087388152703 rxn_smarts="[C:1]([C@@:2]1([H:11])[O:3][C:4]([H:12])([H:13])[C@@:5]2([H:14])[C:6]([H:15])([H:16])[C@@:7]12[H:17])([H:8])([H:9])[H:10]>>[C:1]([C@@:7]([C:2](=[O:3])[H:11])([C:6]([C:5](=[C:4]([H:12])[H:13])[H:14])([H:15])[H:16])[H:17])([H:8])([H:9])[H:10]"
C       -1.96161735      -0.86216571       0.35016932
C       -1.01434605       0.26811224      -0.60483221
O       -0.78468877       1.47964314      -0.18767367
C        1.45315278       1.61225263      -0.43871375
C        1.68287965       0.26073348      -0.20290672
C        0.94582699      -0.43215873       0.91127681
C        0.02239073      -0.72782114      -0.21077207
H       -2.82110754      -0.23109654       0.58493456
H       -1.74142990      -1.30209329       1.32338971
H       -2.31029551      -1.65915761      -0.30937019
H       -1.33247395       0.14321771      -1.65777988
H        1.93035881       2.05217652      -1.31250839
H        1.29733188       2.29420610       0.38992896
H        2.45376778      -0.27596481      -0.74273276
H        0.54464301       0.26129414       1.64556022
H        1.43647569      -1.30560281       1.32850030
H        0.19913175      -1.57557531      -0.86647023
17
Frame=11 idx=006906 GeodesicLength=0.9568293924705713 rxn_smarts="[C:1]([C@@:2]1([H:11])[O:3][C:4]([H:12])([H:13])[C@@:5]2([H:14])[C:6]([H:15])([H:16])[C@@:7]12[H:17])([H:8])([H:9])[H:10]>>[C:1]([C@@:7]([C:2](=[O:3])[H:11])([C:6]([C:5](=[C:4]([H:12])[H:13])[H:14])([H:15])[H:16])[H:17])([H:8])([H:9])[H:10]"
C       -1.94544760      -0.87060529       0.35815341
C       -1.01260099       0.27480484      -0.62363599
O       -0.76275521       1.48804171      -0.22229063
C        1.43918652       1.61467361      -0.43732744
C        1.67135385       0.25926403      -0.19828703
C        0.93201134      -0.42754001       0.91563992
C        0.01330450      -0.72910399      -0.21339990
H       -2.78737505      -0.23028789       0.62998001
H       -1.72641841      -1.34732617       1.31439823
H       -2.32393625      -1.64230794      -0.31502489
H       -1.33525719       0.14314551      -1.67386933
H        1.91694943       2.04737060      -1.31504895
H        1.32545004       2.30169437       0.39478782
H        2.45374198      -0.27334168      -0.72553164
H        0.52718663       0.26678062       1.64716627
H        1.41709677      -1.30239568       1.33640794
H        0.19750963      -1.57286663      -0.87211780
17
Frame=12 idx=006906 GeodesicLength=1.043984624786582 rxn_smarts="[C:1]([C@@:2]1([H:11])[O:3][C:4]([H:12])([H:13])[C@@:5]2([H:14])[C:6]([H:15])([H:16])[C@@:7]12[H:17])([H:8])([H:9])[H:10]>>[C:1]([C@@:7]([C:2](=[O:3])[H:11])([C:6]([C:5](=[C:4]([H:12])[H:13])[H:14])([H:15])[H:16])[H:17])([H:8])([H:9])[H:10]"
C       -1.92934114      -0.87967773       0.36598817
C       -1.01105573       0.28146900      -0.64202601
O       -0.74116480       1.49585630      -0.25631099
C        1.42563561       1.61728928      -0.43580756
C        1.65980134       0.25786830      -0.19360130
C        0.91791755      -0.42262875       0.92001786
C        0.00419444      -0.73008515      -0.21617273
H       -2.75169617      -0.23044243       0.67512179
H       -1.71188749      -1.39288539       1.30379503
H       -2.33800918      -1.62469817      -0.31961286
H       -1.33823132       0.14359923      -1.68956792
H        1.90420730       2.04240888      -1.31743411
H        1.35355606       2.30869577       0.39816971
H        2.45359298      -0.27060473      -0.70787406
H        0.50939257       0.27263633       1.64864916
H        1.39721772      -1.29891897       1.34442854
H        0.19587028      -1.56988178      -0.87776274
17
Frame=13 idx=006906 GeodesicLength=1.131309220246956 rxn_smarts="[C:1]([C@@:2]1([H:11])[O:3][C:4]([H:12])([H:13])[C@@:5]2([H:14])[C:6]([H:15])([H:16])[C@@:7]12[H:17])([H:8])([H:9])[H:10]>>[C:1]([C@@:7]([C:2](=[O:3])[H:11])([C:6]([C:5](=[C:4]([H:12])[H:13])[H:14])([H:15])[H:16])[H:17])([H:8])([H:9])[H:10]"
C       -1.91331558      -0.88938098       0.37364049
C       -1.00970147       0.28812282      -0.66003016
O       -0.71990834       1.50311538      -0.28974575
C        1.41245856       1.62010199      -0.43414222
C        1.64820498       0.25654457      -0.18885136
C        0.90354319      -0.41745229       0.92439889
C       -0.00494563      -0.73079048      -0.21909560
H       -2.71410170      -0.23170251       0.72017572
H       -1.69781492      -1.43843279       1.29167530
H       -2.35240418      -1.60641843      -0.32300134
H       -1.34139470       0.14456866      -1.70490796
H        1.89207018       2.03729965      -1.31965302
H        1.38171442       2.31518704       0.40019902
H        2.45328634      -0.26774620      -0.68977806
H        0.49125820       0.27882063       1.65000938
H        1.37683972      -1.29520218       1.35253452
H        0.19421093      -1.56663486      -0.88342785
17
Frame=14 idx=006906 GeodesicLength=1.2188347969042583 rxn_smarts="[C:1]([C@@:2]1([H:11])[O:3][C:4]([H:12])([H:13])[C@@:5]2([H:14])[C:6]([H:15])([H:16])[C@@:7]12[H:17])([H:8])([H:9])[H:10]>>[C:1]([C@@:7]([C:2](=[O:3])[H:11])([C:6]([C:5](=[C:4]([H:12])[H:13])[H:14])([H:15])[H:16])[H:17])([H:8])([H:9])[H:10]"
C       -1.89738706      -0.89970473       0.38108032
C       -1.00852485       0.29478471      -0.67767052
O       -0.69896962       1.50984322      -0.32260375
C        1.39962178       1.62311033      -0.43231872
C        1.63655041       0.25529339      -0.18403409
C        0.88888315      -0.41202963       0.92877249
C       -0.01412196      -0.73123854      -0.22216825
H       -2.67462787      -0.23419066       0.76497406
H       -1.68417008      -1.48371096       1.27814301
H       -2.36702650      -1.58754120      -0.32509186
H       -1.34474057       0.14604789      -1.71991086
H        1.88048200       2.03203897      -1.32169688
H        1.40997879       2.32114667       0.40096217
H        2.45278787      -0.26475801      -0.67125479
H        0.47277770       0.28530066       1.65124254
H        1.35595757      -1.29126218       1.36070061
H        0.19252923      -1.56312993      -0.88912550
17
Frame=15 idx=006906 GeodesicLength=1.306601304078838 rxn_smarts="[C:1]([C@@:2]1([H:11])[O:3][C:4]([H:12])([H:13])[C@@:5]2([H:14])[C:6]([H:15])([H:16])[C@@:7]12[H:17])([H:8])([H:9])[H:10]>>[C:1]([C@@:7]([C:2](=[O:3])[H:11])([C:6]([C:5](=[C:4]([H:12])[H:13])[H:14])([H:15])[H:16])[H:17])([H:8])([H:9])[H:10]"
C       -1.88157161      -0.91063053       0.38828464
C       -1.00751486       0.30147974      -0.69496927
O       -0.67832978       1.51607470      -0.35489412
C        1.38709515       1.62632002      -0.43032391
C        1.62482401       0.25411389      -0.17915138
C        0.87393679      -0.40637927       0.93313183
C       -0.02334294      -0.73144536      -0.22538929
H       -2.63335120      -0.23802803       0.80932646
H       -1.67092011      -1.52847789       1.26332930
H       -2.38176040      -1.56815322      -0.32579196
H       -1.34826926       0.14803928      -1.73460046
H        1.86939237       2.02662958      -1.32355775
H        1.43840643       2.32654234       0.40053968
H        2.45206417      -0.26163881      -0.65232401
H        0.45395044       0.29204897       1.65235130
H        1.33457162      -1.28712068       1.36890701
H        0.19081920      -1.55937473      -0.89486806
17
Frame=16 idx=006906 GeodesicLength=1.394648678526956 rxn_smarts="[C:1]([C@@:2]1([H:11])[O:3][C:4]([H:12])([H:13])[C@@:5]2([H:14])[C:6]([H:15])([H:16])[C@@:7]12[H:17])([H:8])([H:9])[H:10]>>[C:1]([C@@:7]([C:2](=[O:3])[H:11])([C:6]([C:5](=[C:4]([H:12])[H:13])[H:14])([H:15])[H:16])[H:17])([H:8])([H:9])[H:10]"
C       -1.86588134      -0.92213371       0.39523717
C       -1.00665770       0.30823282      -0.71194478
O       -0.65796392       1.52184159      -0.38662834
C        1.37485504       1.62973502      -0.42814577
C        1.61301439       0.25300753      -0.17420148
C        0.85870139      -0.40051190       0.93747138
C       -0.03261684      -0.73142095      -0.22875381
H       -2.59035417      -0.24331667       0.85306455
H       -1.65802617      -1.57256423       1.24735910
H       -2.39650194      -1.54832354      -0.32503401
H       -1.35198040       0.15054659      -1.74899208
H        1.85875917       2.02106571      -1.32522887
H        1.46704466       2.33134146       0.39898419
H        2.45108328      -0.25838741      -0.63299904
H        0.43477220       0.29904607       1.65333432
H        1.31267736      -1.28278821       1.37713729
H        0.18907500      -1.55537018      -0.90065982
