10
Frame=0 idx=005722 GeodesicLength=0.0 rxn_smarts="[C:1]([C:2]([C:3]#[C:4][H:10])([H:8])[H:9])([H:5])([H:6])[H:7]>>[C:1](/[C:2](=[C:3](\[C:4][H:10])[H:9])[H:8])([H:5])([H:6])[H:7]"
C       -1.07516168       0.92973690       0.02749465
C       -0.30926670      -0.23496087       0.56001830
C        0.94975336      -0.57805283       0.10800220
C        2.15818130      -0.39761499      -0.32092335
H       -1.62937425       0.67380520      -0.87965945
H       -0.38634357       1.73891906      -0.22428723
H       -1.80338934       1.27285714       0.76437494
H       -0.79391862      -0.89548769       1.27170210
H        0.34521535      -1.54900319      -0.13980336
H        2.54430415      -0.96019872      -1.16691880
10
Frame=1 idx=005722 GeodesicLength=0.054602812845258204 rxn_smarts="[C:1]([C:2]([C:3]#[C:4][H:10])([H:8])[H:9])([H:5])([H:6])[H:7]>>[C:1](/[C:2](=[C:3](\[C:4][H:10])[H:9])[H:8])([H:5])([H:6])[H:7]"
C       -1.07171598       0.92693460       0.02547822
C       -0.31872190      -0.25181435       0.54502514
C        0.95181863      -0.58575079       0.11689483
C        2.15268140      -0.37548849      -0.31989497
H       -1.66161520       0.67185487      -0.85916112
H       -0.37847737       1.72132132      -0.25822239
H       -1.76646333       1.29385459       0.78309423
H       -0.80263305      -0.90102084       1.26774374
H        0.32672792      -1.55346844      -0.15515670
H        2.56839888      -0.94642247      -1.14580098
10
Frame=2 idx=005722 GeodesicLength=0.10896453669194846 rxn_smarts="[C:1]([C:2]([C:3]#[C:4][H:10])([H:8])[H:9])([H:5])([H:6])[H:7]>>[C:1](/[C:2](=[C:3](\[C:4][H:10])[H:9])[H:8])([H:5])([H:6])[H:7]"
C       -1.06855161       0.92412511       0.02351494
C       -0.32806815      -0.26851758       0.52917055
C        0.95297117      -0.59380351       0.12359071
C        2.14663614      -0.35407310      -0.31804875
H       -1.69579843       0.67081941      -0.83545020
H       -0.37269376       1.70267298      -0.29444362
H       -1.72628337       1.31502611       0.80206009
H       -0.81069147      -0.90615181       1.26314003
H        0.30755350      -1.55809802      -0.17196740
H        2.59492597      -0.93199959      -1.12156634
10
Frame=3 idx=005722 GeodesicLength=0.16351615727098834 rxn_smarts="[C:1]([C:2]([C:3]#[C:4][H:10])([H:8])[H:9])([H:5])([H:6])[H:7]>>[C:1](/[C:2](=[C:3](\[C:4][H:10])[H:9])[H:8])([H:5])([H:6])[H:7]"
C       -1.06579480       0.92126160       0.02172279
C       -0.33731484      -0.28505778       0.51226337
C        0.95322131      -0.60179604       0.12756632
C        2.13977514      -0.33240415      -0.31653707
H       -1.73255268       0.67087950      -0.80779745
H       -0.36947424       1.68279523      -0.33315988
H       -1.68214432       1.33629079       0.82142603
H       -0.81789704      -0.91117158       1.25759984
H        0.28751979      -1.56248165      -0.19091068
H        2.62466168      -0.91831592      -1.09217327
10
Frame=4 idx=005722 GeodesicLength=0.2183898581058762 rxn_smarts="[C:1]([C:2]([C:3]#[C:4][H:10])([H:8])[H:9])([H:5])([H:6])[H:7]>>[C:1](/[C:2](=[C:3](\[C:4][H:10])[H:9])[H:8])([H:5])([H:6])[H:7]"
C       -1.06286002       0.91826384       0.01974116
C       -0.34652829      -0.30154294       0.49507104
C        0.95274118      -0.61033059       0.13031707
C        2.13252988      -0.31174255      -0.31388986
H       -1.76947701       0.67192868      -0.77738537
H       -0.36806664       1.66177406      -0.37354242
H       -1.63478308       1.35718765       0.83955458
H       -0.82496683      -0.91593034       1.25184107
H        0.26661009      -1.56738414      -0.21038726
H        2.65480072      -0.90222368      -1.06132000
10
Frame=5 idx=005722 GeodesicLength=0.2730286653885345 rxn_smarts="[C:1]([C:2]([C:3]#[C:4][H:10])([H:8])[H:9])([H:5])([H:6])[H:7]>>[C:1](/[C:2](=[C:3](\[C:4][H:10])[H:9])[H:8])([H:5])([H:6])[H:7]"
C       -1.05908251       0.91482763       0.01712983
C       -0.35599375      -0.31847990       0.47782075
C        0.95154674      -0.62051829       0.13336979
C        2.12557837      -0.29372840      -0.30679503
H       -1.80608199       0.67404960      -0.74395605
H       -0.36752279       1.63806016      -0.41672285
H       -1.58277336       1.37850830       0.85540850
H       -0.83305794      -0.92048358       1.24558175
H        0.24489251      -1.57339308      -0.22939669
H        2.68249471      -0.87884243      -1.03244000
10
Frame=6 idx=005722 GeodesicLength=0.3278276992322503 rxn_smarts="[C:1]([C:2]([C:3]#[C:4][H:10])([H:8])[H:9])([H:5])([H:6])[H:7]>>[C:1](/[C:2](=[C:3](\[C:4][H:10])[H:9])[H:8])([H:5])([H:6])[H:7]"
C       -1.05506954       0.91118826       0.01428839
C       -0.36540776      -0.33535684       0.46047519
C        0.94979877      -0.63116012       0.13553806
C        2.11824337      -0.27626650      -0.29842315
H       -1.84183092       0.67754476      -0.70788805
H       -0.36902970       1.61302016      -0.46081876
H       -1.52779689       1.39897929       0.86908037
H       -0.84108275      -0.92482190       1.23908613
H        0.22249885      -1.57981198      -0.24862689
H        2.70967658      -0.85331512      -1.00271130
10
Frame=7 idx=005722 GeodesicLength=0.38300006124307995 rxn_smarts="[C:1]([C:2]([C:3]#[C:4][H:10])([H:8])[H:9])([H:5])([H:6])[H:7]>>[C:1](/[C:2](=[C:3](\[C:4][H:10])[H:9])[H:8])([H:5])([H:6])[H:7]"
C       -1.05095197       0.90741445       0.01131703
C       -0.37472489      -0.35208757       0.44307543
C        0.94755915      -0.64200479       0.13652208
C        2.11034880      -0.25886973      -0.28960865
H       -1.87632643       0.68249005      -0.66936519
H       -0.37285299       1.58702691      -0.50527803
H       -1.47040392       1.41826027       0.88046079
H       -0.84877568      -0.92896148       1.23253970
H        0.19937797      -1.58656553      -0.26818424
H        2.73674996      -0.82670259      -0.97147893
10
Frame=8 idx=005722 GeodesicLength=0.43780657823381164 rxn_smarts="[C:1]([C:2]([C:3]#[C:4][H:10])([H:8])[H:9])([H:5])([H:6])[H:7]>>[C:1](/[C:2](=[C:3](\[C:4][H:10])[H:9])[H:8])([H:5])([H:6])[H:7]"
C       -1.04670896       0.90350567       0.00827891
C       -0.38367064      -0.36831845       0.42609541
C        0.94501322      -0.65302026       0.13631564
C        2.10162603      -0.24219331      -0.28185580
H       -1.90788027       0.68868045      -0.62983593
H       -0.37850235       1.56089114      -0.54799977
H       -1.41277944       1.43550518       0.88890608
H       -0.85577852      -0.93233676       1.22640040
H        0.17547362      -1.59359709      -0.28718808
H        2.76320732      -0.79911657      -0.93911686
10
Frame=9 idx=005722 GeodesicLength=0.4929510712727053 rxn_smarts="[C:1]([C:2]([C:3]#[C:4][H:10])([H:8])[H:9])([H:5])([H:6])[H:7]>>[C:1](/[C:2](=[C:3](\[C:4][H:10])[H:9])[H:8])([H:5])([H:6])[H:7]"
C       -1.04282380       0.89954398       0.00548164
C       -0.39209192      -0.38392720       0.40891644
C        0.94215661      -0.66346481       0.13306178
C        2.09155009      -0.22496437      -0.27804076
H       -1.93799895       0.69610043      -0.58802627
H       -0.38719093       1.53488413      -0.58957639
H       -1.35422418       1.45067967       0.89529750
H       -0.86082229      -0.93515739       1.22046707
H        0.15032403      -1.60034176      -0.30700512
H        2.79112135      -0.77335267      -0.90057588
10
Frame=10 idx=005722 GeodesicLength=0.5477170546843994 rxn_smarts="[C:1]([C:2]([C:3]#[C:4][H:10])([H:8])[H:9])([H:5])([H:6])[H:7]>>[C:1](/[C:2](=[C:3](\[C:4][H:10])[H:9])[H:8])([H:5])([H:6])[H:7]"
C       -1.03811544       0.89531842       0.00230816
C       -0.40017774      -0.39920549       0.39300495
C        0.93917590      -0.67465440       0.13059408
C        2.08139303      -0.20947261      -0.27217521
H       -1.96292118       0.70421635      -0.54808814
H       -0.39544774       1.50915392      -0.62796748
H       -1.29734784       1.46357161       0.89813950
H       -0.86607908      -0.93711694       1.21547371
H        0.12448230      -1.60794076      -0.32468666
H        2.81503780      -0.74387009      -0.86660292
10
Frame=11 idx=005722 GeodesicLength=0.6026731363179111 rxn_smarts="[C:1]([C:2]([C:3]#[C:4][H:10])([H:8])[H:9])([H:5])([H:6])[H:7]>>[C:1](/[C:2](=[C:3](\[C:4][H:10])[H:9])[H:8])([H:5])([H:6])[H:7]"
C       -1.03319902       0.89098392      -0.00094819
C       -0.40789706      -0.41411907       0.37765853
C        0.93610896      -0.68600680       0.12712332
C        2.07088543      -0.19455766      -0.26677770
H       -1.98483592       0.71315916      -0.50824582
H       -0.40464638       1.48373446      -0.66444400
H       -1.24103143       1.47454273       0.89849738
H       -0.87057558      -0.93855712       1.21107198
H        0.09760566      -1.61591292      -0.34163927
H        2.83758534      -0.71326668      -0.83229623
10
Frame=12 idx=005722 GeodesicLength=0.6577340913074265 rxn_smarts="[C:1]([C:2]([C:3]#[C:4][H:10])([H:8])[H:9])([H:5])([H:6])[H:7]>>[C:1](/[C:2](=[C:3](\[C:4][H:10])[H:9])[H:8])([H:5])([H:6])[H:7]"
C       -1.02802321       0.88652058      -0.00428640
C       -0.41525942      -0.42869546       0.36289128
C        0.93295640      -0.69759033       0.12271556
C        2.06005398      -0.18031323      -0.26156823
H       -2.00378302       0.72274333      -0.46852414
H       -0.41459927       1.45854087      -0.69912528
H       -1.18526782       1.48379951       0.89648376
H       -0.87436708      -0.93951378       1.20718661
H        0.06964904      -1.62417828      -0.35796756
H        2.85864042      -0.68131321      -0.79780561
10
Frame=13 idx=005722 GeodesicLength=0.7129378223110003 rxn_smarts="[C:1]([C:2]([C:3]#[C:4][H:10])([H:8])[H:9])([H:5])([H:6])[H:7]>>[C:1](/[C:2](=[C:3](\[C:4][H:10])[H:9])[H:8])([H:5])([H:6])[H:7]"
C       -1.02270545       0.88195038      -0.00761970
C       -0.42225586      -0.44290891       0.34855565
C        0.92969501      -0.70927948       0.11688307
C        2.04874957      -0.16657150      -0.25727941
H       -2.02011591       0.73283454      -0.42859285
H       -0.42557729       1.43359561      -0.73222333
H       -1.12991227       1.49146898       0.89235931
H       -0.87714327      -0.93999056       1.20377193
H        0.04043669      -1.63259202      -0.37397715
H        2.87882877      -0.64850705      -0.76187752
10
Frame=14 idx=005722 GeodesicLength=0.7682970772456417 rxn_smarts="[C:1]([C:2]([C:3]#[C:4][H:10])([H:8])[H:9])([H:5])([H:6])[H:7]>>[C:1](/[C:2](=[C:3](\[C:4][H:10])[H:9])[H:8])([H:5])([H:6])[H:7]"
C       -1.01708940       0.87728362      -0.01104383
C       -0.42889068      -0.45683070       0.33490548
C        0.92649083      -0.72125171       0.11034089
C        2.03741856      -0.15363891      -0.25280961
H       -2.03343568       0.74330657      -0.38957332
H       -0.43667843       1.40922823      -0.76326272
H       -1.07577005       1.49748716       0.88616947
H       -0.87925473      -0.94005765       1.20095853
H        0.01009895      -1.64128568      -0.38911194
H        2.89711065      -0.61424093      -0.72657294
10
Frame=15 idx=005722 GeodesicLength=0.8237576694053327 rxn_smarts="[C:1]([C:2]([C:3]#[C:4][H:10])([H:8])[H:9])([H:5])([H:6])[H:7]>>[C:1](/[C:2](=[C:3](\[C:4][H:10])[H:9])[H:8])([H:5])([H:6])[H:7]"
C       -1.01150842       0.87253660      -0.01432051
C       -0.43508991      -0.47034936       0.32140217
C        0.92317744      -0.73307120       0.10137290
C        2.02536058      -0.14096789      -0.25094743
H       -2.04464893       0.75410532      -0.34982898
H       -0.44925866       1.38519064      -0.79302569
H       -1.02198937       1.50207456       0.87831333
H       -0.87961268      -0.93957918       1.19861081
H       -0.02174527      -1.64996601      -0.40426935
H        2.91531521      -0.57997349      -0.68730724
10
Frame=16 idx=005722 GeodesicLength=0.8793234347109767 rxn_smarts="[C:1]([C:2]([C:3]#[C:4][H:10])([H:8])[H:9])([H:5])([H:6])[H:7]>>[C:1](/[C:2](=[C:3](\[C:4][H:10])[H:9])[H:8])([H:5])([H:6])[H:7]"
C       -1.00570971       0.86769709      -0.01760680
C       -0.44091724      -0.48358826       0.30836839
C        0.91989831      -0.74508997       0.09112411
C        2.01317485      -0.12908233      -0.24966151
H       -2.05328591       0.76508937      -0.31048651
H       -0.46221063       1.36164462      -0.82110336
H       -0.96906250       1.50528798       0.86865813
H       -0.87896745      -0.93874679       1.19668576
H       -0.05491438      -1.65873678      -0.41883109
H        2.93199467      -0.54447494      -0.64714712
