12
Frame=0 idx=003870 GeodesicLength=0.0 rxn_smarts="[C:1]1([H:7])([H:8])[C@@:2]2([H:9])[O:3][C@:4]1([H:10])[C:5]([H:11])=[C:6]2[H:12]>>[C:1]1([H:7])([H:8])[C@@:2]([C:6](=[C:5]([H:10])[H:11])[H:12])([H:9])[O+:3]=[C-:4]1"
C       -1.13762991       0.36728773       0.51548158
C       -0.51465439      -0.86322363      -0.18012435
O       -0.63619311      -0.13770472      -1.42953964
C       -0.55159604       1.03215342      -0.72244958
C        1.41783842       0.45330217      -0.02435864
C        0.97323029      -0.76741936       0.15000859
H       -2.22575156       0.36827211       0.43190933
H       -0.80703044       0.64369538       1.51102419
H       -0.98344403      -1.84948011      -0.18993901
H        0.53607164       1.50448459      -0.70235644
H        2.39987708       0.87718690       0.13983561
H        1.52928206      -1.62855452       0.50050835
12
Frame=1 idx=003870 GeodesicLength=0.06566275431394503 rxn_smarts="[C:1]1([H:7])([H:8])[C@@:2]2([H:9])[O:3][C@:4]1([H:10])[C:5]([H:11])=[C:6]2[H:12]>>[C:1]1([H:7])([H:8])[C@@:2]([C:6](=[C:5]([H:10])[H:11])[H:12])([H:9])[O+:3]=[C-:4]1"
C       -1.14347260       0.36224963       0.51738205
C       -0.51299002      -0.86211532      -0.18218924
O       -0.64037556      -0.13198081      -1.42915912
C       -0.55486206       1.03535240      -0.71579821
C        1.42017510       0.45331400      -0.03601484
C        0.97433213      -0.76702352       0.14600203
H       -2.23177889       0.36040743       0.43812385
H       -0.81166860       0.63721468       1.51321152
H       -0.98016582      -1.84872384      -0.19688252
H        0.55254736       1.51282866      -0.71133161
H        2.40430755       0.86976612       0.13449559
H        1.52395143      -1.62128944       0.52216051
12
Frame=2 idx=003870 GeodesicLength=0.13131546213591846 rxn_smarts="[C:1]1([H:7])([H:8])[C@@:2]2([H:9])[O:3][C@:4]1([H:10])[C:5]([H:11])=[C:6]2[H:12]>>[C:1]1([H:7])([H:8])[C@@:2]([C:6](=[C:5]([H:10])[H:11])[H:12])([H:9])[O+:3]=[C-:4]1"
C       -1.14918429       0.35720371       0.51937167
C       -0.51139665      -0.86102954      -0.18418332
O       -0.64482242      -0.12634579      -1.42868465
C       -0.55809887       1.03843863      -0.70909955
C        1.42255514       0.45309772      -0.04817625
C        0.97544249      -0.76676223       0.14180498
H       -2.23766398       0.35257725       0.44461384
H       -0.81599493       0.63075896       1.51541683
H       -0.97701243      -1.84794160      -0.20363483
H        0.56962510       1.52082158      -0.72135427
H        2.40800950       0.86279319       0.13085131
H        1.51854136      -1.61361188       0.54307425
12
Frame=3 idx=003870 GeodesicLength=0.19696257719374974 rxn_smarts="[C:1]1([H:7])([H:8])[C@@:2]2([H:9])[O:3][C@:4]1([H:10])[C:5]([H:11])=[C:6]2[H:12]>>[C:1]1([H:7])([H:8])[C@@:2]([C:6](=[C:5]([H:10])[H:11])[H:12])([H:9])[O+:3]=[C-:4]1"
C       -1.15486013       0.35212491       0.52144775
C       -0.50985745      -0.85994597      -0.18609153
O       -0.64940288      -0.12073314      -1.42808435
C       -0.56128584       1.04145262      -0.70226684
C        1.42493858       0.45272640      -0.06056952
C        0.97653706      -0.76657761       0.13759956
H       -2.24349231       0.34472690       0.45125911
H       -0.82022258       0.62427467       1.51768430
H       -0.97393750      -1.84712676      -0.21026997
H        0.58732869       1.52850100      -0.73226791
H        2.41118129       0.85610316       0.12824601
H        1.51307308      -1.60552617       0.56331338
12
Frame=4 idx=003870 GeodesicLength=0.2626072656407086 rxn_smarts="[C:1]1([H:7])([H:8])[C@@:2]2([H:9])[O:3][C@:4]1([H:10])[C:5]([H:11])=[C:6]2[H:12]>>[C:1]1([H:7])([H:8])[C@@:2]([C:6](=[C:5]([H:10])[H:11])[H:12])([H:9])[O+:3]=[C-:4]1"
C       -1.16058741       0.34698905       0.52360692
C       -0.50835730      -0.85884483      -0.18790066
O       -0.65400575      -0.11508079      -1.42733014
C       -0.56441210       1.04443151      -0.69522121
C        1.42728870       0.45227283      -0.07295176
C        0.97759565      -0.76641296       0.13354345
H       -2.24934401       0.33680342       0.45795246
H       -0.82454349       0.61771071       1.52005306
H       -0.97089575      -1.84627191      -0.21685427
H        0.60567946       1.53590067      -0.74393703
H        2.41401867       0.84954305       0.12608974
H        1.50756334      -1.59704075       0.58294945
12
Frame=5 idx=003870 GeodesicLength=0.3282514996567718 rxn_smarts="[C:1]1([H:7])([H:8])[C@@:2]2([H:9])[O:3][C@:4]1([H:10])[C:5]([H:11])=[C:6]2[H:12]>>[C:1]1([H:7])([H:8])[C@@:2]([C:6](=[C:5]([H:10])[H:11])[H:12])([H:9])[O+:3]=[C-:4]1"
C       -1.16644162       0.34177441       0.52584544
C       -0.50688430      -0.85770766      -0.18959857
O       -0.65854428      -0.10933541      -1.42639747
C       -0.56747597       1.04740635      -0.68789538
C        1.42957276       0.45180592      -0.08512206
C        0.97860175      -0.76621467       0.12976465
H       -2.25528968       0.32875848       0.46460450
H       -0.82912002       0.61102239       1.52255477
H       -0.96784673      -1.84536882      -0.22344085
H        0.62469708       1.54304566      -0.75625723
H        2.41670484       0.84298226       0.12389503
H        1.50202616      -1.58816890       0.60204718
12
Frame=6 idx=003870 GeodesicLength=0.3938988863348273 rxn_smarts="[C:1]1([H:7])([H:8])[C@@:2]2([H:9])[O:3][C@:4]1([H:10])[C:5]([H:11])=[C:6]2[H:12]>>[C:1]1([H:7])([H:8])[C@@:2]([C:6](=[C:5]([H:10])[H:11])[H:12])([H:9])[O+:3]=[C-:4]1"
C       -1.17246442       0.33646658       0.52816439
C       -0.50543314      -0.85652176      -0.19118246
O       -0.66298235      -0.10345883      -1.42527393
C       -0.57048528       1.05039835      -0.68024709
C        1.43177244       0.45136962      -0.09697987
C        0.97954869      -0.76594936       0.12631925
H       -2.26137042       0.32056147       0.47117459
H       -0.83403657       0.60417595       1.52521137
H       -0.96476678      -1.84441012      -0.23006553
H        0.64440187       1.54993618      -0.76920167
H        2.41934723       0.83635649       0.12141769
H        1.49646873      -1.57892457       0.62066326
12
Frame=7 idx=003870 GeodesicLength=0.4595478522971971 rxn_smarts="[C:1]1([H:7])([H:8])[C@@:2]2([H:9])[O:3][C@:4]1([H:10])[C:5]([H:11])=[C:6]2[H:12]>>[C:1]1([H:7])([H:8])[C@@:2]([C:6](=[C:5]([H:10])[H:11])[H:12])([H:9])[O+:3]=[C-:4]1"
C       -1.17870040       0.33105133       0.53056081
C       -0.50399836      -0.85527352      -0.19264530
O       -0.66728098      -0.09741656      -1.42394263
C       -0.57345103       1.05342635      -0.67223392
C        1.43386358       0.45101396      -0.10841837
C        0.98042559      -0.76557815       0.12327152
H       -2.26762828       0.31217975       0.47761446
H       -0.83938528       0.59714152       1.52803891
H       -0.96162890      -1.84338761      -0.23675791
H        0.66481261       1.55657599      -0.78272911
H        2.42206911       0.82958958       0.11839774
H        1.49090233      -1.56932263       0.63884381
12
Frame=8 idx=003870 GeodesicLength=0.5251851936944203 rxn_smarts="[C:1]1([H:7])([H:8])[C@@:2]2([H:9])[O:3][C@:4]1([H:10])[C:5]([H:11])=[C:6]2[H:12]>>[C:1]1([H:7])([H:8])[C@@:2]([C:6](=[C:5]([H:10])[H:11])[H:12])([H:9])[O+:3]=[C-:4]1"
C       -1.18507461       0.32556541       0.53304821
C       -0.50259819      -0.85397157      -0.19397832
O       -0.67154118      -0.09126184      -1.42241315
C       -0.57638363       1.05646185      -0.66391867
C        1.43587356       0.45068758      -0.11963225
C        0.98124631      -0.76513370       0.12049289
H       -2.27399552       0.30368308       0.48402608
H       -0.84500124       0.58998728       1.53101295
H       -0.95848282      -1.84229599      -0.24342814
H        0.68596337       1.56284456      -0.79709501
H        2.42460073       0.82291289       0.11551821
H        1.48539323      -1.55947954       0.65636719
12
Frame=9 idx=003870 GeodesicLength=0.590819472058633 rxn_smarts="[C:1]1([H:7])([H:8])[C@@:2]2([H:9])[O:3][C@:4]1([H:10])[C:5]([H:11])=[C:6]2[H:12]>>[C:1]1([H:7])([H:8])[C@@:2]([C:6](=[C:5]([H:10])[H:11])[H:12])([H:9])[O+:3]=[C-:4]1"
C       -1.19162509       0.31999279       0.53562748
C       -0.50122879      -0.85260261      -0.19518250
O       -0.67573375      -0.08495470      -1.42067419
C       -0.57929611       1.05952585      -0.65525989
C        1.43778307       0.45043663      -0.13053260
C        0.98200419      -0.76458283       0.11802611
H       -2.28050968       0.29503951       0.49037445
H       -0.85095979       0.58267570       1.53415303
H       -0.95530672      -1.84112641      -0.25011437
H        0.70788055       1.56873242      -0.81227542
H        2.42704562       0.81626582       0.11255051
H        1.47994649      -1.54940217       0.67330739
12
Frame=10 idx=003870 GeodesicLength=0.6564474081284022 rxn_smarts="[C:1]1([H:7])([H:8])[C@@:2]2([H:9])[O:3][C@:4]1([H:10])[C:5]([H:11])=[C:6]2[H:12]>>[C:1]1([H:7])([H:8])[C@@:2]([C:6](=[C:5]([H:10])[H:11])[H:12])([H:9])[O+:3]=[C-:4]1"
C       -1.19835442       0.31432649       0.53830585
C       -0.49989064      -0.85115826      -0.19626547
O       -0.67986876      -0.07846906      -1.41872069
C       -0.58220074       1.06263026      -0.64623553
C        1.43958622       0.45027994      -0.14111613
C        0.98270050      -0.76391349       0.11585330
H       -2.28717426       0.28623800       0.49666943
H       -0.85726214       0.57518199       1.53747025
H       -0.95209527      -1.83986936      -0.25683820
H        0.73059440       1.57419250      -0.82833205
H        2.42940470       0.80966331       0.10950684
H        1.47456041      -1.53910231       0.68970238
12
Frame=11 idx=003870 GeodesicLength=0.7220734398114297 rxn_smarts="[C:1]1([H:7])([H:8])[C@@:2]2([H:9])[O:3][C@:4]1([H:10])[C:5]([H:11])=[C:6]2[H:12]>>[C:1]1([H:7])([H:8])[C@@:2]([C:6](=[C:5]([H:10])[H:11])[H:12])([H:9])[O+:3]=[C-:4]1"
C       -1.20526394       0.30856267       0.54109419
C       -0.49858518      -0.84963069      -0.19723673
O       -0.68396453      -0.07177966      -1.41655357
C       -0.58511336       1.06578715      -0.63682808
C        1.44128268       0.45023152      -0.15139270
C        0.98334220      -0.76311874       0.11394797
H       -2.29399509       0.27727370       0.50293016
H       -0.86390137       0.56748444       1.54098114
H       -0.94884609      -1.83851498      -0.26362002
H        0.75413843       1.57916478      -0.84534818
H        2.43166473       0.80313446       0.10644574
H        1.46924154      -1.52859467       0.70558008
12
Frame=12 idx=003870 GeodesicLength=0.7876925807287471 rxn_smarts="[C:1]1([H:7])([H:8])[C@@:2]2([H:9])[O:3][C@:4]1([H:10])[C:5]([H:11])=[C:6]2[H:12]>>[C:1]1([H:7])([H:8])[C@@:2]([C:6](=[C:5]([H:10])[H:11])[H:12])([H:9])[O+:3]=[C-:4]1"
C       -1.21237402       0.30268142       0.54398998
C       -0.49730969      -0.84800546      -0.19809855
O       -0.68799991      -0.06484668      -1.41414934
C       -0.58804459       1.06901337      -0.62699233
C        1.44284522       0.45033957      -0.16129937
C        0.98391389      -0.76216395       0.11233611
H       -2.30098439       0.26810777       0.50912907
H       -0.87092681       0.55954088       1.54468879
H       -0.94553951      -1.83705073      -0.27049395
H        0.77855622       1.58361031      -0.86330665
H        2.43389440       0.79663554       0.10318503
H        1.46396917      -1.51786205       0.72101120
12
Frame=13 idx=003870 GeodesicLength=0.8533026034053093 rxn_smarts="[C:1]1([H:7])([H:8])[C@@:2]2([H:9])[O:3][C@:4]1([H:10])[C:5]([H:11])=[C:6]2[H:12]>>[C:1]1([H:7])([H:8])[C@@:2]([C:6](=[C:5]([H:10])[H:11])[H:12])([H:9])[O+:3]=[C-:4]1"
C       -1.21967359       0.29666975       0.54701069
C       -0.49606670      -0.84627044      -0.19887274
O       -0.69200653      -0.05762560      -1.41150217
C       -0.59100237       1.07232410      -0.61669089
C        1.44427886       0.45061591      -0.17086650
C        0.98442439      -0.76104533       0.11096613
H       -2.30813414       0.25871897       0.51530320
H       -0.87830659       0.55129528       1.54861457
H       -0.94217728      -1.83545799      -0.27750589
H        0.80389070       1.58743828      -0.88235089
H        2.43606874       0.79020341       0.09982616
H        1.45870451      -1.50686633       0.73606832
12
Frame=14 idx=003870 GeodesicLength=0.9189198848439668 rxn_smarts="[C:1]1([H:7])([H:8])[C@@:2]2([H:9])[O:3][C@:4]1([H:10])[C:5]([H:11])=[C:6]2[H:12]>>[C:1]1([H:7])([H:8])[C@@:2]([C:6](=[C:5]([H:10])[H:11])[H:12])([H:9])[O+:3]=[C-:4]1"
C       -1.22718794       0.29051887       0.55016577
C       -0.49485321      -0.84441268      -0.19956657
O       -0.69598376      -0.05007603      -1.40861082
C       -0.59401374       1.07574108      -0.60589111
C        1.44557342       0.45109626      -0.18006079
C        0.98487920      -0.75974266       0.10984916
H       -2.31547454       0.24908976       0.52144810
H       -0.88608100       0.54271681       1.55278523
H       -0.93873939      -1.83372484      -0.28469229
H        0.83018841       1.59057901      -0.90251864
H        2.43823123       0.78382097       0.09629177
H        1.45346134      -1.49560654       0.75080019
12
Frame=15 idx=003870 GeodesicLength=0.9845385003386227 rxn_smarts="[C:1]1([H:7])([H:8])[C@@:2]2([H:9])[O:3][C@:4]1([H:10])[C:5]([H:11])=[C:6]2[H:12]>>[C:1]1([H:7])([H:8])[C@@:2]([C:6](=[C:5]([H:10])[H:11])[H:12])([H:9])[O+:3]=[C-:4]1"
C       -1.23490837       0.28421990       0.55346528
C       -0.49367216      -0.84241941      -0.20018775
O       -0.69995062      -0.04216638      -1.40545884
C       -0.59708965       1.07927376      -0.59456178
C        1.44672048       0.45180392      -0.18889613
C        0.98527641      -0.75824149       0.10895676
H       -2.32299452       0.23920658       0.52758437
H       -0.89423188       0.53377466       1.55720715
H       -0.93522544      -1.83183256      -0.29207546
H        0.85750779       1.59291860      -0.92391569
H        2.44033934       0.77753913       0.09267429
H        1.44822863      -1.48407671       0.76520780
12
Frame=16 idx=003870 GeodesicLength=1.0501589081041587 rxn_smarts="[C:1]1([H:7])([H:8])[C@@:2]2([H:9])[O:3][C@:4]1([H:10])[C:5]([H:11])=[C:6]2[H:12]>>[C:1]1([H:7])([H:8])[C@@:2]([C:6](=[C:5]([H:10])[H:11])[H:12])([H:9])[O+:3]=[C-:4]1"
C       -1.24283674       0.27776410       0.55692063
C       -0.49252527      -0.84027537      -0.20074394
O       -0.70392142      -0.03385865      -1.40203247
C       -0.60024739       1.08293634      -0.58266795
C        1.44771027       0.45277066      -0.19737005
C        0.98561659      -0.75652298       0.10827185
H       -2.33069586       0.22905303       0.53372641
H       -0.90275760       0.52443515       1.56189437
H       -0.93163022      -1.82976069      -0.29968280
H        0.88591239       1.59433272      -0.94664096
H        2.44236940       0.77139778       0.08902983
H        1.44300584      -1.47227209       0.77929509
