13
Frame=0 idx=004830 GeodesicLength=0.0 rxn_smarts="[C:1]([C@@:2]1([H:10])[N:3]([H:11])[C:4]([H:12])([H:13])[C:5]1=[O:6])([H:7])([H:8])[H:9]>>[C:1](=[C:2]([N:3]([C:4]([C:5](=[O:6])[H:8])([H:12])[H:13])[H:11])[H:10])([H:7])[H:9]"
C       -1.49672386      -0.09603400      -0.06228978
C       -0.40856752      -0.44831469       0.76525595
N        0.58274712      -1.22987033       0.04958270
C        1.25577591      -0.04280696      -0.48605009
C        0.15378879       0.97115580      -0.07533924
O        0.21096987       2.11000185       0.37439133
H       -1.77945508      -0.73145292      -0.89666483
H       -0.69054280       0.81274805      -0.99387792
H       -2.22473356       0.61633479       0.30604917
H       -0.41036786      -0.34042725       1.84102179
H        1.16963613      -1.79634793       0.64144664
H        1.49899918      -0.07471848      -1.54947932
H        2.13847372       0.24973208       0.08595364
13
Frame=1 idx=004830 GeodesicLength=0.10273498354454441 rxn_smarts="[C:1]([C@@:2]1([H:10])[N:3]([H:11])[C:4]([H:12])([H:13])[C:5]1=[O:6])([H:7])([H:8])[H:9]>>[C:1](=[C:2]([N:3]([C:4]([C:5](=[O:6])[H:8])([H:12])[H:13])[H:11])[H:10])([H:7])[H:9]"
C       -1.50647761      -0.09915538      -0.06760341
C       -0.41707900      -0.44941177       0.76026252
N        0.58996253      -1.22136637       0.06003894
C        1.26229356      -0.04090464      -0.48792833
C        0.17188224       0.98266968      -0.07907703
O        0.23893596       2.11170265       0.38797618
H       -1.78625556      -0.73733213      -0.90071539
H       -0.69864506       0.83156475      -0.99988526
H       -2.24468192       0.59576275       0.31395200
H       -0.43230836      -0.35592889       1.83779919
H        1.17528688      -1.77831155       0.66243658
H        1.48939462      -0.08473972      -1.55461186
H        2.15769172       0.24545061       0.06735586
13
Frame=2 idx=004830 GeodesicLength=0.205441721699409 rxn_smarts="[C:1]([C@@:2]1([H:10])[N:3]([H:11])[C:4]([H:12])([H:13])[C:5]1=[O:6])([H:7])([H:8])[H:9]>>[C:1](=[C:2]([N:3]([C:4]([C:5](=[O:6])[H:8])([H:12])[H:13])[H:11])[H:10])([H:7])[H:9]"
C       -1.51635971      -0.10241512      -0.07316106
C       -0.42566025      -0.45019654       0.75518400
N        0.59712840      -1.21245083       0.07107112
C        1.26883554      -0.03913013      -0.48997827
C        0.19071569       0.99449163      -0.08262312
O        0.26783513       2.11309565       0.40216974
H       -1.79258146      -0.74327809      -0.90526766
H       -0.70694862       0.85144410      -1.00522521
H       -2.26536741       0.57362949       0.32153390
H       -0.45450968      -0.37133767       1.83416010
H        1.18082040      -1.75930167       0.68424411
H        1.47894226      -0.09509263      -1.55972560
H        2.17714971       0.24054181       0.04761796
13
Frame=3 idx=004830 GeodesicLength=0.30813350566738534 rxn_smarts="[C:1]([C@@:2]1([H:10])[N:3]([H:11])[C:4]([H:12])([H:13])[C:5]1=[O:6])([H:7])([H:8])[H:9]>>[C:1](=[C:2]([N:3]([C:4]([C:5](=[O:6])[H:8])([H:12])[H:13])[H:11])[H:10])([H:7])[H:9]"
C       -1.52636889      -0.10581217      -0.07897049
C       -0.43430634      -0.45063526       0.75001778
N        0.60422763      -1.20308687       0.08268900
C        1.27539948      -0.03749368      -0.49220633
C        0.21034216       1.00663448      -0.08598439
O        0.29773011       2.11415138       0.41695615
H       -1.79839410      -0.74928379      -0.91034068
H       -0.71547483       0.87243648      -1.00982452
H       -2.28681642       0.54978511       0.32876414
H       -0.47694629      -0.38661124       1.83008489
H        1.18620697      -1.73924369       0.70688081
H        1.46759453      -0.10576953      -1.56477761
H        2.19680600       0.23492879       0.02671125
13
Frame=4 idx=004830 GeodesicLength=0.4108115463606368 rxn_smarts="[C:1]([C@@:2]1([H:10])[N:3]([H:11])[C:4]([H:12])([H:13])[C:5]1=[O:6])([H:7])([H:8])[H:9]>>[C:1](=[C:2]([N:3]([C:4]([C:5](=[O:6])[H:8])([H:12])[H:13])[H:11])[H:10])([H:7])[H:9]"
C       -1.53650467      -0.10934285      -0.08503849
C       -0.44301176      -0.45069012       0.74476226
N        0.61123969      -1.19323027       0.09490153
C        1.28197883      -0.03600609      -0.49461734
C        0.23082053       1.01911275      -0.08917128
O        0.32869818       2.11483133       0.43231775
H       -1.80364418      -0.75533260      -0.91595508
H       -0.72424562       0.89459745      -1.01358775
H       -2.30904371       0.52404605       0.33559064
H       -0.49958989      -0.40170042       1.82555591
H        1.19141415      -1.71804090       0.73035560
H        1.45528920      -0.11676440      -1.56971353
H        2.21659923       0.22852006       0.00459978
13
Frame=5 idx=004830 GeodesicLength=0.5135069241940617 rxn_smarts="[C:1]([C@@:2]1([H:10])[N:3]([H:11])[C:4]([H:12])([H:13])[C:5]1=[O:6])([H:7])([H:8])[H:9]>>[C:1](=[C:2]([N:3]([C:4]([C:5](=[O:6])[H:8])([H:12])[H:13])[H:11])[H:10])([H:7])[H:9]"
C       -1.54677828      -0.11300181      -0.09135737
C       -0.45177144      -0.45031983       0.73941781
N        0.61813447      -1.18284127       0.10769999
C        1.28856919      -0.03467701      -0.49721013
C        0.25220664       1.03193608      -0.09220321
O        0.36079862       2.11511074       0.44820195
H       -1.80830585      -0.76141492      -0.92211258
H       -0.73329042       0.91796550      -1.01644268
H       -2.33205113       0.49623955       0.34197714
H       -0.52239176      -0.41654919       1.82056295
H        1.19639620      -1.69563406       0.75464914
H        1.44201831      -0.12803660      -1.57447277
H        2.23646547       0.22122283      -0.01871024
13
Frame=6 idx=004830 GeodesicLength=0.6162095192260171 rxn_smarts="[C:1]([C@@:2]1([H:10])[N:3]([H:11])[C:4]([H:12])([H:13])[C:5]1=[O:6])([H:7])([H:8])[H:9]>>[C:1](=[C:2]([N:3]([C:4]([C:5](=[O:6])[H:8])([H:12])[H:13])[H:11])[H:10])([H:7])[H:9]"
C       -1.55719950      -0.11678745      -0.09792077
C       -0.46058247      -0.44947670       0.73398451
N        0.62487802      -1.17187308       0.12107810
C        1.29515976      -0.03351727      -0.49998126
C        0.27456581       1.04511724      -0.09511025
O        0.39411362       2.11495270       0.46455000
H       -1.81233396      -0.76750187      -0.92882445
H       -0.74264436       0.94258734      -1.01825976
H       -2.35582171       0.46614596       0.34785421
H       -0.54530536      -0.43109060       1.81509623
H        1.20110656      -1.67192626       0.77973892
H        1.42774498      -0.13955413      -1.57899222
H        2.25631861       0.21292412      -0.04321326
13
Frame=7 idx=004830 GeodesicLength=0.7189399465507046 rxn_smarts="[C:1]([C@@:2]1([H:10])[N:3]([H:11])[C:4]([H:12])([H:13])[C:5]1=[O:6])([H:7])([H:8])[H:9]>>[C:1](=[C:2]([N:3]([C:4]([C:5](=[O:6])[H:8])([H:12])[H:13])[H:11])[H:10])([H:7])[H:9]"
C       -1.56778934      -0.12069447      -0.10470531
C       -0.46943802      -0.44811375       0.72846725
N        0.63142825      -1.16028420       0.13500660
C        1.30175014      -0.03253184      -0.50291913
C        0.29795273       1.05866699      -0.09793210
O        0.42868112       2.11434779       0.48127097
H       -1.81571122      -0.77357006      -0.93607689
H       -0.75233837       0.96848658      -1.01895304
H       -2.38030876       0.43357507       0.35317400
H       -0.56826256      -0.44526186       1.80915614
H        1.20548184      -1.64687428       0.80556311
H        1.41248085      -0.15126636      -1.58320303
H        2.27607334       0.20352040      -0.06884855
13
Frame=8 idx=004830 GeodesicLength=0.821689995125568 rxn_smarts="[C:1]([C@@:2]1([H:10])[N:3]([H:11])[C:4]([H:12])([H:13])[C:5]1=[O:6])([H:7])([H:8])[H:9]>>[C:1](=[C:2]([N:3]([C:4]([C:5](=[O:6])[H:8])([H:12])[H:13])[H:11])[H:10])([H:7])[H:9]"
C       -1.57857518      -0.12471970      -0.11168270
C       -0.47833992      -0.44617697       0.72287043
N        0.63773474      -1.14802597       0.14945155
C        1.30832321      -0.03173323      -0.50601210
C        0.32242972       1.07259702      -0.10072782
O        0.46456805       2.11327080       0.49825307
H       -1.81841200      -0.77958207      -0.94386648
H       -0.76241317       0.99568687      -1.01838401
H       -2.40543343       0.39829058       0.35786848
H       -0.59120068      -0.45898393       1.80275095
H        1.20945781      -1.62040362       0.83204980
H        1.39624290      -0.16310333      -1.58702219
H        2.29561796       0.19288354      -0.09554900
13
Frame=9 idx=004830 GeodesicLength=0.924150900361218 rxn_smarts="[C:1]([C@@:2]1([H:10])[N:3]([H:11])[C:4]([H:12])([H:13])[C:5]1=[O:6])([H:7])([H:8])[H:9]>>[C:1](=[C:2]([N:3]([C:4]([C:5](=[O:6])[H:8])([H:12])[H:13])[H:11])[H:10])([H:7])[H:9]"
C       -1.58961209      -0.12895643      -0.11885196
C       -0.48732444      -0.44358325       0.71721024
N        0.64374139      -1.13506741       0.16441305
C        1.31483185      -0.03115944      -0.50928350
C        0.34804193       1.08686821      -0.10358399
O        0.50181040       2.11171971       0.51537057
H       -1.82033155      -0.78547291      -0.95224689
H       -0.77295163       1.02422970      -1.01613260
H       -2.43096871       0.36009653       0.36179146
H       -0.61411278      -0.47208703       1.79592101
H        1.21299254      -1.59250072       0.85915152
H        1.37907142      -0.17501300      -1.59052840
H        2.31481168       0.18092603      -0.12323051
13
Frame=10 idx=004830 GeodesicLength=1.0266066744783546 rxn_smarts="[C:1]([C@@:2]1([H:10])[N:3]([H:11])[C:4]([H:12])([H:13])[C:5]1=[O:6])([H:7])([H:8])[H:9]>>[C:1](=[C:2]([N:3]([C:4]([C:5](=[O:6])[H:8])([H:12])[H:13])[H:11])[H:10])([H:7])[H:9]"
C       -1.60090736      -0.13330928      -0.12614259
C       -0.49636206      -0.44030441       0.71147975
N        0.64939168      -1.12135737       0.17979370
C        1.32131069      -0.03077905      -0.51266925
C        0.37484753       1.10152861      -0.10656224
O        0.54041833       2.10968561       0.53246745
H       -1.82154298      -0.79120069      -0.96113654
H       -0.78395232       1.05406816      -1.01233586
H       -2.45689387       0.31877432       0.36498397
H       -0.63686355      -0.48458547       1.78865143
H        1.21597217      -1.56313076       0.88672071
H        1.36102437      -0.18691021      -1.59350956
H        2.33355736       0.16752054      -0.15174097
13
Frame=11 idx=004830 GeodesicLength=1.1290636825641989 rxn_smarts="[C:1]([C@@:2]1([H:10])[N:3]([H:11])[C:4]([H:12])([H:13])[C:5]1=[O:6])([H:7])([H:8])[H:9]>>[C:1](=[C:2]([N:3]([C:4]([C:5](=[O:6])[H:8])([H:12])[H:13])[H:11])[H:10])([H:7])[H:9]"
C       -1.61250568      -0.13778555      -0.13350488
C       -0.50545755      -0.43629038       0.70568568
N        0.65462270      -1.10686309       0.19551929
C        1.32775358      -0.03059034      -0.51614013
C        0.40288765       1.11657217      -0.10973842
O        0.58037543       2.10717327       0.54938929
H       -1.82206016      -0.79672332      -0.97050461
H       -0.79544148       1.08517299      -1.00689334
H       -2.48306186       0.27418131       0.36742163
H       -0.65937776      -0.49641150       1.78096491
H        1.21831041      -1.53231030       0.91463884
H        1.34220716      -0.19871014      -1.59591596
H        2.35174757       0.15258489      -0.18092230
13
Frame=12 idx=004830 GeodesicLength=1.231521949077157 rxn_smarts="[C:1]([C@@:2]1([H:10])[N:3]([H:11])[C:4]([H:12])([H:13])[C:5]1=[O:6])([H:7])([H:8])[H:9]>>[C:1](=[C:2]([N:3]([C:4]([C:5](=[O:6])[H:8])([H:12])[H:13])[H:11])[H:10])([H:7])[H:9]"
C       -1.62445857      -0.14239111      -0.14088445
C       -0.51462698      -0.43148615       0.69983940
N        0.65936721      -1.09155464       0.21152428
C        1.33415002      -0.03059867      -0.51966995
C        0.43221327       1.13198893      -0.11320158
O        0.62166782       2.10420381       0.56596196
H       -1.82188385      -0.80196063      -0.98033465
H       -0.80745901       1.11751936      -0.99965997
H       -2.50926560       0.22612611       0.36905286
H       -0.68159211      -0.50748843       1.77289575
H        1.21992177      -1.50005154       0.94277800
H        1.32271185      -0.21032951      -1.59769155
H        2.36925421       0.13602245      -0.21061009
13
Frame=13 idx=004830 GeodesicLength=1.3339836687604876 rxn_smarts="[C:1]([C@@:2]1([H:10])[N:3]([H:11])[C:4]([H:12])([H:13])[C:5]1=[O:6])([H:7])([H:8])[H:9]>>[C:1](=[C:2]([N:3]([C:4]([C:5](=[O:6])[H:8])([H:12])[H:13])[H:11])[H:10])([H:7])[H:9]"
C       -1.63681627      -0.14714100      -0.14822428
C       -0.52388654      -0.42585227       0.69394830
N        0.66356280      -1.07540466       0.22773755
C        1.34049419      -0.03080173      -0.52322587
C        0.46285792       1.14775979      -0.11703562
O        0.66423776       2.10080867       0.58201732
H       -1.82104139      -0.80686552      -0.99059706
H       -0.82002380       1.15105476      -0.99053497
H       -2.53529606       0.17452477       0.36986155
H       -0.70344883      -0.51776132       1.76447216
H        1.22072685      -1.46641132       0.97099751
H        1.30265604      -0.22167946      -1.59880076
H        2.38597732       0.11776928      -0.24061583
13
Frame=14 idx=004830 GeodesicLength=1.4364388099804009 rxn_smarts="[C:1]([C@@:2]1([H:10])[N:3]([H:11])[C:4]([H:12])([H:13])[C:5]1=[O:6])([H:7])([H:8])[H:9]>>[C:1](=[C:2]([N:3]([C:4]([C:5](=[O:6])[H:8])([H:12])[H:13])[H:11])[H:10])([H:7])[H:9]"
C       -1.64964729      -0.15206919      -0.15545707
C       -0.53327105      -0.41934842       0.68803132
N        0.66714741      -1.05838828       0.24410618
C        1.34675705      -0.03120527      -0.52678348
C        0.49485466       1.16385902      -0.12132575
O        0.70805316       2.09700452       0.59739138
H       -1.81952802      -0.81132482      -1.00129008
H       -0.83316953       1.18574008      -0.97934321
H       -2.56083523       0.11923891       0.36973637
H       -0.72490911      -0.52716731       1.75574556
H        1.22066561      -1.43139619       0.99919440
H        1.28209976      -0.23268576      -1.59921988
H        2.40178257       0.09774272      -0.27078571
13
Frame=15 idx=004830 GeodesicLength=1.5388826269546243 rxn_smarts="[C:1]([C@@:2]1([H:10])[N:3]([H:11])[C:4]([H:12])([H:13])[C:5]1=[O:6])([H:7])([H:8])[H:9]>>[C:1](=[C:2]([N:3]([C:4]([C:5](=[O:6])[H:8])([H:12])[H:13])[H:11])[H:10])([H:7])[H:9]"
C       -1.66301662      -0.15722321      -0.16251325
C       -0.54281295      -0.41195788       0.68210806
N        0.67006838      -1.04049007       0.26057403
C        1.35291719      -0.03181280      -0.53032395
C        0.52822110       1.18024670      -0.12614972
O        0.75303155       2.09282293       0.61192997
H       -1.81736034      -0.81525233      -1.01239868
H       -0.84692035       1.22150415      -0.96594809
H       -2.58555316       0.06026026       0.36858332
H       -0.74593615      -0.53567115       1.74676587
H        1.21968881      -1.39505077       1.02725861
H        1.26111877      -0.24327166      -1.59894332
H        2.41655377       0.07589584      -0.30094285
13
Frame=16 idx=004830 GeodesicLength=1.6413009956809705 rxn_smarts="[C:1]([C@@:2]1([H:10])[N:3]([H:11])[C:4]([H:12])([H:13])[C:5]1=[O:6])([H:7])([H:8])[H:9]>>[C:1](=[C:2]([N:3]([C:4]([C:5](=[O:6])[H:8])([H:12])[H:13])[H:11])[H:10])([H:7])[H:9]"
C       -1.67698760      -0.16264188      -0.16932786
C       -0.55256245      -0.40366547       0.67619905
N        0.67227597      -1.02169272       0.27710188
C        1.35894394      -0.03263608      -0.53382756
C        0.56297538       1.19687933      -0.13158828
O        0.79910605       2.08829641       0.62547643
H       -1.81454923      -0.81850963      -1.02393149
H       -0.86129756       1.25828071      -0.95017422
H       -2.60907437      -0.00247709       0.36628904
H       -0.76652499      -0.54323374       1.73759404
H        1.21775267      -1.35739580       1.05511259
H        1.23977154      -0.25338107      -1.59797790
H        2.43017064       0.05217705      -0.33094571
