14
Frame=0 idx=010516 GeodesicLength=0.0 rxn_smarts="[C:1](/[C:2](=[N:3]\[H:11])[O:4][C:5]([C:6](=[O:7])[H:14])([H:12])[H:13])([H:8])([H:9])[H:10]>>[C:1]([C@:6]1([H:14])[C:5]([H:12])([H:13])[O:4]/[C:2](=[N:3]/[H:11])[O:7]1)([H:8])([H:9])[H:10]"
C       -1.02990929      -0.25708443      -0.66751404
C       -0.23270742       0.78743326       0.99433646
N       -0.86092186       1.75442632       1.33486001
O        0.53475355      -0.09849018       1.51716631
C        1.15402339      -0.89931277       0.50076747
C        0.83818785      -0.11039017      -0.77570282
O        1.14322687       1.11568905      -0.74527576
H       -1.69376820      -0.63695928       0.11541529
H       -1.46151239       0.61165281      -1.15881487
H       -0.97729658      -1.06960521      -1.39958526
H       -1.43822920       2.30937821       0.72892848
H        2.22572991      -0.90595407       0.69797253
H        0.73591811      -1.90513669       0.54494304
H        1.06250523      -0.69564683      -1.68749681
14
Frame=1 idx=010516 GeodesicLength=0.07862665128919735 rxn_smarts="[C:1](/[C:2](=[N:3]\[H:11])[O:4][C:5]([C:6](=[O:7])[H:14])([H:12])[H:13])([H:8])([H:9])[H:10]>>[C:1]([C@:6]1([H:14])[C:5]([H:12])([H:13])[O:4]/[C:2](=[N:3]/[H:11])[O:7]1)([H:8])([H:9])[H:10]"
C       -1.04732651      -0.26319079      -0.67104673
C       -0.24523373       0.77839772       0.98602844
N       -0.83401788       1.76841760       1.33916274
O        0.50710564      -0.12172539       1.51611867
C        1.16202803      -0.89593127       0.50336549
C        0.84566155      -0.11273285      -0.77544863
O        1.14709404       1.11687045      -0.73263292
H       -1.71542234      -0.64532429       0.10711491
H       -1.48605098       0.59953608      -1.16715679
H       -0.99582938      -1.07851443      -1.39989787
H       -1.40423892       2.33035313       0.73187226
H        2.22968700      -0.87660652       0.72140308
H        0.76994185      -1.91254281       0.53449275
H        1.06660162      -0.68700663      -1.69337540
14
Frame=2 idx=010516 GeodesicLength=0.15721199976024441 rxn_smarts="[C:1](/[C:2](=[N:3]\[H:11])[O:4][C:5]([C:6](=[O:7])[H:14])([H:12])[H:13])([H:8])([H:9])[H:10]>>[C:1]([C@:6]1([H:14])[C:5]([H:12])([H:13])[O:4]/[C:2](=[N:3]/[H:11])[O:7]1)([H:8])([H:9])[H:10]"
C       -1.06496219      -0.26900281      -0.67498988
C       -0.25738220       0.77001205       0.97697336
N       -0.80535053       1.78139961       1.34353253
O        0.47958007      -0.14453671       1.51369855
C        1.16987159      -0.89216213       0.50631004
C        0.85363790      -0.11525265      -0.77536864
O        1.15147870       1.11777442      -0.72069968
H       -1.73738681      -0.65311666       0.09841955
H       -1.51072059       0.58762203      -1.17593157
H       -1.01475620      -1.08739752      -1.40030624
H       -1.37137119       2.34939984       0.73667839
H        2.23231914      -0.84711040       0.74568327
H        0.80418955      -1.91875336       0.52513125
H        1.07085278      -0.67887573      -1.69913092
14
Frame=3 idx=010516 GeodesicLength=0.23574739354375754 rxn_smarts="[C:1](/[C:2](=[N:3]\[H:11])[O:4][C:5]([C:6](=[O:7])[H:14])([H:12])[H:13])([H:8])([H:9])[H:10]>>[C:1]([C@:6]1([H:14])[C:5]([H:12])([H:13])[O:4]/[C:2](=[N:3]/[H:11])[O:7]1)([H:8])([H:9])[H:10]"
C       -1.08280038      -0.27448447      -0.67935473
C       -0.26906832       0.76234373       0.96711581
N       -0.77497375       1.79329434       1.34787663
O        0.45226667      -0.16681867       1.50987763
C        1.17756945      -0.88802406       0.50959934
C        0.86217404      -0.11800182      -0.77548177
O        1.15645368       1.11836432      -0.70955546
H       -1.75963239      -0.66025787       0.08935055
H       -1.53549094       0.57592430      -1.18520062
H       -1.03409707      -1.09623793      -1.40079431
H       -1.33990445       2.36653453       0.74362008
H        2.23363537      -0.81750355       0.77074422
H        0.83859050      -1.92378092       0.51697905
H        1.07527757      -0.67135193      -1.70477642
14
Frame=4 idx=010516 GeodesicLength=0.3142232325034843 rxn_smarts="[C:1](/[C:2](=[N:3]\[H:11])[O:4][C:5]([C:6](=[O:7])[H:14])([H:12])[H:13])([H:8])([H:9])[H:10]>>[C:1]([C@:6]1([H:14])[C:5]([H:12])([H:13])[O:4]/[C:2](=[N:3]/[H:11])[O:7]1)([H:8])([H:9])[H:10]"
C       -1.10082747      -0.27960307      -0.68415057
C       -0.28021389       0.75545265       0.95640207
N       -0.74296729       1.80403071       1.35208235
O        0.42524902      -0.18846609       1.50463821
C        1.18513697      -0.88353543       0.51322956
C        0.87132622      -0.12103302      -0.77580330
O        1.16208699       1.11860258      -0.69927366
H       -1.78213172      -0.66667340       0.07993136
H       -1.56033686       0.56444809      -1.19502456
H       -1.05387075      -1.10502197      -1.40134159
H       -1.31008625       2.38179382       0.75297995
H        2.23365346      -0.78782961       0.79650248
H        0.87308665      -1.92763735       0.51015062
H        1.07989491      -0.66452791      -1.71032292
14
Frame=5 idx=010516 GeodesicLength=0.3926814834625042 rxn_smarts="[C:1](/[C:2](=[N:3]\[H:11])[O:4][C:5]([C:6](=[O:7])[H:14])([H:12])[H:13])([H:8])([H:9])[H:10]>>[C:1]([C@:6]1([H:14])[C:5]([H:12])([H:13])[O:4]/[C:2](=[N:3]/[H:11])[O:7]1)([H:8])([H:9])[H:10]"
C       -1.11906458      -0.28437915      -0.68935879
C       -0.29082693       0.74931686       0.94484475
N       -0.70959202       1.81344207       1.35613524
O        0.39858471      -0.20945342       1.49799354
C        1.19259443      -0.87869933       0.51718658
C        0.88111208      -0.12433550      -0.77632253
O        1.16834001       1.11853294      -0.68983745
H       -1.80487000      -0.67241009       0.07020106
H       -1.58531459       0.55313546      -1.20540691
H       -1.07408791      -1.11376013      -1.40192915
H       -1.28165122       2.39542185       0.76471036
H        2.23238154      -0.75808382       0.82286942
H        0.90768246      -1.93035123       0.50469845
H        1.08471201      -0.65837650      -1.71578456
14
Frame=6 idx=010516 GeodesicLength=0.47111832764913075 rxn_smarts="[C:1](/[C:2](=[N:3]\[H:11])[O:4][C:5]([C:6](=[O:7])[H:14])([H:12])[H:13])([H:8])([H:9])[H:10]>>[C:1]([C@:6]1([H:14])[C:5]([H:12])([H:13])[O:4]/[C:2](=[N:3]/[H:11])[O:7]1)([H:8])([H:9])[H:10]"
C       -1.13750854      -0.28879706      -0.69497849
C       -0.30085759       0.74396456       0.93241031
N       -0.67500445       1.82146116       1.35991690
O        0.37234932      -0.22970765       1.48994377
C        1.19996230      -0.87352361       0.52146400
C        0.89157488      -0.12794501      -0.77704061
O        1.17525158       1.11813577      -0.68128707
H       -1.82782526      -0.67743225       0.06019021
H       -1.61042676       0.54197401      -1.21638097
H       -1.09476253      -1.12244271      -1.40253678
H       -1.25465972       2.40748505       0.77901221
H        2.22983628      -0.72827604       0.84975286
H        0.94232830      -1.93194118       0.50070012
H        1.08974221      -0.65295506      -1.72116647
14
Frame=7 idx=010516 GeodesicLength=0.549559979743641 rxn_smarts="[C:1](/[C:2](=[N:3]\[H:11])[O:4][C:5]([C:6](=[O:7])[H:14])([H:12])[H:13])([H:8])([H:9])[H:10]>>[C:1]([C@:6]1([H:14])[C:5]([H:12])([H:13])[O:4]/[C:2](=[N:3]/[H:11])[O:7]1)([H:8])([H:9])[H:10]"
C       -1.15618132      -0.29287737      -0.70099367
C       -0.31031683       0.73936001       0.91911104
N       -0.63946876       1.82795440       1.36340482
O        0.34659517      -0.24921415       1.48050821
C        1.20725919      -0.86800503       0.52604934
C        0.90273243      -0.13185173      -0.77793996
O        1.18278964       1.11744233      -0.67359742
H       -1.85098525      -0.68178682       0.04993297
H       -1.63573104       0.53091345      -1.22793385
H       -1.11590618      -1.13107178      -1.40315347
H       -1.22882236       2.41817478       0.79583006
H        2.22601776      -0.69838873       0.87704999
H        0.97702798      -1.93241599       0.49820186
H        1.09498956      -0.64823337      -1.72646991
14
Frame=8 idx=010516 GeodesicLength=0.6280524598351834 rxn_smarts="[C:1](/[C:2](=[N:3]\[H:11])[O:4][C:5]([C:6](=[O:7])[H:14])([H:12])[H:13])([H:8])([H:9])[H:10]>>[C:1]([C@:6]1([H:14])[C:5]([H:12])([H:13])[O:4]/[C:2](=[N:3]/[H:11])[O:7]1)([H:8])([H:9])[H:10]"
C       -1.17513228      -0.29667595      -0.70736109
C       -0.31928420       0.73540176       0.90502144
N       -0.60336733       1.83274370       1.36668530
O        0.32134980      -0.26804312       1.46973840
C        1.21450069      -0.86212898       0.53092106
C        0.91457302      -0.13598885      -0.77897637
O        1.19083893       1.11654484      -0.66665715
H       -1.87435364      -0.68560490       0.03947634
H       -1.66134117       0.51986436      -1.24000128
H       -1.13751921      -1.13966261      -1.40376603
H       -1.20345837       2.42777650       0.81477681
H        2.22092274      -0.66837610       0.90466945
H        1.01182542      -1.93177904       0.49716777
H        1.10044562      -0.64407160      -1.73169465
14
Frame=9 idx=010516 GeodesicLength=0.7067313458389428 rxn_smarts="[C:1](/[C:2](=[N:3]\[H:11])[O:4][C:5]([C:6](=[O:7])[H:14])([H:12])[H:13])([H:8])([H:9])[H:10]>>[C:1]([C@:6]1([H:14])[C:5]([H:12])([H:13])[O:4]/[C:2](=[N:3]/[H:11])[O:7]1)([H:8])([H:9])[H:10]"
C       -1.19450556      -0.30033557      -0.71393334
C       -0.32804808       0.73177551       0.89042977
N       -0.56754991       1.83557109       1.37003914
O        0.29657774      -0.28647467       1.45776933
C        1.22169423      -0.85587593       0.53606541
C        0.92702220      -0.14008605      -0.77997006
O        1.19905156       1.11578013      -0.65999465
H       -1.89795736      -0.68933330       0.02894639
H       -1.68758870       0.50864868      -1.25230485
H       -1.15959203      -1.14821634      -1.40438255
H       -1.17669050       2.43684616       0.83434398
H        2.21461527      -0.63825725       0.93250035
H        1.04693124      -1.93010625       0.49730184
H        1.10603990      -0.63993621      -1.73681077
14
Frame=10 idx=010516 GeodesicLength=0.785513558651501 rxn_smarts="[C:1](/[C:2](=[N:3]\[H:11])[O:4][C:5]([C:6](=[O:7])[H:14])([H:12])[H:13])([H:8])([H:9])[H:10]>>[C:1]([C@:6]1([H:14])[C:5]([H:12])([H:13])[O:4]/[C:2](=[N:3]/[H:11])[O:7]1)([H:8])([H:9])[H:10]"
C       -1.21428328      -0.30384679      -0.72073978
C       -0.33653189       0.72851436       0.87527709
N       -0.53193263       1.83633287       1.37353278
O        0.27234981      -0.30446250       1.44457137
C        1.22884900      -0.84924111       0.54145316
C        0.94011212      -0.14418270      -0.78097177
O        1.20748453       1.11508316      -0.65372573
H       -1.92178572      -0.69288315       0.01832960
H       -1.71442284       0.49726036      -1.26489738
H       -1.18213216      -1.15674503      -1.40499707
H       -1.14874481       2.44534808       0.85474092
H        2.20702198      -0.60794558       0.96049995
H        1.08222274      -1.92731899       0.49875582
H        1.11179314      -0.63591297      -1.74182895
14
Frame=11 idx=010516 GeodesicLength=0.8644133590312327 rxn_smarts="[C:1](/[C:2](=[N:3]\[H:11])[O:4][C:5]([C:6](=[O:7])[H:14])([H:12])[H:13])([H:8])([H:9])[H:10]>>[C:1]([C@:6]1([H:14])[C:5]([H:12])([H:13])[O:4]/[C:2](=[N:3]/[H:11])[O:7]1)([H:8])([H:9])[H:10]"
C       -1.23450705      -0.30722849      -0.72771966
C       -0.34477594       0.72553007       0.85964961
N       -0.49679060       1.83494515       1.37728206
O        0.24870459      -0.32208074       1.43017797
C        1.23597536      -0.84222290       0.54707030
C        0.95384983      -0.14817962      -0.78193064
O        1.21606527       1.11457524      -0.64770414
H       -1.94584005      -0.69634646       0.00769868
H       -1.74193563       0.48566263      -1.27767883
H       -1.20515217      -1.16522710      -1.40559095
H       -1.11911660       2.45329759       0.87540816
H        2.19814826      -0.57745668       0.98861616
H        1.11768701      -1.92344697       0.50146684
H        1.11768772      -0.63182170      -1.74674555
14
Frame=12 idx=010516 GeodesicLength=0.9434480687020029 rxn_smarts="[C:1](/[C:2](=[N:3]\[H:11])[O:4][C:5]([C:6](=[O:7])[H:14])([H:12])[H:13])([H:8])([H:9])[H:10]>>[C:1]([C@:6]1([H:14])[C:5]([H:12])([H:13])[O:4]/[C:2](=[N:3]/[H:11])[O:7]1)([H:8])([H:9])[H:10]"
C       -1.25517993      -0.31044369      -0.73483123
C       -0.35271888       0.72282691       0.84355699
N       -0.46218942       1.83146778       1.38127291
O        0.22571316      -0.33934422       1.41461098
C        1.24308819      -0.83485183       0.55290007
C        0.96829288      -0.15205626      -0.78282584
O        1.22485438       1.11427010      -0.64187624
H       -1.97010567      -0.69966994      -0.00287565
H       -1.77012724       0.47387852      -1.29060241
H       -1.22867638      -1.17362214      -1.40611935
H       -1.08793972       2.46052676       0.89614717
H        2.18801793      -0.54685616       1.01678098
H        1.15325489      -1.91851654       0.50541617
H        1.12371581      -0.62760929      -1.75155456
14
Frame=13 idx=010516 GeodesicLength=1.0226528089985516 rxn_smarts="[C:1](/[C:2](=[N:3]\[H:11])[O:4][C:5]([C:6](=[O:7])[H:14])([H:12])[H:13])([H:8])([H:9])[H:10]>>[C:1]([C@:6]1([H:14])[C:5]([H:12])([H:13])[O:4]/[C:2](=[N:3]/[H:11])[O:7]1)([H:8])([H:9])[H:10]"
C       -1.27633844      -0.31350176      -0.74201890
C       -0.36038414       0.72033103       0.82706802
N       -0.42833989       1.82586133       1.38559429
O        0.20341486      -0.35633519       1.39790043
C        1.25019290      -0.82713949       0.55892566
C        0.98346877      -0.15572500      -0.78360654
O        1.23382225       1.11425417      -0.63609717
H       -1.99458295      -0.70291742      -0.01332374
H       -1.79907297       0.46188311      -1.30357325
H       -1.25271717      -1.18190717      -1.40655980
H       -1.05487618       2.46702995       0.91645114
H        2.17664151      -0.51619112       1.04494500
H        1.18891094      -1.91254020       0.51053536
H        1.12986052      -0.62310225      -1.75624050
14
Frame=14 idx=010516 GeodesicLength=1.102040753978881 rxn_smarts="[C:1](/[C:2](=[N:3]\[H:11])[O:4][C:5]([C:6](=[O:7])[H:14])([H:12])[H:13])([H:8])([H:9])[H:10]>>[C:1]([C@:6]1([H:14])[C:5]([H:12])([H:13])[O:4]/[C:2](=[N:3]/[H:11])[O:7]1)([H:8])([H:9])[H:10]"
C       -1.29794217      -0.31630303      -0.74926268
C       -0.36758833       0.71815691       0.81008819
N       -0.39510808       1.81837229       1.39001731
O        0.18193297      -0.37295180       1.38003340
C        1.25731716      -0.81914305       0.56513555
C        0.99950023      -0.15925959      -0.78429214
O        1.24319394       1.11443636      -0.63043065
H       -2.01923541      -0.70587382      -0.02355948
H       -1.82867933       0.44976642      -1.31661118
H       -1.27731972      -1.19002787      -1.40682796
H       -1.02081383       2.47243748       0.93662307
H        2.16409203      -0.48562904       1.07302321
H        1.22451517      -1.90557228       0.51686682
H        1.13613537      -0.61840898      -1.76080347
14
Frame=15 idx=010516 GeodesicLength=1.1816413789708444 rxn_smarts="[C:1](/[C:2](=[N:3]\[H:11])[O:4][C:5]([C:6](=[O:7])[H:14])([H:12])[H:13])([H:8])([H:9])[H:10]>>[C:1]([C@:6]1([H:14])[C:5]([H:12])([H:13])[O:4]/[C:2](=[N:3]/[H:11])[O:7]1)([H:8])([H:9])[H:10]"
C       -1.32001257      -0.31883953      -0.75651338
C       -0.37431732       0.71625930       0.79265059
N       -0.36263650       1.80903244       1.39453775
O        0.16131637      -0.38924406       1.36103144
C        1.26447206      -0.81089286       0.57151182
C        1.01644011      -0.16260388      -0.78484635
O        1.25299688       1.11486309      -0.62476244
H       -2.04405262      -0.70855937      -0.03351048
H       -1.85899246       0.43752573      -1.32963140
H       -1.30249882      -1.19795652      -1.40689072
H       -0.98568225       2.47671774       0.95632923
H        2.15039669      -0.45526212       1.10096515
H        1.26003643      -1.89764060       0.52435616
H        1.14253399      -0.61339937      -1.76522737
14
Frame=16 idx=010516 GeodesicLength=1.2614892662373354 rxn_smarts="[C:1](/[C:2](=[N:3]\[H:11])[O:4][C:5]([C:6](=[O:7])[H:14])([H:12])[H:13])([H:8])([H:9])[H:10]>>[C:1]([C@:6]1([H:14])[C:5]([H:12])([H:13])[O:4]/[C:2](=[N:3]/[H:11])[O:7]1)([H:8])([H:9])[H:10]"
C       -1.34256817      -0.32110273      -0.76372268
C       -0.38055006       0.71459720       0.77477774
N       -0.33105518       1.79789852       1.39913205
O        0.14162242      -0.40525554       1.34090723
C        1.27166999      -0.80242428       0.57803698
C        1.03435208      -0.16570551      -0.78523339
O        1.26327666       1.11557578      -0.61897575
H       -2.06901927      -0.71099271      -0.04309774
H       -1.89005793       0.42516176      -1.34254661
H       -1.32826919      -1.20566606      -1.40671528
H       -0.94947633       2.47984835       0.97526024
H        2.13558879      -0.42520636       1.12872774
H        1.29543284      -1.88878603       0.53294280
H        1.14905335      -0.60794240      -1.76949333
