9
Frame=0 idx=001644 GeodesicLength=0.0 rxn_smarts="[C:1](#[C:2][C@@:3]1([H:7])[C:4]([H:8])([H:9])[O:5]1)[H:6]>>[C:1](#[C:2][C-:3]=[O+:5][C:4]([H:7])([H:8])[H:9])[H:6]"
C        2.19999491      -0.48958862       0.40981012
C        1.20329161       0.03317564      -0.01286142
C        0.15068700       0.78075527      -0.66515258
C       -1.39497160       0.06827525      -0.03146335
O       -0.77432089       1.28734025       0.26845803
H        3.08282774      -0.94869071       0.78884420
H       -0.81741049      -0.22148171      -1.05640750
H       -1.24371389      -0.70950453       0.71143660
H       -2.40638442       0.19971920      -0.41266413
9
Frame=1 idx=001644 GeodesicLength=0.05428580057096336 rxn_smarts="[C:1](#[C:2][C@@:3]1([H:7])[C:4]([H:8])([H:9])[O:5]1)[H:6]>>[C:1](#[C:2][C-:3]=[O+:5][C:4]([H:7])([H:8])[H:9])[H:6]"
C        2.21315073      -0.49711019       0.41475619
C        1.20906244       0.01194661      -0.00697993
C        0.15311043       0.75683603      -0.65476521
C       -1.40810031       0.07023276      -0.03521515
O       -0.76198619       1.27453878       0.27679143
H        3.12166211      -0.91299568       0.78449665
H       -0.82873232      -0.22241492      -1.07355209
H       -1.28217226      -0.71074611       0.70916207
H       -2.41599464       0.22971271      -0.41469395
9
Frame=2 idx=001644 GeodesicLength=0.10838569013662588 rxn_smarts="[C:1](#[C:2][C@@:3]1([H:7])[C:4]([H:8])([H:9])[O:5]1)[H:6]>>[C:1](#[C:2][C-:3]=[O+:5][C:4]([H:7])([H:8])[H:9])[H:6]"
C        2.22874495      -0.50468188       0.41302012
C        1.21587350      -0.00901985      -0.00355798
C        0.15504826       0.73271811      -0.64482904
C       -1.42047382       0.07179763      -0.03831933
O       -0.74900965       1.26045271       0.28618945
H        3.15402003      -0.87634590       0.78686687
H       -0.84035578      -0.22210790      -1.09138232
H       -1.31928290      -0.71232235       0.70664248
H       -2.42456459       0.25950943      -0.41463026
9
Frame=3 idx=001644 GeodesicLength=0.1623463669881633 rxn_smarts="[C:1](#[C:2][C@@:3]1([H:7])[C:4]([H:8])([H:9])[O:5]1)[H:6]>>[C:1](#[C:2][C-:3]=[O+:5][C:4]([H:7])([H:8])[H:9])[H:6]"
C        2.24420096      -0.50653335       0.41926563
C        1.22273678      -0.02731164       0.00454072
C        0.15687269       0.70780527      -0.63385004
C       -1.43314331       0.07318597      -0.04198763
O       -0.73826370       1.24685302       0.29366497
H        3.18729822      -0.84651355       0.77857716
H       -0.84982404      -0.22332186      -1.10835510
H       -1.35770975      -0.71158628       0.70545312
H       -2.43216786       0.28742243      -0.41730882
9
Frame=4 idx=001644 GeodesicLength=0.21617247379359583 rxn_smarts="[C:1](#[C:2][C@@:3]1([H:7])[C:4]([H:8])([H:9])[O:5]1)[H:6]>>[C:1](#[C:2][C-:3]=[O+:5][C:4]([H:7])([H:8])[H:9])[H:6]"
C        2.26054099      -0.50816971       0.42335207
C        1.23014151      -0.04548381       0.01203485
C        0.15831926       0.68211845      -0.62285418
C       -1.44564050       0.07444131      -0.04542335
O       -0.72744139       1.23239751       0.30146331
H        3.21847086      -0.81632516       0.77223102
H       -0.85930316      -0.22390348      -1.12574440
H       -1.39606898      -0.71041032       0.70422167
H       -2.43901859       0.31533519      -0.41928100
9
Frame=5 idx=001644 GeodesicLength=0.2698027836522414 rxn_smarts="[C:1](#[C:2][C@@:3]1([H:7])[C:4]([H:8])([H:9])[O:5]1)[H:6]>>[C:1](#[C:2][C-:3]=[O+:5][C:4]([H:7])([H:8])[H:9])[H:6]"
C        2.27687503      -0.50697145       0.43084664
C        1.23793949      -0.06200680       0.02152424
C        0.15948345       0.65571565      -0.61123604
C       -1.45817087       0.07548978      -0.04904844
O       -0.71774113       1.21781954       0.30852813
H        3.24919563      -0.78945947       0.76116558
H       -0.86764199      -0.22484246      -1.14298298
H       -1.43487246      -0.70793889       0.70348271
H       -2.44506716       0.34219410      -0.42227984
9
Frame=6 idx=001644 GeodesicLength=0.32326926049193155 rxn_smarts="[C:1](#[C:2][C@@:3]1([H:7])[C:4]([H:8])([H:9])[O:5]1)[H:6]>>[C:1](#[C:2][C-:3]=[O+:5][C:4]([H:7])([H:8])[H:9])[H:6]"
C        2.29411543      -0.50533773       0.43551342
C        1.24646700      -0.07789457       0.02981998
C        0.16009683       0.62864306      -0.59984567
C       -1.47047919       0.07632407      -0.05233524
O       -0.70799563       1.20245341       0.31581498
H        3.27756054      -0.76289043       0.75317204
H       -0.87610620      -0.22502014      -1.16070755
H       -1.47319809      -0.70507872       0.70279497
H       -2.45046067       0.36880104      -0.42422691
9
Frame=7 idx=001644 GeodesicLength=0.3765809712219094 rxn_smarts="[C:1](#[C:2][C@@:3]1([H:7])[C:4]([H:8])([H:9])[O:5]1)[H:6]>>[C:1](#[C:2][C-:3]=[O+:5][C:4]([H:7])([H:8])[H:9])[H:6]"
C        2.31185799      -0.50267346       0.43952831
C        1.25556434      -0.09295353       0.03808437
C        0.16025137       0.60069122      -0.58826680
C       -1.48275758       0.07697874      -0.05549473
O       -0.69857705       1.18646264       0.32304831
H        3.30473514      -0.73730768       0.74549950
H       -0.88428529      -0.22474549      -1.17871189
H       -1.51159111      -0.70150257       0.70225028
H       -2.45519780       0.39505012      -0.42593734
9
Frame=8 idx=001644 GeodesicLength=0.42969082844388173 rxn_smarts="[C:1](#[C:2][C@@:3]1([H:7])[C:4]([H:8])([H:9])[O:5]1)[H:6]>>[C:1](#[C:2][C-:3]=[O+:5][C:4]([H:7])([H:8])[H:9])[H:6]"
C        2.32989016      -0.49881397       0.44336932
C        1.26530298      -0.10663616       0.04647004
C        0.15990031       0.57196087      -0.57645708
C       -1.49499915       0.07738999      -0.05854733
O       -0.68969662       1.17000309       0.33006593
H        3.33084317      -0.71335698       0.73763589
H       -0.89200811      -0.22403964      -1.19695015
H       -1.54991696      -0.69713015       0.70196182
H       -2.45931579       0.42062296      -0.42754844
9
Frame=9 idx=001644 GeodesicLength=0.48261074364261586 rxn_smarts="[C:1](#[C:2][C@@:3]1([H:7])[C:4]([H:8])([H:9])[O:5]1)[H:6]>>[C:1](#[C:2][C-:3]=[O+:5][C:4]([H:7])([H:8])[H:9])[H:6]"
C        2.34836075      -0.49398585       0.44593406
C        1.27581743      -0.11890408       0.05414938
C        0.15894277       0.54243278      -0.56466096
C       -1.50716785       0.07752942      -0.06136264
O       -0.68115770       1.15298707       0.33693561
H        3.35554546      -0.69083506       0.73120839
H       -0.89953807      -0.22267006      -1.21554022
H       -1.58791090      -0.69212595       0.70194222
H       -2.46289190       0.44557172      -0.42860583
9
Frame=10 idx=001644 GeodesicLength=0.535353292941017 rxn_smarts="[C:1](#[C:2][C@@:3]1([H:7])[C:4]([H:8])([H:9])[O:5]1)[H:6]>>[C:1](#[C:2][C-:3]=[O+:5][C:4]([H:7])([H:8])[H:9])[H:6]"
C        2.36724770      -0.48826885       0.44717675
C        1.28711831      -0.12980545       0.06096645
C        0.15736420       0.51192323      -0.55284914
C       -1.51932105       0.07739646      -0.06393664
O       -0.67290091       1.13534406       0.34365816
H        3.37903934      -0.66956197       0.72637566
H       -0.90691957      -0.22054286      -1.23450085
H       -1.62566959      -0.68649020       0.70219762
H       -2.46595842       0.47000558      -0.42908801
9
Frame=11 idx=001644 GeodesicLength=0.5879215563493573 rxn_smarts="[C:1](#[C:2][C@@:3]1([H:7])[C:4]([H:8])([H:9])[O:5]1)[H:6]>>[C:1](#[C:2][C-:3]=[O+:5][C:4]([H:7])([H:8])[H:9])[H:6]"
C        2.38650123      -0.48155417       0.44750959
C        1.29914311      -0.13932497       0.06721757
C        0.15517670       0.48020211      -0.54078520
C       -1.53155966       0.07700339      -0.06632952
O       -0.66500273       1.11705742       0.35020983
H        3.40172223      -0.64956881       0.72247667
H       -0.91400195      -0.21766648      -1.25375726
H       -1.66345785      -0.68011741       0.70272695
H       -2.46852107       0.49396892      -0.42926862
9
Frame=12 idx=001644 GeodesicLength=0.6403495571796145 rxn_smarts="[C:1](#[C:2][C@@:3]1([H:7])[C:4]([H:8])([H:9])[O:5]1)[H:6]>>[C:1](#[C:2][C-:3]=[O+:5][C:4]([H:7])([H:8])[H:9])[H:6]"
C        2.40612051      -0.47375615       0.44706494
C        1.31188017      -0.14749196       0.07291428
C        0.15236351       0.44700242      -0.52828984
C       -1.54396009       0.07634978      -0.06856085
O       -0.65745194       1.09804306       0.35662742
H        3.42381315      -0.63077367       0.71927811
H       -0.92069883      -0.21400012      -1.27326983
H       -1.70151080      -0.67293700       0.70353439
H       -2.47055569       0.51756364      -0.42929862
9
Frame=13 idx=001644 GeodesicLength=0.6926384290722462 rxn_smarts="[C:1](#[C:2][C@@:3]1([H:7])[C:4]([H:8])([H:9])[O:5]1)[H:6]>>[C:1](#[C:2][C-:3]=[O+:5][C:4]([H:7])([H:8])[H:9])[H:6]"
C        2.42610255      -0.46490763       0.44580518
C        1.32532418      -0.15442110       0.07790833
C        0.14889294       0.41195984      -0.51520624
C       -1.55659661       0.07545353      -0.07063840
O       -0.65016906       1.07814842       0.36295263
H        3.44543555      -0.61287206       0.71680869
H       -0.92695466      -0.20945371      -1.29299983
H       -1.74001129      -0.66489088       0.70457457
H       -2.47202359       0.54098358      -0.42920493
9
Frame=14 idx=001644 GeodesicLength=0.7448138865565961 rxn_smarts="[C:1](#[C:2][C@@:3]1([H:7])[C:4]([H:8])([H:9])[O:5]1)[H:6]>>[C:1](#[C:2][C-:3]=[O+:5][C:4]([H:7])([H:8])[H:9])[H:6]"
C        2.44642587      -0.45461200       0.44423745
C        1.33942756      -0.15994861       0.08255383
C        0.14472935       0.37472090      -0.50109259
C       -1.56958396       0.07430052      -0.07264114
O       -0.64329819       1.05730846       0.36924163
H        3.46693016      -0.59614437       0.71409015
H       -0.93241959      -0.20407321      -1.31279501
H       -1.77936002      -0.65579620       0.70582484
H       -2.47285117       0.56424451      -0.42941916
9
Frame=15 idx=001644 GeodesicLength=0.7969026195297689 rxn_smarts="[C:1](#[C:2][C@@:3]1([H:7])[C:4]([H:8])([H:9])[O:5]1)[H:6]>>[C:1](#[C:2][C-:3]=[O+:5][C:4]([H:7])([H:8])[H:9])[H:6]"
C        2.46727349      -0.44301725       0.44152057
C        1.35418727      -0.16450444       0.08634471
C        0.13977529       0.33460785      -0.48570800
C       -1.58302624       0.07297245      -0.07452979
O       -0.63659108       1.03514487       0.37570013
H        3.48823179      -0.57974445       0.71193104
H       -0.93705994      -0.19772749      -1.33256556
H       -1.81990344      -0.64555026       0.70716534
H       -2.47288714       0.58781873      -0.42985844
9
Frame=16 idx=001644 GeodesicLength=0.848919997961683 rxn_smarts="[C:1](#[C:2][C@@:3]1([H:7])[C:4]([H:8])([H:9])[O:5]1)[H:6]>>[C:1](#[C:2][C-:3]=[O+:5][C:4]([H:7])([H:8])[H:9])[H:6]"
C        2.48856036      -0.42966246       0.43854135
C        1.36943564      -0.16813140       0.09009204
C        0.13395948       0.29085581      -0.46807737
C       -1.59713079       0.07149167      -0.07649291
O       -0.63027685       1.01137409       0.38260299
H        3.51000189      -0.56361390       0.70830077
H       -0.94013580      -0.19052020      -1.35198152
H       -1.86256525      -0.63373133       0.70837615
H       -2.47184868       0.61193772      -0.43136149
