12
Frame=0 idx=010599 GeodesicLength=0.0 rxn_smarts="[O:1]=[C:2]([C@@:3]1([H:9])[C:4]([H:10])([H:11])[C@:5]1([C:6]#[N:7])[H:12])[H:8]>>[O:1]([C@:2]1([H:8])[C:3]([H:9])=[C:5]([H:12])[C:4]1([H:10])[H:11])[C:6]#[N:7]"
O       -0.33593871      -1.59867570       0.07242272
C       -0.35391308      -0.55405432       0.96291898
C       -0.85172047       0.67607232       0.32426552
C        0.89729297       0.32589289       0.52467186
C       -0.02589082       0.57047526      -0.80406201
C       -0.21387851      -0.93528922      -1.28218653
N       -0.30356680      -1.40219490      -2.37010884
H       -0.58913319      -0.80691561       1.98842881
H       -1.31149845       1.54179586       0.78777082
H        1.71412587      -0.33254534       0.22675808
H        1.21280962       1.18167726       1.11186235
H        0.16131157       1.33376150      -1.54274176
12
Frame=1 idx=010599 GeodesicLength=0.12383842126043192 rxn_smarts="[O:1]=[C:2]([C@@:3]1([H:9])[C:4]([H:10])([H:11])[C@:5]1([C:6]#[N:7])[H:12])[H:8]>>[O:1]([C@:2]1([H:8])[C:3]([H:9])=[C:5]([H:12])[C:4]1([H:10])[H:11])[C:6]#[N:7]"
O       -0.38259034      -1.60877442       0.08593418
C       -0.36745462      -0.55761005       0.96335845
C       -0.84747763       0.68018487       0.32659096
C        0.89945266       0.33225198       0.51893856
C       -0.01836067       0.58266765      -0.80120287
C       -0.21907636      -0.94364970      -1.29157253
N       -0.27878524      -1.41217411      -2.37904702
H       -0.55613160      -0.81053122       1.99874890
H       -1.33420566       1.53490342       0.78076512
H        1.71043077      -0.33578585       0.22729265
H        1.22940320       1.18473500       1.10321903
H        0.16479549       1.35378242      -1.53302544
12
Frame=2 idx=010599 GeodesicLength=0.2476501633450396 rxn_smarts="[O:1]=[C:2]([C@@:3]1([H:9])[C:4]([H:10])([H:11])[C@:5]1([C:6]#[N:7])[H:12])[H:8]>>[O:1]([C@:2]1([H:8])[C:3]([H:9])=[C:5]([H:12])[C:4]1([H:10])[H:11])[C:6]#[N:7]"
O       -0.43115959      -1.61769941       0.09973076
C       -0.38112088      -0.56104146       0.96390458
C       -0.84291030       0.68454027       0.32933537
C        0.90196158       0.33892498       0.51329015
C       -0.01076149       0.59534852      -0.79806712
C       -0.22422087      -0.95214575      -1.30075203
N       -0.25372886      -1.42316612      -2.38657025
H       -0.52228751      -0.81553893       2.00684689
H       -1.35733703       1.52738013       0.77295185
H        1.70684544      -0.33866497       0.22770952
H        1.24651794       1.18782900       1.09457362
H        0.16820156       1.37423375      -1.52295334
12
Frame=3 idx=010599 GeodesicLength=0.37143150127717406 rxn_smarts="[O:1]=[C:2]([C@@:3]1([H:9])[C:4]([H:10])([H:11])[C@:5]1([C:6]#[N:7])[H:12])[H:8]>>[O:1]([C@:2]1([H:8])[C:3]([H:9])=[C:5]([H:12])[C:4]1([H:10])[H:11])[C:6]#[N:7]"
O       -0.48166414      -1.62532166       0.11384359
C       -0.39485124      -0.56435914       0.96455190
C       -0.83798940       0.68912805       0.33253986
C        0.90486087       0.34596208       0.50773174
C       -0.00307962       0.60853677      -0.79463353
C       -0.22926456      -0.96081440      -1.30967880
N       -0.22852473      -1.43522281      -2.39259496
H       -0.48773648      -0.82208387       2.01257564
H       -1.38086641       1.51913357       0.76423806
H        1.70343304      -0.34109983       0.22798973
H        1.26416481       1.19100295       1.08593892
H        0.17151784       1.39513829      -1.51250215
12
Frame=4 idx=010599 GeodesicLength=0.4951951506568437 rxn_smarts="[O:1]=[C:2]([C@@:3]1([H:9])[C:4]([H:10])([H:11])[C@:5]1([C:6]#[N:7])[H:12])[H:8]>>[O:1]([C@:2]1([H:8])[C:3]([H:9])=[C:5]([H:12])[C:4]1([H:10])[H:11])[C:6]#[N:7]"
O       -0.53411571      -1.63150698       0.12830903
C       -0.40859345      -0.56757920       0.96529096
C       -0.83269136       0.69393972       0.33624682
C        0.90818540       0.35341438       0.50227111
C        0.00469330       0.62225312      -0.79088209
C       -0.23416866      -0.96970004      -1.31830587
N       -0.20328846      -1.44839934      -2.39705340
H       -0.45260417      -0.83031576       2.01579860
H       -1.40474768       1.51007225       0.75452787
H        1.70025337      -0.34300650       0.22811537
H        1.28234841       1.19430572       1.07733173
H        0.17472902       1.41652263      -1.50165013
12
Frame=5 idx=010599 GeodesicLength=0.6189417085354114 rxn_smarts="[O:1]=[C:2]([C@@:3]1([H:9])[C:4]([H:10])([H:11])[C@:5]1([C:6]#[N:7])[H:12])[H:8]>>[O:1]([C@:2]1([H:8])[C:3]([H:9])=[C:5]([H:12])[C:4]1([H:10])[H:11])[C:6]#[N:7]"
O       -0.58847295      -1.63613054       0.14317255
C       -0.42230950      -0.57072762       0.96609367
C       -0.82700526       0.69895029       0.34047657
C        0.91196192       0.36133722       0.49693138
C        0.01257109       0.63651024      -0.78679179
C       -0.23887661      -0.97885719      -1.32658104
N       -0.17821351      -1.46273671      -2.39989772
H       -0.41702187      -0.84036409       2.01636196
H       -1.42888761       1.50009037       0.74371303
H        1.69737460      -0.34427686       0.22810304
H        1.30105476       1.19779591       1.06878452
H        0.17782493       1.43840898      -1.49036617
12
Frame=6 idx=010599 GeodesicLength=0.7426525997263534 rxn_smarts="[O:1]=[C:2]([C@@:3]1([H:9])[C:4]([H:10])([H:11])[C@:5]1([C:6]#[N:7])[H:12])[H:8]>>[O:1]([C@:2]1([H:8])[C:3]([H:9])=[C:5]([H:12])[C:4]1([H:10])[H:11])[C:6]#[N:7]"
O       -0.64473659      -1.63902916       0.15848938
C       -0.43597709      -0.57381723       0.96694188
C       -0.82093156       0.70416022       0.34528124
C        0.91620110       0.36977235       0.49170623
C        0.02053246       0.65132983      -0.78233846
C       -0.24340129      -0.98832892      -1.33444520
N       -0.15328320      -1.47829861      -2.40104740
H       -0.38109767      -0.85239732       2.01411067
H       -1.45317446       1.48912443       0.73173435
H        1.69483233      -0.34484344       0.22790215
H        1.32027264       1.20151177       1.06028854
H        0.18076332       1.46081608      -1.47862340
12
Frame=7 idx=010599 GeodesicLength=0.8663384755654556 rxn_smarts="[O:1]=[C:2]([C@@:3]1([H:9])[C:4]([H:10])([H:11])[C@:5]1([C:6]#[N:7])[H:12])[H:8]>>[O:1]([C@:2]1([H:8])[C:3]([H:9])=[C:5]([H:12])[C:4]1([H:10])[H:11])[C:6]#[N:7]"
O       -0.70280382      -1.64008885       0.17432590
C       -0.44959484      -0.57688061       0.96780034
C       -0.81449203       0.70954198       0.35067340
C        0.92089931       0.37877125       0.48661858
C        0.02856826       0.66672239      -0.77750565
C       -0.24771608      -0.99818417      -1.34184967
N       -0.12862315      -1.49513506      -2.40046927
H       -0.34496364      -0.86654863       2.00887011
H       -1.47741691       1.47712333       0.71853551
H        1.69267234      -0.34460455       0.22752310
H        1.33995622       1.20551794       1.05187169
H        0.18351435       1.48376498      -1.46639405
12
Frame=8 idx=010599 GeodesicLength=0.9901191376741951 rxn_smarts="[O:1]=[C:2]([C@@:3]1([H:9])[C:4]([H:10])([H:11])[C@:5]1([C:6]#[N:7])[H:12])[H:8]>>[O:1]([C@:2]1([H:8])[C:3]([H:9])=[C:5]([H:12])[C:4]1([H:10])[H:11])[C:6]#[N:7]"
O       -0.76261324      -1.63920859       0.19075567
C       -0.46318255      -0.57996136       0.96865541
C       -0.80772213       0.71508730       0.35668829
C        0.92604549       0.38838334       0.48168438
C        0.03662662       0.68272581      -0.77229018
C       -0.25190631      -1.00849256      -1.34877896
N       -0.10414596      -1.51336336      -2.39810860
H       -0.30872319      -0.88300304       2.00046820
H       -1.50138752       1.46411539       0.70410832
H        1.69090883      -0.34349033       0.22693641
H        1.36009132       1.20988567       1.04355796
H        0.18600863       1.50732173      -1.45367690
12
Frame=9 idx=010599 GeodesicLength=1.1136832099229046 rxn_smarts="[O:1]=[C:2]([C@@:3]1([H:9])[C:4]([H:10])([H:11])[C@:5]1([C:6]#[N:7])[H:12])[H:8]>>[O:1]([C@:2]1([H:8])[C:3]([H:9])=[C:5]([H:12])[C:4]1([H:10])[H:11])[C:6]#[N:7]"
O       -0.82382809      -1.63629360       0.20790056
C       -0.47680617      -0.58304927       0.96939169
C       -0.80071296       0.72070282       0.36325031
C        0.93155629       0.39861929       0.47689435
C        0.04471537       0.69926850      -0.76665056
C       -0.25581621      -1.01929808      -1.35513966
N       -0.08006504      -1.53291565      -2.39391521
H       -0.27258370      -0.90169623       1.98857157
H       -1.52473633       1.45007551       0.68858720
H        1.68955938      -0.34138982       0.22616145
H        1.38047826       1.21461006       1.03530701
H        0.18823920       1.53136649      -1.44035871
12
Frame=10 idx=010599 GeodesicLength=1.2373320951151376 rxn_smarts="[O:1]=[C:2]([C@@:3]1([H:9])[C:4]([H:10])([H:11])[C@:5]1([C:6]#[N:7])[H:12])[H:8]>>[O:1]([C@:2]1([H:8])[C:3]([H:9])=[C:5]([H:12])[C:4]1([H:10])[H:11])[C:6]#[N:7]"
O       -0.88630098      -1.63137948       0.22583474
C       -0.49048738      -0.58623655       0.97003710
C       -0.79353274       0.72635809       0.37037185
C        0.93741457       0.40954194       0.47229258
C        0.05275025       0.71641202      -0.76062895
C       -0.25957502      -1.03073393      -1.36098834
N       -0.05624235      -1.55395671      -2.38791585
H       -0.23672219      -0.92283283       1.97306402
H       -1.54713773       1.43522627       0.67205878
H        1.68863032      -0.33825046       0.22519316
H        1.40110693       1.21982229       1.02719640
H        0.19009633       1.55602934      -1.42651548
12
Frame=11 idx=010599 GeodesicLength=1.3610069963828695 rxn_smarts="[O:1]=[C:2]([C@@:3]1([H:9])[C:4]([H:10])([H:11])[C@:5]1([C:6]#[N:7])[H:12])[H:8]>>[O:1]([C@:2]1([H:8])[C:3]([H:9])=[C:5]([H:12])[C:4]1([H:10])[H:11])[C:6]#[N:7]"
O       -0.94969921      -1.62451159       0.24468447
C       -0.50431004      -0.58955401       0.97053083
C       -0.78629535       0.73196313       0.37797190
C        0.94353408       0.42115684       0.46787686
C        0.06069123       0.73412794      -0.75423664
C       -0.26314833      -1.04288255      -1.36633391
N       -0.03264471      -1.57652166      -2.38010938
H       -0.20136737      -0.94635813       1.95367977
H       -1.56821452       1.41976468       0.65480170
H        1.68810459      -0.33402335       0.22402707
H        1.42182723       1.22554865       1.01921558
H        0.19152239       1.58129004      -1.41210825
12
Frame=12 idx=010599 GeodesicLength=1.4848008922961489 rxn_smarts="[O:1]=[C:2]([C@@:3]1([H:9])[C:4]([H:10])([H:11])[C@:5]1([C:6]#[N:7])[H:12])[H:8]>>[O:1]([C@:2]1([H:8])[C:3]([H:9])=[C:5]([H:12])[C:4]1([H:10])[H:11])[C:6]#[N:7]"
O       -1.01371940      -1.61579225       0.26460668
C       -0.51835367      -0.59304638       0.97086577
C       -0.77912494       0.73743554       0.38597476
C        0.94985509       0.43345281       0.46364802
C        0.06848851       0.75241143      -0.74752711
C       -0.26653142      -1.05582793      -1.37125230
N       -0.00913910      -1.60066163      -2.37054996
H       -0.16676186      -0.97220246       1.93023430
H       -1.58768849       1.40396860       0.63714880
H        1.68799038      -0.32871408       0.22264740
H        1.44253901       1.23180233       1.01137426
H        0.19244588       1.60717403      -1.39717061
12
Frame=13 idx=010599 GeodesicLength=1.6084463685144685 rxn_smarts="[O:1]=[C:2]([C@@:3]1([H:9])[C:4]([H:10])([H:11])[C@:5]1([C:6]#[N:7])[H:12])[H:8]>>[O:1]([C@:2]1([H:8])[C:3]([H:9])=[C:5]([H:12])[C:4]1([H:10])[H:11])[C:6]#[N:7]"
O       -1.07803491      -1.60539803       0.28564348
C       -0.53269029      -0.59675611       0.97086933
C       -0.77203433       0.74255115       0.39422585
C        0.95629821       0.44649710       0.45958231
C        0.07616986       0.77118944      -0.74041552
C       -0.26975078      -1.06965209      -1.37564943
N        0.01416203      -1.62634706      -2.35903416
H       -0.13321189      -1.00016576       1.90223249
H       -1.60515583       1.38792418       0.61932630
H        1.68817384      -0.32212341       0.22105455
H        1.46314065       1.23869647       1.00361715
H        0.19293344       1.63358411      -1.38145234
12
Frame=14 idx=010599 GeodesicLength=1.7321202195156649 rxn_smarts="[O:1]=[C:2]([C@@:3]1([H:9])[C:4]([H:10])([H:11])[C@:5]1([C:6]#[N:7])[H:12])[H:8]>>[O:1]([C@:2]1([H:8])[C:3]([H:9])=[C:5]([H:12])[C:4]1([H:10])[H:11])[C:6]#[N:7]"
O       -1.14237448      -1.59348164       0.30807490
C       -0.54720699      -0.60087514       0.97068094
C       -0.76501320       0.74737797       0.40297509
C        0.96293261       0.45999993       0.45541237
C        0.08347877       0.79076404      -0.73302720
C       -0.27350602      -1.08392720      -1.37991601
N        0.03878487      -1.65362357      -2.34502896
H       -0.10155133      -1.03000984       1.87030939
H       -1.62072268       1.37170097       0.60152631
H        1.68857595      -0.31470500       0.21853340
H        1.48398258       1.24574702       0.99557167
H        0.19261992       1.66103246      -1.36511190
12
Frame=15 idx=010599 GeodesicLength=1.8554173357808605 rxn_smarts="[O:1]=[C:2]([C@@:3]1([H:9])[C:4]([H:10])([H:11])[C@:5]1([C:6]#[N:7])[H:12])[H:8]>>[O:1]([C@:2]1([H:8])[C:3]([H:9])=[C:5]([H:12])[C:4]1([H:10])[H:11])[C:6]#[N:7]"
O       -1.20611190      -1.58031320       0.33192987
C       -0.56206911      -0.60515502       0.96996258
C       -0.75813051       0.75166669       0.41144616
C        0.96933392       0.47430663       0.45158714
C        0.09081645       0.81062611      -0.72521623
C       -0.27626455      -1.09972615      -1.38358064
N        0.06218596      -1.68241252      -2.32968035
H       -0.07099661      -1.06146568       1.83281941
H       -1.63370327       1.35602706       0.58425642
H        1.68902244      -0.30602971       0.21634971
H        1.50390865       1.25371523       0.98789593
H        0.19200853       1.68876055      -1.34776999
12
Frame=16 idx=010599 GeodesicLength=1.9791088225656683 rxn_smarts="[O:1]=[C:2]([C@@:3]1([H:9])[C:4]([H:10])([H:11])[C@:5]1([C:6]#[N:7])[H:12])[H:8]>>[O:1]([C@:2]1([H:8])[C:3]([H:9])=[C:5]([H:12])[C:4]1([H:10])[H:11])[C:6]#[N:7]"
O       -1.26939923      -1.56607220       0.35762558
C       -0.57728843      -0.60982802       0.96906733
C       -0.75153601       0.75535465       0.41994533
C        0.97592044       0.48915955       0.44787663
C        0.09800440       0.83108004      -0.71725650
C       -0.27886872      -1.11650057      -1.38719303
N        0.08588760      -1.71256036      -2.31275082
H       -0.04249872      -1.09428638       1.79088532
H       -1.64485991       1.34065625       0.56755253
H        1.68994603      -0.29639556       0.21381479
H        1.52383153       1.26212089       0.98029187
H        0.19086102       1.71727170      -1.32985902
