19
Frame=0 idx=009271 GeodesicLength=0.0 rxn_smarts="[C:1]([O:2][C:3]([C@@:4]([C:5]([H:14])([H:15])[H:16])([C:6]([O:7][H:19])([H:17])[H:18])[H:13])([H:11])[H:12])([H:8])([H:9])[H:10]>>[C:1]([O:2][H:13])([H:8])([H:9])[H:10].[C:3](=[C:4]([C:5]([H:14])([H:15])[H:16])[C:6]([O:7][H:19])([H:17])[H:18])([H:11])[H:12]"
C        2.19446376      -0.02998727      -1.55071809
O        1.45395403       0.58711287      -0.53109876
C        0.61959819      -0.46999445       0.83849808
C       -0.67972863      -0.14035357       0.40487239
C       -1.54299847      -1.17896578      -0.27894443
C       -1.43332550       0.93750914       1.16231610
O       -0.59940755       1.97129941       1.64210403
H        1.71031150      -0.95018949      -1.91267420
H        2.30453680       0.65000581      -2.40051689
H        3.19678823      -0.28726650      -1.19596034
H        1.06239309      -1.42526193       0.57658652
H        1.08583050       0.06476868       1.65554861
H        0.18400376       0.45463235      -0.49154790
H       -2.24096629      -0.71173878      -0.97768818
H       -2.14039996      -1.75267417       0.43752132
H       -0.94012793      -1.88904593      -0.84819229
H       -2.22669187       1.33603076       0.51515814
H       -1.92693417       0.52506281       2.04872933
H       -0.08129949       2.30905611       0.90600648
19
Frame=1 idx=009271 GeodesicLength=0.08780268186984308 rxn_smarts="[C:1]([O:2][C:3]([C@@:4]([C:5]([H:14])([H:15])[H:16])([C:6]([O:7][H:19])([H:17])[H:18])[H:13])([H:11])[H:12])([H:8])([H:9])[H:10]>>[C:1]([O:2][H:13])([H:8])([H:9])[H:10].[C:3](=[C:4]([C:5]([H:14])([H:15])[H:16])[C:6]([O:7][H:19])([H:17])[H:18])([H:11])[H:12]"
C        2.22799230       0.00251502      -1.53912195
O        1.43303266       0.60029921      -0.54941175
C        0.60989149      -0.48998650       0.81016189
C       -0.69352710      -0.15050141       0.39417981
C       -1.58018746      -1.19349134      -0.25060152
C       -1.42311214       0.94084302       1.15622721
O       -0.57962632       1.97830101       1.60800657
H        1.77271584      -0.91783179      -1.93540580
H        2.36969260       0.69544111      -2.37328995
H        3.21562323      -0.24744410      -1.14014935
H        1.03950647      -1.44938790       0.54020634
H        1.08159696       0.02620664       1.63637915
H        0.15702375       0.44268258      -0.53201482
H       -2.29038193      -0.73204005      -0.94079726
H       -2.16528419      -1.74793852       0.49065119
H       -0.99715520      -1.91940127      -0.82040388
H       -2.22775311       1.33604003       0.52126356
H       -1.90105219       0.53808437       2.05593008
H       -0.04899566       2.28760989       0.86819047
19
Frame=2 idx=009271 GeodesicLength=0.172472871962483 rxn_smarts="[C:1]([O:2][C:3]([C@@:4]([C:5]([H:14])([H:15])[H:16])([C:6]([O:7][H:19])([H:17])[H:18])[H:13])([H:11])[H:12])([H:8])([H:9])[H:10]>>[C:1]([O:2][H:13])([H:8])([H:9])[H:10].[C:3](=[C:4]([C:5]([H:14])([H:15])[H:16])[C:6]([O:7][H:19])([H:17])[H:18])([H:11])[H:12]"
C        2.25961725       0.03438654      -1.52646649
O        1.41218765       0.61197159      -0.56877130
C        0.60031807      -0.50995639       0.78157952
C       -0.70677138      -0.16045785       0.38285315
C       -1.61576910      -1.20707908      -0.22241929
C       -1.41238757       0.94376632       1.14933054
O       -0.56015478       1.98460561       1.57338165
H        1.83454590      -0.88514827      -1.95577143
H        2.43148975       0.74078445      -2.34311535
H        3.23059872      -0.20914615      -1.08450931
H        1.01643978      -1.47346506       0.50388084
H        1.07776788      -0.01177017       1.61592870
H        0.13042757       0.43121662      -0.57258520
H       -2.33809931      -0.75113868      -0.90360901
H       -2.18760284      -1.74228626       0.54283192
H       -1.05251873      -1.94834750      -0.79220612
H       -2.22818052       1.33591551       0.52703032
H       -1.87428136       0.55031941       2.06179004
H       -0.01762698       2.26582936       0.83084680
19
Frame=3 idx=009271 GeodesicLength=0.25463735444915625 rxn_smarts="[C:1]([O:2][C:3]([C@@:4]([C:5]([H:14])([H:15])[H:16])([C:6]([O:7][H:19])([H:17])[H:18])[H:13])([H:11])[H:12])([H:8])([H:9])[H:10]>>[C:1]([O:2][H:13])([H:8])([H:9])[H:10].[C:3](=[C:4]([C:5]([H:14])([H:15])[H:16])[C:6]([O:7][H:19])([H:17])[H:18])([H:11])[H:12]"
C        2.28938630       0.06561173      -1.51280603
O        1.39151490       0.62216618      -0.58915580
C        0.59086189      -0.52989766       0.75277225
C       -0.71950093      -0.17024278       0.37094113
C       -1.64975408      -1.21975321      -0.19442076
C       -1.40118441       0.94629098       1.14167582
O       -0.54101245       1.99028072       1.53822677
H        1.89578927      -0.85214823      -1.97379811
H        2.48990988       0.78596566      -2.31012507
H        3.24187182      -0.17240200      -1.02915760
H        0.99319352      -1.49748358       0.46766457
H        1.07429610      -0.04918305       1.59431092
H        0.10415134       0.42033219      -0.61319981
H       -2.38411500      -0.76905278      -0.86615058
H       -2.20741270      -1.73577133       0.59401438
H       -1.10621141      -1.97591272      -0.76364294
H       -2.22801473       1.33564088       0.53251925
H       -1.84663786       0.56179517       2.06638624
H        0.01286854       2.24376385       0.79394536
19
Frame=4 idx=009271 GeodesicLength=0.33482788528469787 rxn_smarts="[C:1]([O:2][C:3]([C@@:4]([C:5]([H:14])([H:15])[H:16])([C:6]([O:7][H:19])([H:17])[H:18])[H:13])([H:11])[H:12])([H:8])([H:9])[H:10]>>[C:1]([O:2][H:13])([H:8])([H:9])[H:10].[C:3](=[C:4]([C:5]([H:14])([H:15])[H:16])[C:6]([O:7][H:19])([H:17])[H:18])([H:11])[H:12]"
C        2.31736078       0.09620319      -1.49818050
O        1.37108842       0.63091685      -0.61055095
C        0.58149930      -0.54982420       0.72374349
C       -0.73176168      -0.17988200       0.35848534
C       -1.68218404      -1.23154433      -0.16661053
C       -1.38952022       0.94843521       1.13330070
O       -0.52218810       1.99538081       1.50252242
H        1.95650696      -0.81884755      -1.98947819
H        2.54491856       0.83094103      -2.27445003
H        3.24962333      -0.13713978      -0.97417351
H        0.96975370      -1.52145342       0.43157971
H        1.07113082      -0.08609108       1.57162040
H        0.07812154       0.41008619      -0.65383189
H       -2.42845754      -0.78580644      -0.82843041
H       -2.22479750      -1.72844045       0.64418299
H       -1.15827429      -2.00214491      -0.73473702
H       -2.22727429       1.33521833       0.53778022
H       -1.81812625       0.57255606       2.06978213
H        0.04258050       2.22143650       0.75744562
19
Frame=5 idx=009271 GeodesicLength=0.41348166249668616 rxn_smarts="[C:1]([O:2][C:3]([C@@:4]([C:5]([H:14])([H:15])[H:16])([C:6]([O:7][H:19])([H:17])[H:18])[H:13])([H:11])[H:12])([H:8])([H:9])[H:10]>>[C:1]([O:2][H:13])([H:8])([H:9])[H:10].[C:3](=[C:4]([C:5]([H:14])([H:15])[H:16])[C:6]([O:7][H:19])([H:17])[H:18])([H:11])[H:12]"
C        2.34360044       0.12619154      -1.48261208
O        1.35096687       0.63825432      -0.63294469
C        0.57220551      -0.56975947       0.69448834
C       -0.74359694      -0.18940436       0.34552073
C       -1.71310723      -1.24248791      -0.13898070
C       -1.37740171       0.95021926       1.12422847
O       -0.50365559       1.99995055       1.46623101
H        2.01676264      -0.78522317      -2.00280758
H        2.59648545       0.87569249      -2.23619572
H        3.25401592      -0.10328179      -0.91960664
H        0.94610201      -1.54539354       0.39563314
H        1.06821950      -0.12256716       1.54793720
H        0.05226638       0.40050723      -0.69447370
H       -2.47116460      -0.80143218      -0.79044268
H       -2.23984391      -1.72033117       0.69334433
H       -1.20876183      -2.02710124      -0.70549423
H       -2.22596343       1.33465649       0.54285073
H       -1.78873920       0.58265694       2.07202502
H        0.07160972       2.19885315       0.72129904
19
Frame=6 idx=009271 GeodesicLength=0.49097704134066333 rxn_smarts="[C:1]([O:2][C:3]([C@@:4]([C:5]([H:14])([H:15])[H:16])([C:6]([O:7][H:19])([H:17])[H:18])[H:13])([H:11])[H:12])([H:8])([H:9])[H:10]>>[C:1]([O:2][H:13])([H:8])([H:9])[H:10].[C:3](=[C:4]([C:5]([H:14])([H:15])[H:16])[C:6]([O:7][H:19])([H:17])[H:18])([H:11])[H:12]"
C        2.36816507       0.15563025      -1.46610971
O        1.33119157       0.64419787      -0.65633854
C        0.56295103      -0.58974399       0.66498697
C       -0.75505136      -0.19884171       0.33207276
C       -1.74258881      -1.25261888      -0.11150768
C       -1.36482144       0.95166563       1.11446914
O       -0.48536617       2.00402243       1.42929704
H        2.07666353      -0.75124633      -2.01374928
H        2.64456858       0.92023762      -2.19545152
H        3.25520219      -0.07070109      -0.86546784
H        0.92220902      -1.56933835       0.35980105
H        1.06550976      -0.15871062       1.52332037
H        0.02651069       0.39159551      -0.73513981
H       -2.51229589      -0.81595984      -0.75215952
H       -2.25263846      -1.71147572       0.74153248
H       -1.25776073      -2.05084624      -0.67590254
H       -2.22406625       1.33397695       0.54775488
H       -1.75845491       0.59215958       2.07314667
H        0.10007258       2.17599691       0.68544507
19
Frame=7 idx=009271 GeodesicLength=0.5676302964811435 rxn_smarts="[C:1]([O:2][C:3]([C@@:4]([C:5]([H:14])([H:15])[H:16])([C:6]([O:7][H:19])([H:17])[H:18])[H:13])([H:11])[H:12])([H:8])([H:9])[H:10]>>[C:1]([O:2][H:13])([H:8])([H:9])[H:10].[C:3](=[C:4]([C:5]([H:14])([H:15])[H:16])[C:6]([O:7][H:19])([H:17])[H:18])([H:11])[H:12]"
C        2.39109956       0.18458118      -1.44866444
O        1.31179578       0.64875846      -0.68073812
C        0.55370820      -0.60982178       0.63521765
C       -0.76616292      -0.20822700       0.31816124
C       -1.77068604      -1.26197035      -0.08416203
C       -1.35176360       0.95279449       1.10401971
O       -0.46726497       2.00762006       1.39164730
H        2.13629269      -0.71684151      -2.02227004
H        2.68912392       0.96460836      -2.15227413
H        3.25329489      -0.03930256      -0.81175232
H        0.89804350      -1.59332594       0.32405674
H        1.06295042      -0.19462053       1.49781791
H        0.00078797       0.38333649      -0.77585179
H       -2.55190420      -0.82941934      -0.71354352
H       -2.26325482      -1.70189641       0.78878904
H       -1.30535165      -2.07343923      -0.64594030
H       -2.22155716       1.33320000       0.55250688
H       -1.72723905       0.60112734       2.07316342
H        0.12808749       2.15283828       0.64981680
19
Frame=8 idx=009271 GeodesicLength=0.6437230637734763 rxn_smarts="[C:1]([O:2][C:3]([C@@:4]([C:5]([H:14])([H:15])[H:16])([C:6]([O:7][H:19])([H:17])[H:18])[H:13])([H:11])[H:12])([H:8])([H:9])[H:10]>>[C:1]([O:2][H:13])([H:8])([H:9])[H:10].[C:3](=[C:4]([C:5]([H:14])([H:15])[H:16])[C:6]([O:7][H:19])([H:17])[H:18])([H:11])[H:12]"
C        2.41242897       0.21311098      -1.43026148
O        1.29280261       0.65193419      -0.70616118
C        0.54444815      -0.63004969       0.60514997
C       -0.77696754      -0.21759320       0.30380276
C       -1.79746060      -1.27056818      -0.05691710
C       -1.33819695       0.95362623       1.09287252
O       -0.44927463       2.01075290       1.35320925
H        2.19576887      -0.68198095      -2.02826036
H        2.73003874       1.00883806      -2.10675011
H        3.24840354      -0.00888817      -0.75842806
H        0.87356359      -1.61740670       0.28835847
H        1.06049615      -0.23041837       1.47146318
H       -0.02496989       0.37570711      -0.81663895
H       -2.59003832      -0.84182444      -0.67456802
H       -2.27177719      -1.69160335       0.83514794
H       -1.35162611      -2.09494201      -0.61557655
H       -2.21838906       1.33235915       0.55711537
H       -1.69504633       0.60962148       2.07208051
H        0.15579603       2.12932495       0.61436184
19
Frame=9 idx=009271 GeodesicLength=0.7194937225423231 rxn_smarts="[C:1]([O:2][C:3]([C@@:4]([C:5]([H:14])([H:15])[H:16])([C:6]([O:7][H:19])([H:17])[H:18])[H:13])([H:11])[H:12])([H:8])([H:9])[H:10]>>[C:1]([O:2][H:13])([H:8])([H:9])[H:10].[C:3](=[C:4]([C:5]([H:14])([H:15])[H:16])[C:6]([O:7][H:19])([H:17])[H:18])([H:11])[H:12]"
C        2.43215497       0.24128508      -1.41087155
O        1.27424069       0.65370974      -0.73261610
C        0.53514734      -0.65047938       0.57476794
C       -0.78748759      -0.22697437       0.28901271
C       -1.82294685      -1.27843258      -0.02974282
C       -1.32408970       0.95417642       1.08100412
O       -0.43133124       2.01342524       1.31388445
H        2.25512625      -0.64653478      -2.03166332
H        2.76721515       1.05297163      -2.05890592
H        3.24057108       0.02061493      -0.70547508
H        0.84873490      -1.64162657       0.25268731
H        1.05809567      -0.26620521       1.44429595
H       -0.05080744       0.36867377      -0.85752292
H       -2.62671890      -0.85318935      -0.63519776
H       -2.27825485      -1.68059578       0.88064610
H       -1.39664121      -2.11539370      -0.58478000
H       -2.21451046       1.33147575       0.56157218
H       -1.66182691       0.61770576       2.06988520
H        0.18332909       2.10539341       0.57901951
19
Frame=10 idx=009271 GeodesicLength=0.7951727440309787 rxn_smarts="[C:1]([O:2][C:3]([C@@:4]([C:5]([H:14])([H:15])[H:16])([C:6]([O:7][H:19])([H:17])[H:18])[H:13])([H:11])[H:12])([H:8])([H:9])[H:10]>>[C:1]([O:2][H:13])([H:8])([H:9])[H:10].[C:3](=[C:4]([C:5]([H:14])([H:15])[H:16])[C:6]([O:7][H:19])([H:17])[H:18])([H:11])[H:12]"
C        2.45025345       0.26917216      -1.39046730
O        1.25614349       0.65406770      -0.76010852
C        0.52578684      -0.67117153       0.54405809
C       -0.79773972      -0.23640012       0.27380792
C       -1.84718244      -1.28557429      -0.00262749
C       -1.30939629       0.95446106       1.06839448
O       -0.41334668       2.01563049       1.27358994
H        2.31441739      -0.61046302      -2.03230666
H        2.80045398       1.09703758      -2.00885307
H        3.22984879       0.04939496      -0.65286157
H        0.82351950      -1.66604161       0.21702407
H        1.05571045      -0.30210165       1.41635643
H       -0.07676382       0.36221271      -0.89852084
H       -2.66196032      -0.86350191      -0.59542882
H       -2.28274563      -1.66887824       0.92529104
H       -1.44045949      -2.13482974      -0.55353112
H       -2.20985044       1.33058757       0.56586570
H       -1.62752563       0.62543076       2.06655880
H        0.21083657       2.08096712       0.54375891
19
Frame=11 idx=009271 GeodesicLength=0.8709894530706165 rxn_smarts="[C:1]([O:2][C:3]([C@@:4]([C:5]([H:14])([H:15])[H:16])([C:6]([O:7][H:19])([H:17])[H:18])[H:13])([H:11])[H:12])([H:8])([H:9])[H:10]>>[C:1]([O:2][H:13])([H:8])([H:9])[H:10].[C:3](=[C:4]([C:5]([H:14])([H:15])[H:16])[C:6]([O:7][H:19])([H:17])[H:18])([H:11])[H:12]"
C        2.46668082       0.29684444      -1.36900778
O        1.23854168       0.65297500      -0.78864725
C        0.51634817      -0.69219106       0.51300625
C       -0.80773279      -0.24590202       0.25820075
C       -1.87019240      -1.29199724       0.02444543
C       -1.29406244       0.95449141       1.05501274
O       -0.39522894       2.01735003       1.23222183
H        2.37366223      -0.57366851      -2.03002994
H        2.82955409       1.14107523      -1.95667268
H        3.21623927       0.07760231      -0.60054266
H        0.79787518      -1.69071131       0.18135075
H        1.05329824      -0.33822797       1.38767774
H       -0.10286554       0.35628713      -0.93965263
H       -2.69576310      -0.87274523      -0.55524905
H       -2.28529243      -1.65643710       0.96909651
H       -1.48313236      -2.15327414      -0.52180234
H       -2.20432656       1.32972805       0.56997780
H       -1.59207228       0.63284803       2.06207082
H        0.23846915       2.05595293       0.50854371
19
Frame=12 idx=009271 GeodesicLength=0.947191440517204 rxn_smarts="[C:1]([O:2][C:3]([C@@:4]([C:5]([H:14])([H:15])[H:16])([C:6]([O:7][H:19])([H:17])[H:18])[H:13])([H:11])[H:12])([H:8])([H:9])[H:10]>>[C:1]([O:2][H:13])([H:8])([H:9])[H:10].[C:3](=[C:4]([C:5]([H:14])([H:15])[H:16])[C:6]([O:7][H:19])([H:17])[H:18])([H:11])[H:12]"
C        2.48137072       0.32437758      -1.34644624
O        1.22147358       0.65038938      -0.81823687
C        0.50681716      -0.71360729       0.48160516
C       -0.81746692      -0.25551179       0.24220271
C       -1.89199318      -1.29769971       0.05149043
C       -1.27802524       0.95427640       1.04082035
O       -0.37687783       2.01855661       1.18966396
H        2.43284097      -0.53602335      -2.02466371
H        2.85429037       1.18513031      -1.90244265
H        3.19971035       0.10536862      -0.54847192
H        0.77176015      -1.71570030       0.14566024
H        1.05081889      -0.37470683       1.35829694
H       -0.12912288       0.35085601      -0.98093558
H       -2.72811549      -0.88089367      -0.51465342
H       -2.28593017      -1.64325235       1.01207147
H       -1.52470308      -2.17074301      -0.48956426
H       -2.19784350       1.32893299       0.57387887
H       -1.55538861       0.64000651       2.05637949
H        0.26638471       2.03024389       0.47334503
19
Frame=13 idx=009271 GeodesicLength=1.0240606350867307 rxn_smarts="[C:1]([O:2][C:3]([C@@:4]([C:5]([H:14])([H:15])[H:16])([C:6]([O:7][H:19])([H:17])[H:18])[H:13])([H:11])[H:12])([H:8])([H:9])[H:10]>>[C:1]([O:2][H:13])([H:8])([H:9])[H:10].[C:3](=[C:4]([C:5]([H:14])([H:15])[H:16])[C:6]([O:7][H:19])([H:17])[H:18])([H:11])[H:12]"
C        2.49423111       0.35185150      -1.32273398
O        1.20497529       0.64625643      -0.84888970
C        0.49718176      -0.73550372       0.44983716
C       -0.82693609      -0.26526241       0.22582469
C       -1.91260203      -1.30266809       0.07851142
C       -1.26120094       0.95381894       1.02578292
O       -0.35815986       2.01919827       1.14580822
H        2.49194773      -0.49745831      -2.01594221
H        2.87436201       1.22924114      -1.84630819
H        3.18021290       0.13294645      -0.49656437
H        0.74512163      -1.74108572       0.10993083
H        1.04824387      -0.41168670       1.32823554
H       -0.15554273       0.34587650      -1.02238956
H       -2.75899756      -0.88789813      -0.47365736
H       -2.28471104      -1.62928620       1.05420744
H       -1.56522173      -2.18724623      -0.45678701
H       -2.19028032       1.32824835       0.57754741
H       -1.51737666       0.64694268       2.04944154
H        0.29475265       2.00371523       0.43814521
19
Frame=14 idx=009271 GeodesicLength=1.1019335509863186 rxn_smarts="[C:1]([O:2][C:3]([C@@:4]([C:5]([H:14])([H:15])[H:16])([C:6]([O:7][H:19])([H:17])[H:18])[H:13])([H:11])[H:12])([H:8])([H:9])[H:10]>>[C:1]([O:2][H:13])([H:8])([H:9])[H:10].[C:3](=[C:4]([C:5]([H:14])([H:15])[H:16])[C:6]([O:7][H:19])([H:17])[H:18])([H:11])[H:12]"
C        2.50514861       0.37935364      -1.29780106
O        1.18910572       0.64051227      -0.88059890
C        0.48743256      -0.75795926       0.41770477
C       -0.83612211      -0.27518561       0.20907087
C       -1.93201685      -1.30688620       0.10552773
C       -1.24350538       0.95312036       1.00984189
O       -0.33895135       2.01922065       1.10050240
H        2.55087455      -0.45773718      -2.00370206
H        2.88951634       1.27347630      -1.78829381
H        3.15762157       0.16037055      -0.44477426
H        0.71791304      -1.76693988       0.07417120
H        1.04553094      -0.44929385       1.29753317
H       -0.18209349       0.34129188      -1.06403220
H       -2.78838122      -0.89371261      -0.43224208
H       -2.28163008      -1.61450908       1.09551884
H       -1.60472041      -2.20277376      -0.42343901
H       -2.18150926       1.32771301       0.58092841
H       -1.47793243       0.65369831       2.04118870
H        0.32371926       1.97624045       0.40289540
19
Frame=15 idx=009271 GeodesicLength=1.1812382937662478 rxn_smarts="[C:1]([O:2][C:3]([C@@:4]([C:5]([H:14])([H:15])[H:16])([C:6]([O:7][H:19])([H:17])[H:18])[H:13])([H:11])[H:12])([H:8])([H:9])[H:10]>>[C:1]([O:2][H:13])([H:8])([H:9])[H:10].[C:3](=[C:4]([C:5]([H:14])([H:15])[H:16])[C:6]([O:7][H:19])([H:17])[H:18])([H:11])[H:12]"
C        2.51398297       0.40698525      -1.27157129
O        1.17391552       0.63306893      -0.91338313
C        0.47755976      -0.78108084       0.38518401
C       -0.84500411      -0.28531783       0.19194247
C       -1.95024715      -1.31032296       0.13254846
C       -1.22481989       0.95217476       0.99294768
O       -0.31906981       2.01853390       1.05361055
H        2.60956939      -0.41671848      -1.98762299
H        2.89938336       1.31789980      -1.72852646
H        3.13179251       0.18788811      -0.39298422
H        0.69006565      -1.79336052       0.03834940
H        1.04265814      -0.48770413       1.26619683
H       -0.20875182       0.33703838      -1.10589400
H       -2.81624043      -0.89825664      -0.39040918
H       -2.27671147      -1.59886716       1.13600325
H       -1.64325818      -2.21731400      -0.38948352
H       -2.17136317       1.32738690       0.58398353
H       -1.43691619       0.66029758       2.03155562
H        0.35345492       1.94766896       0.36755301
19
Frame=16 idx=009271 GeodesicLength=1.262509582565593 rxn_smarts="[C:1]([O:2][C:3]([C@@:4]([C:5]([H:14])([H:15])[H:16])([C:6]([O:7][H:19])([H:17])[H:18])[H:13])([H:11])[H:12])([H:8])([H:9])[H:10]>>[C:1]([O:2][H:13])([H:8])([H:9])[H:10].[C:3](=[C:4]([C:5]([H:14])([H:15])[H:16])[C:6]([O:7][H:19])([H:17])[H:18])([H:11])[H:12]"
C        2.52055598       0.43484865      -1.24395672
O        1.15947853       0.62382825      -0.94724453
C        0.46755910      -0.80497747       0.35226570
C       -0.85354559      -0.29569462       0.17444288
C       -1.96728493      -1.31293480       0.15957663
C       -1.20501033       0.95096727       0.97504815
O       -0.29830971       2.01702027       1.00499776
H        2.66790663      -0.37419646      -1.96737990
H        2.90356468       1.36256602      -1.66713027
H        3.10251458       0.21568921      -0.34108711
H        0.66151107      -1.82044688       0.00246241
H        1.03960455      -0.52708884       1.23424249
H       -0.23545979       0.33304680      -1.14799865
H       -2.84252652      -0.90142844      -0.34816398
H       -2.26995761      -1.58230396       1.17564771
H       -1.68087794      -2.23082818      -0.35489905
H       -2.15964676       1.32733292       0.58666288
H       -1.39417896       0.66674901       2.02046757
H        0.38410302       1.91785124       0.33204604
