14
Frame=0 idx=009393 GeodesicLength=0.0 rxn_smarts="[C:1]([N:2]([C:3](=[O:4])[H:11])[C:5](=[O:6])[C:7]([H:12])([H:13])[H:14])([H:8])([H:9])[H:10]>>[C-:3]#[O+:4].[C:1](/[N:2]=[C:5](/[O:6][H:11])[C:7]([H:12])([H:13])[H:14])([H:8])([H:9])[H:10]"
C       -1.23139710      -0.79217628       0.55080528
N       -0.52705569       0.30185200      -0.05568027
C       -1.24407865       1.72305043      -0.59693456
O       -2.40650570       1.74718661      -0.43610533
C        0.75189637       0.38039906      -0.28598633
O        1.18625824       1.45737389      -0.84146083
C        1.72392756      -0.69904116       0.05449983
H       -2.28678294      -0.50981864       0.57530808
H       -1.13731632      -1.71583448      -0.02552887
H       -0.90233059      -0.97749463       1.57627088
H        0.19764180       2.00280355      -0.94055557
H        1.68757889      -0.91070139       1.12442444
H        2.72784715      -0.39080059      -0.22512891
H        1.46031694      -1.61679837      -0.47392780
14
Frame=1 idx=009393 GeodesicLength=0.1007641609443688 rxn_smarts="[C:1]([N:2]([C:3](=[O:4])[H:11])[C:5](=[O:6])[C:7]([H:12])([H:13])[H:14])([H:8])([H:9])[H:10]>>[C-:3]#[O+:4].[C:1](/[N:2]=[C:5](/[O:6][H:11])[C:7]([H:12])([H:13])[H:14])([H:8])([H:9])[H:10]"
C       -1.24452632      -0.81130532       0.51101628
N       -0.52936378       0.29700661      -0.05615270
C       -1.23756384       1.76758162      -0.51708573
O       -2.39658119       1.81270783      -0.34330330
C        0.74285823       0.34508852      -0.33482104
O        1.16812742       1.37945734      -0.97096355
C        1.73846754      -0.68044605       0.09259677
H       -2.29335704      -0.51238566       0.57703546
H       -1.18730292      -1.70757643      -0.11124006
H       -0.89560765      -1.05279350       1.51792559
H        0.18508646       1.98919100      -0.96461518
H        1.71183340      -0.80949553       1.17565556
H        2.73698235      -0.37546747      -0.20954671
H        1.50094733      -1.64156296      -0.36650138
14
Frame=2 idx=009393 GeodesicLength=0.20143511050451904 rxn_smarts="[C:1]([N:2]([C:3](=[O:4])[H:11])[C:5](=[O:6])[C:7]([H:12])([H:13])[H:14])([H:8])([H:9])[H:10]>>[C-:3]#[O+:4].[C:1](/[N:2]=[C:5](/[O:6][H:11])[C:7]([H:12])([H:13])[H:14])([H:8])([H:9])[H:10]"
C       -1.25960583      -0.83014021       0.47356928
N       -0.53176487       0.28829662      -0.05702273
C       -1.22352089       1.80323451      -0.44896620
O       -2.37676255       1.87536506      -0.25301685
C        0.73258129       0.30573818      -0.37951892
O        1.14334161       1.30049870      -1.08347793
C        1.75229693      -0.65854845       0.12639701
H       -2.30011357      -0.51462329       0.57938556
H       -1.23886230      -1.69799808      -0.18962260
H       -0.89215238      -1.12470410       1.45942419
H        0.17667565       1.97245930      -0.98275091
H        1.73376674      -0.70723707       1.21602604
H        2.74412950      -0.35588612      -0.19947067
H        1.53999068      -1.65645504      -0.26095527
14
Frame=3 idx=009393 GeodesicLength=0.30199182615899534 rxn_smarts="[C:1]([N:2]([C:3](=[O:4])[H:11])[C:5](=[O:6])[C:7]([H:12])([H:13])[H:14])([H:8])([H:9])[H:10]>>[C-:3]#[O+:4].[C:1](/[N:2]=[C:5](/[O:6][H:11])[C:7]([H:12])([H:13])[H:14])([H:8])([H:9])[H:10]"
C       -1.27572451      -0.84796342       0.43954626
N       -0.53409192       0.27701046      -0.05771544
C       -1.20515529       1.83161763      -0.39135970
O       -2.35134643       1.93168152      -0.17271874
C        0.72195115       0.26462830      -0.41811646
O        1.11614538       1.22397052      -1.17730879
C        1.76495620      -0.63481707       0.15548468
H       -2.30616653      -0.51633400       0.58502167
H       -1.29195132      -1.68626624      -0.26051832
H       -0.89033344      -1.19318877       1.40167651
H        0.17207779       1.95446553      -0.99446242
H        1.75397755      -0.60757202       1.24580041
H        2.74932084      -0.33504061      -0.19480227
H        1.57634052      -1.66219182      -0.16052737
14
Frame=4 idx=009393 GeodesicLength=0.40271482034662687 rxn_smarts="[C:1]([N:2]([C:3](=[O:4])[H:11])[C:5](=[O:6])[C:7]([H:12])([H:13])[H:14])([H:8])([H:9])[H:10]>>[C-:3]#[O+:4].[C:1](/[N:2]=[C:5](/[O:6][H:11])[C:7]([H:12])([H:13])[H:14])([H:8])([H:9])[H:10]"
C       -1.29237653      -0.86482778       0.40852989
N       -0.53633523       0.26412458      -0.05807221
C       -1.18491172       1.85457676      -0.34248482
O       -2.32302517       1.98237997      -0.10153338
C        0.71179163       0.22347750      -0.45002810
O        1.08904311       1.15069481      -1.25531741
C        1.77667127      -0.61018665       0.18074965
H       -2.31132656      -0.51835312       0.59374786
H       -1.34577455      -1.67219982      -0.32502645
H       -0.88997471      -1.25885664       1.34448421
H        0.17001932       1.93582430      -1.00217704
H        1.77300260      -0.51165592       1.26687431
H        2.75327439      -0.31480303      -0.19423756
H        1.60992213      -1.66019496      -0.06550895
14
Frame=5 idx=009393 GeodesicLength=0.5031280828491438 rxn_smarts="[C:1]([N:2]([C:3](=[O:4])[H:11])[C:5](=[O:6])[C:7]([H:12])([H:13])[H:14])([H:8])([H:9])[H:10]>>[C-:3]#[O+:4].[C:1](/[N:2]=[C:5](/[O:6][H:11])[C:7]([H:12])([H:13])[H:14])([H:8])([H:9])[H:10]"
C       -1.30919082      -0.88092595       0.37958654
N       -0.53837368       0.25020080      -0.05776888
C       -1.16373110       1.87346385      -0.30004787
O       -2.29261223       2.02859211      -0.03688843
C        0.70238743       0.18288764      -0.47575989
O        1.06265553       1.07967328      -1.32126811
C        1.78756016      -0.58487526       0.20326259
H       -2.31524856      -0.52129393       0.60477687
H       -1.39983160      -1.65539111      -0.38493741
H       -0.89105966      -1.32263431       1.28679318
H        0.16932485       1.91643551      -1.00764265
H        1.79118368      -0.41846760       1.28096894
H        2.75619942      -0.29609514      -0.19667129
H        1.64073659      -1.65156989       0.02559642
14
Frame=6 idx=009393 GeodesicLength=0.603398175861142 rxn_smarts="[C:1]([N:2]([C:3](=[O:4])[H:11])[C:5](=[O:6])[C:7]([H:12])([H:13])[H:14])([H:8])([H:9])[H:10]>>[C-:3]#[O+:4].[C:1](/[N:2]=[C:5](/[O:6][H:11])[C:7]([H:12])([H:13])[H:14])([H:8])([H:9])[H:10]"
C       -1.32602083      -0.89630970       0.35236091
N       -0.54017354       0.23571269      -0.05646314
C       -1.14253324       1.88935537      -0.26266272
O       -2.26146474       2.07086687       0.02154767
C        0.69391774       0.14323616      -0.49591645
O        1.03741496       1.01058857      -1.37740785
C        1.79784178      -0.55929314       0.22351608
H       -2.31793878      -0.52559284       0.61785345
H       -1.45372261      -1.63557947      -0.44098437
H       -0.89343945      -1.38488462       1.22810884
H        0.16950237       1.89695411      -1.01094326
H        1.80918808      -0.32775724       1.28898074
H        2.75846146      -0.27991784      -0.20164166
H        1.66896678      -1.63737891       0.11365175
14
Frame=7 idx=009393 GeodesicLength=0.7033699779013947 rxn_smarts="[C:1]([N:2]([C:3](=[O:4])[H:11])[C:5](=[O:6])[C:7]([H:12])([H:13])[H:14])([H:8])([H:9])[H:10]>>[C-:3]#[O+:4].[C:1](/[N:2]=[C:5](/[O:6][H:11])[C:7]([H:12])([H:13])[H:14])([H:8])([H:9])[H:10]"
C       -1.34266296      -0.91091388       0.32671337
N       -0.54164141       0.22103037      -0.05371290
C       -1.12188709       1.90300227      -0.22916721
O       -2.23082527       2.10948055       0.07311515
C        0.68640779       0.10474066      -0.51098530
O        1.01339324       0.94308025      -1.42530992
C        1.80764737      -0.53376217       0.24184660
H       -2.31909756      -0.53146470       0.63333822
H       -1.50733154      -1.61222890      -0.49364755
H       -0.89672987      -1.44600031       1.16778798
H        0.17033003       1.87783367      -1.01184237
H        1.82741096      -0.23962621       1.29154548
H        2.76022015      -0.26681251      -0.20862350
H        1.69476617      -1.61835908       0.19894195
14
Frame=8 idx=009393 GeodesicLength=0.803208239525265 rxn_smarts="[C:1]([N:2]([C:3](=[O:4])[H:11])[C:5](=[O:6])[C:7]([H:12])([H:13])[H:14])([H:8])([H:9])[H:10]>>[C-:3]#[O+:4].[C:1](/[N:2]=[C:5](/[O:6][H:11])[C:7]([H:12])([H:13])[H:14])([H:8])([H:9])[H:10]"
C       -1.35911598      -0.92500226       0.30195633
N       -0.54281502       0.20605903      -0.04977636
C       -1.10182258       1.91486869      -0.19857324
O       -2.20044438       2.14533960       0.12028722
C        0.67983199       0.06717782      -0.52175956
O        0.99051400       0.87630019      -1.46669614
C        1.81710161      -0.50810065       0.25883134
H       -2.31864625      -0.53937267       0.65069777
H       -1.56071438      -1.58522087      -0.54371046
H       -0.90102658      -1.50645140       1.10475422
H        0.17133043       1.85884191      -1.01119803
H        1.84606246      -0.15254497       1.28905289
H        2.76160830      -0.25727340      -0.21713238
H        1.71813639      -1.59462102       0.28326638
14
Frame=9 idx=009393 GeodesicLength=0.9030661148612638 rxn_smarts="[C:1]([N:2]([C:3](=[O:4])[H:11])[C:5](=[O:6])[C:7]([H:12])([H:13])[H:14])([H:8])([H:9])[H:10]>>[C-:3]#[O+:4].[C:1](/[N:2]=[C:5](/[O:6][H:11])[C:7]([H:12])([H:13])[H:14])([H:8])([H:9])[H:10]"
C       -1.37539926      -0.93874619       0.27761209
N       -0.54376408       0.19069146      -0.04493740
C       -1.08235370       1.92524051      -0.17031896
O       -2.16997296       2.17900880       0.16499315
C        0.67413984       0.03030276      -0.52886527
O        0.96874048       0.80954539      -1.50274397
C        1.82620039      -0.48215005       0.27485468
H       -2.31650436      -0.54976273       0.66958203
H       -1.61389823      -1.55446107      -0.59154614
H       -0.90631061      -1.56636377       1.03808157
H        0.17222411       1.83984217      -1.00950858
H        1.86516021      -0.06546660       1.28149513
H        2.76265191      -0.25171462      -0.22660271
H        1.73908624      -1.56596604       0.36790439
14
Frame=10 idx=009393 GeodesicLength=1.0027981840641653 rxn_smarts="[C:1]([N:2]([C:3](=[O:4])[H:11])[C:5](=[O:6])[C:7]([H:12])([H:13])[H:14])([H:8])([H:9])[H:10]>>[C-:3]#[O+:4].[C:1](/[N:2]=[C:5](/[O:6][H:11])[C:7]([H:12])([H:13])[H:14])([H:8])([H:9])[H:10]"
C       -1.39128534      -0.95207062       0.25386437
N       -0.54452312       0.17511308      -0.03921832
C       -1.06382022       1.93447684      -0.14373711
O       -2.14041711       2.21046886       0.20626399
C        0.66930023      -0.00566546      -0.53266126
O        0.94822618       0.74314976      -1.53377349
C        1.83493047      -0.45630450       0.28973934
H       -2.31275106      -0.56295539       0.68942428
H       -1.66600547      -1.52043733      -0.63644977
H       -0.91247813      -1.62473833       0.96828843
H        0.17319401       1.82150002      -1.00590576
H        1.88486937       0.02085686       1.26859602
H        2.76339010      -0.25077131      -0.23672924
H        1.75737009      -1.53262248       0.45229852
14
Frame=11 idx=009393 GeodesicLength=1.1022441874283866 rxn_smarts="[C:1]([N:2]([C:3](=[O:4])[H:11])[C:5](=[O:6])[C:7]([H:12])([H:13])[H:14])([H:8])([H:9])[H:10]>>[C-:3]#[O+:4].[C:1](/[N:2]=[C:5](/[O:6][H:11])[C:7]([H:12])([H:13])[H:14])([H:8])([H:9])[H:10]"
C       -1.40654799      -0.96495071       0.23085161
N       -0.54514691       0.15948438      -0.03273850
C       -1.04641266       1.94291229      -0.11807983
O       -2.11252344       2.23990365       0.24372132
C        0.66523774      -0.04052447      -0.53357322
O        0.92902648       0.67743972      -1.56018749
C        1.84327282      -0.43093273       0.30327417
H       -2.30779745      -0.57910625       0.70905500
H       -1.71581371      -1.48419023      -0.67781132
H       -0.91953228      -1.68032289       0.89651298
H        0.17437052       1.80437628      -0.99973667
H        1.90526307       0.10560755       1.25011014
H        2.76381782      -0.25485829      -0.24716162
H        1.77278600      -1.49483829       0.53576342
14
Frame=12 idx=009393 GeodesicLength=1.20155604920508 rxn_smarts="[C:1]([N:2]([C:3](=[O:4])[H:11])[C:5](=[O:6])[C:7]([H:12])([H:13])[H:14])([H:8])([H:9])[H:10]>>[C-:3]#[O+:4].[C:1](/[N:2]=[C:5](/[O:6][H:11])[C:7]([H:12])([H:13])[H:14])([H:8])([H:9])[H:10]"
C       -1.42118967      -0.97749162       0.20834028
N       -0.54571283       0.14377262      -0.02573669
C       -1.03009402       1.95069828      -0.09307643
O       -2.08605736       2.26772499       0.27853187
C        0.66188377      -0.07440439      -0.53200613
O        0.91110705       0.61196040      -1.58270684
C        1.85120868      -0.40595341       0.31567354
H       -2.30167948      -0.59832945       0.72829751
H       -1.76343419      -1.44594360      -0.71583728
H       -0.92726365      -1.73304049       0.82248527
H        0.17562513       1.78838524      -0.99138230
H        1.92625419       0.18891133       1.22595624
H        2.76392031      -0.26398359      -0.25714452
H        1.78543207      -1.45230631       0.61860548
14
Frame=13 idx=009393 GeodesicLength=1.30086880970961 rxn_smarts="[C:1]([N:2]([C:3](=[O:4])[H:11])[C:5](=[O:6])[C:7]([H:12])([H:13])[H:14])([H:8])([H:9])[H:10]>>[C-:3]#[O+:4].[C:1](/[N:2]=[C:5](/[O:6][H:11])[C:7]([H:12])([H:13])[H:14])([H:8])([H:9])[H:10]"
C       -1.43517913      -0.98976231       0.18615487
N       -0.54625767       0.12798311      -0.01833605
C       -1.01489277       1.95794870      -0.06854703
O       -2.06098778       2.29417024       0.31125446
C        0.65919623      -0.10736546      -0.52820537
O        0.89447570       0.54632951      -1.60180494
C        1.85872486      -0.38130203       0.32713134
H       -2.29418788      -0.62077921       0.74732365
H       -1.80924623      -1.40563101      -0.75063228
H       -0.93542216      -1.78293634       0.74569762
H        0.17686556       1.77350511      -0.98105136
H        1.94792548       0.27072484       1.19598649
H        2.76364282      -0.27824364      -0.26595366
H        1.79534297      -1.40464150       0.70098227
14
Frame=14 idx=009393 GeodesicLength=1.400035995169742 rxn_smarts="[C:1]([N:2]([C:3](=[O:4])[H:11])[C:5](=[O:6])[C:7]([H:12])([H:13])[H:14])([H:8])([H:9])[H:10]>>[C-:3]#[O+:4].[C:1](/[N:2]=[C:5](/[O:6][H:11])[C:7]([H:12])([H:13])[H:14])([H:8])([H:9])[H:10]"
C       -1.44842047      -1.00168945       0.16457310
N       -0.54686889       0.11227617      -0.01071765
C       -1.00079609       1.96493444      -0.04397000
O       -2.03776840       2.31954203       0.34139041
C        0.65703767      -0.13933306      -0.52257463
O        0.87907631       0.48068663      -1.61784079
C        1.86579375      -0.35731050       0.33736500
H       -2.28602257      -0.64611228       0.76499627
H       -1.85219516      -1.36466787      -0.78169385
H       -0.94398993      -1.82877334       0.66803310
H        0.17838349       1.76016660      -0.96820194
H        1.96979742       0.34939107       1.16056893
H        2.76300214      -0.29667160      -0.27298284
H        1.80297072      -1.35243885       0.78105490
14
Frame=15 idx=009393 GeodesicLength=1.49917542703839 rxn_smarts="[C:1]([N:2]([C:3](=[O:4])[H:11])[C:5](=[O:6])[C:7]([H:12])([H:13])[H:14])([H:8])([H:9])[H:10]>>[C-:3]#[O+:4].[C:1](/[N:2]=[C:5](/[O:6][H:11])[C:7]([H:12])([H:13])[H:14])([H:8])([H:9])[H:10]"
C       -1.46095376      -1.01338228       0.14332617
N       -0.54759446       0.09660246      -0.00307711
C       -0.98771468       1.97168796      -0.01911180
O       -2.01584011       2.34415775       0.37041231
C        0.65535369      -0.17042756      -0.51537874
O        0.86487306       0.41454756      -1.63126785
C        1.87243906      -0.33380173       0.34645546
H       -2.27757183      -0.67416340       0.78062195
H       -1.89212813      -1.32361845      -0.80947219
H       -0.95301443      -1.87047901       0.58989135
H        0.17995712       1.74823987      -0.95320052
H        1.99189860       0.42508284       1.11953105
H        2.76197565      -0.31920956      -0.27775288
H        1.80832023      -1.29523646       0.85902280
14
Frame=16 idx=009393 GeodesicLength=1.5984751876586336 rxn_smarts="[C:1]([N:2]([C:3](=[O:4])[H:11])[C:5](=[O:6])[C:7]([H:12])([H:13])[H:14])([H:8])([H:9])[H:10]>>[C-:3]#[O+:4].[C:1](/[N:2]=[C:5](/[O:6][H:11])[C:7]([H:12])([H:13])[H:14])([H:8])([H:9])[H:10]"
C       -1.47283381      -1.02481220       0.12234794
N       -0.54841042       0.08097848       0.00465966
C       -0.97560960       1.97827162       0.00612874
O       -1.99556552       2.36809099       0.39747266
C        0.65412655      -0.20076531      -0.50658436
O        0.85185936       0.34734253      -1.64221015
C        1.87867583      -0.31068075       0.35466365
H       -2.26798527      -0.70516396       0.79554148
H       -1.93046001      -1.28146969      -0.83392082
H       -0.96215825      -1.90869617       0.50973164
H        0.18166896       1.73765763      -0.93603954
H        2.01435551       0.49748928       1.07311672
H        2.76049192      -0.34536939      -0.27957350
H        1.81184476      -1.23287306       0.93466588
