19
Frame=0 idx=008294 GeodesicLength=0.0 rxn_smarts="[C:1]([C:2]([C:3]([H:12])([H:13])[H:14])([C@@:4]1([H:15])[C:5]([H:16])([H:17])[C@:6]1([O:7][H:19])[H:18])[H:11])([H:8])([H:9])[H:10]>>[C:1]([C:2]([C:3]([H:12])([H:13])[H:14])([C@@:4]1([H:15])[C:5]([H:16])([H:17])[C:6]1=[O:7])[H:11])([H:8])([H:9])[H:10].[H:18][H:19]"
C        1.59630656       1.08176460       0.31680837
C        0.78622852      -0.20700478       0.21792247
C        1.53370487      -1.30232676      -0.53567378
C       -0.55167909       0.07306049      -0.43060081
C       -1.77166300      -0.81809044      -0.15498214
C       -1.65064780       0.53158717       0.45702259
O       -1.68305299       0.96443552       1.68795055
H        1.04987018       1.83180107       0.89067016
H        2.55406901       0.90595537       0.81074859
H        1.80428675       1.48999217      -0.67690166
H        0.58735719      -0.55539365       1.23646230
H        2.48204409      -1.53479114      -0.04682434
H        1.75534204      -0.99025108      -1.56040249
H        0.94671869      -2.22187040      -0.58548713
H       -0.50212729       0.47641910      -1.43786821
H       -2.45718945      -1.00477728      -0.97080338
H       -1.66058519      -1.63226815       0.55248547
H       -2.43446590       1.34530710      -0.34460666
H       -2.38451727       1.56645104       0.57408003
19
Frame=1 idx=008294 GeodesicLength=0.09619900268392806 rxn_smarts="[C:1]([C:2]([C:3]([H:12])([H:13])[H:14])([C@@:4]1([H:15])[C:5]([H:16])([H:17])[C@:6]1([O:7][H:19])[H:18])[H:11])([H:8])([H:9])[H:10]>>[C:1]([C:2]([C:3]([H:12])([H:13])[H:14])([C@@:4]1([H:15])[C:5]([H:16])([H:17])[C:6]1=[O:7])[H:11])([H:8])([H:9])[H:10].[H:18][H:19]"
C        1.59696284       1.08027681       0.31651654
C        0.78781967      -0.20922629       0.21793454
C        1.53656530      -1.30337077      -0.53603889
C       -0.55065905       0.06957761      -0.43018311
C       -1.76927258      -0.82323607      -0.15461821
C       -1.65352146       0.52841853       0.45201479
O       -1.69179247       0.95954660       1.68295689
H        1.05003194       1.83088552       0.88930327
H        2.55478276       0.90550604       0.81070210
H        1.80460033       1.48807539      -0.67740650
H        0.58966535      -0.55830172       1.23643797
H        2.48587760      -1.53405876      -0.04818711
H        1.75686869      -0.99086169      -1.56091655
H        0.95108434      -2.22386850      -0.58528292
H       -0.50065699       0.47181774      -1.43799822
H       -2.45476745      -1.01274112      -0.96987642
H       -1.65470432      -1.63718835       0.55258277
H       -2.44319652       1.36686144      -0.34360314
H       -2.39568798       1.59188759       0.58566221
19
Frame=2 idx=008294 GeodesicLength=0.1922429596814259 rxn_smarts="[C:1]([C:2]([C:3]([H:12])([H:13])[H:14])([C@@:4]1([H:15])[C:5]([H:16])([H:17])[C@:6]1([O:7][H:19])[H:18])[H:11])([H:8])([H:9])[H:10]>>[C:1]([C:2]([C:3]([H:12])([H:13])[H:14])([C@@:4]1([H:15])[C:5]([H:16])([H:17])[C:6]1=[O:7])[H:11])([H:8])([H:9])[H:10].[H:18][H:19]"
C        1.59751540       1.07879293       0.31615012
C        0.78940309      -0.21150641       0.21790665
C        1.53953684      -1.30446173      -0.53634222
C       -0.54962673       0.06589138      -0.42990559
C       -1.76681747      -0.82866735      -0.15443137
C       -1.65645095       0.52494763       0.44676232
O       -1.70081051       0.95467968       1.67756493
H        1.05000684       1.82997362       0.88778128
H        2.55537644       0.90515796       0.81064624
H        1.80483870       1.48611612      -0.67799908
H        0.59193221      -0.56121524       1.23638484
H        2.48981085      -1.53327241      -0.04942744
H        1.75852980      -0.99156799      -1.56137713
H        0.95563505      -2.22595860      -0.58498866
H       -0.49918054       0.46705477      -1.43825037
H       -2.45230402      -1.02094959      -0.96910767
H       -1.64877947      -1.64230768       0.55258743
H       -2.45178758       1.38910431      -0.34204296
H       -2.40682795       1.61818861       0.59808870
19
Frame=3 idx=008294 GeodesicLength=0.2882392154305329 rxn_smarts="[C:1]([C:2]([C:3]([H:12])([H:13])[H:14])([C@@:4]1([H:15])[C:5]([H:16])([H:17])[C@:6]1([O:7][H:19])[H:18])[H:11])([H:8])([H:9])[H:10]>>[C:1]([C:2]([C:3]([H:12])([H:13])[H:14])([C@@:4]1([H:15])[C:5]([H:16])([H:17])[C:6]1=[O:7])[H:11])([H:8])([H:9])[H:10].[H:18][H:19]"
C        1.59795090       1.07731432       0.31570204
C        0.79097515      -0.21384956       0.21783378
C        1.54262919      -1.30560300      -0.53657716
C       -0.54858242       0.06198228      -0.42978667
C       -1.76429192      -0.83441267      -0.15444075
C       -1.65944106       0.52114327       0.44123719
O       -1.71013967       0.94985461       1.67172510
H        1.04977326       1.82906514       0.88609026
H        2.55583468       0.90492132       0.81058056
H        1.80499228       1.48411202      -0.67868719
H        0.59414871      -0.56413246       1.23629924
H        2.49385108      -1.53242650      -0.05053049
H        1.76034016      -0.99237779      -1.56177807
H        0.96038715      -2.22814770      -0.58459685
H       -0.49769517       0.46210996      -1.43864320
H       -2.44979027      -1.02943884      -0.96851738
H       -1.64280613      -1.64764477       0.55249228
H       -2.46021215       1.41208185      -0.33984577
H       -2.41792378       1.64544854       0.61144307
19
Frame=4 idx=008294 GeodesicLength=0.3842455567235176 rxn_smarts="[C:1]([C:2]([C:3]([H:12])([H:13])[H:14])([C@@:4]1([H:15])[C:5]([H:16])([H:17])[C@:6]1([O:7][H:19])[H:18])[H:11])([H:8])([H:9])[H:10]>>[C:1]([C:2]([C:3]([H:12])([H:13])[H:14])([C@@:4]1([H:15])[C:5]([H:16])([H:17])[C:6]1=[O:7])[H:11])([H:8])([H:9])[H:10].[H:18][H:19]"
C        1.59825284       1.07584332       0.31516314
C        0.79253000      -0.21625959       0.21770979
C        1.54585160      -1.30679729      -0.53673463
C       -0.54752760       0.05782910      -0.42984818
C       -1.76169080      -0.84050251      -0.15466841
C       -1.66250181       0.51697644       0.43540350
O       -1.71981488       0.94508685       1.66538345
H        1.04930487       1.82816115       0.88421209
H        2.55613786       0.90480972       0.81050413
H        1.80504955       1.48206051      -0.67948057
H        0.59630182      -0.56704938       1.23617648
H        2.49800433      -1.53151305      -0.05147732
H        1.76231584      -0.99329991      -1.56211079
H        0.96535722      -2.23044261      -0.58409701
H       -0.49619749       0.45695864      -1.43919933
H       -2.44721509      -1.03825192      -0.96812990
H       -1.63678127      -1.65321705       0.55229112
H       -2.46843156       1.43585113      -0.33692363
H       -2.42894543       1.67375644       0.62582609
19
Frame=5 idx=008294 GeodesicLength=0.4803317723491164 rxn_smarts="[C:1]([C:2]([C:3]([H:12])([H:13])[H:14])([C@@:4]1([H:15])[C:5]([H:16])([H:17])[C@:6]1([O:7][H:19])[H:18])[H:11])([H:8])([H:9])[H:10]>>[C:1]([C:2]([C:3]([H:12])([H:13])[H:14])([C@@:4]1([H:15])[C:5]([H:16])([H:17])[C:6]1=[O:7])[H:11])([H:8])([H:9])[H:10].[H:18][H:19]"
C        1.59840188       1.07438362       0.31452320
C        0.79406067      -0.21874013       0.21752835
C        1.54921432      -1.30804845      -0.53680398
C       -0.54646382       0.05340861      -0.43011408
C       -1.75900733      -0.84697164      -0.15514027
C       -1.66564367       0.51241313       0.42922148
O       -1.72987808       0.94039429       1.65847509
H        1.04857131       1.82726465       0.88212537
H        2.55626328       0.90483851       0.81041647
H        1.80499688       1.47995915      -0.68039117
H        0.59837667      -0.56996081       1.23601228
H        2.50227733      -1.53052401      -0.05224580
H        1.76447409      -0.99434541      -1.56236592
H        0.97056418      -2.23285190      -0.58347588
H       -0.49468462       0.45157570      -1.43994371
H       -2.44456569      -1.04743560      -0.96797348
H       -1.63070057      -1.65904560       0.55197466
H       -2.47640679       1.46046801      -0.33317401
H       -2.43985004       1.70321787       0.64135139
19
Frame=6 idx=008294 GeodesicLength=0.5765367559792444 rxn_smarts="[C:1]([C:2]([C:3]([H:12])([H:13])[H:14])([C@@:4]1([H:15])[C:5]([H:16])([H:17])[C@:6]1([O:7][H:19])[H:18])[H:11])([H:8])([H:9])[H:10]>>[C:1]([C:2]([C:3]([H:12])([H:13])[H:14])([C@@:4]1([H:15])[C:5]([H:16])([H:17])[C:6]1=[O:7])[H:11])([H:8])([H:9])[H:10].[H:18][H:19]"
C        1.59837631       1.07293951       0.31376798
C        0.79555887      -0.22129471       0.21728097
C        1.55272873      -1.30936024      -0.53677091
C       -0.54539282       0.04869476      -0.43061466
C       -1.75623642      -0.85385547      -0.15588683
C       -1.66888155       0.50742285       0.42263937
O       -1.74037229       0.93579570       1.65092728
H        1.04753781       1.82637968       0.87980108
H        2.55618418       0.90502703       0.81031572
H        1.80482140       1.47780291      -0.68143439
H        0.60035419      -0.57285845       1.23580009
H        2.50667654      -1.52944832      -0.05280732
H        1.76683704      -0.99552848      -1.56252981
H        0.97602855      -2.23538422      -0.58271552
H       -0.49315026       0.44592785      -1.44090854
H       -2.44182768      -1.05704273      -0.96808235
H       -1.62456291      -1.66514848       0.55153345
H       -2.48407594       1.48600469      -0.32847545
H       -2.45060376       1.73392613       0.65815985
19
Frame=7 idx=008294 GeodesicLength=0.6728852472417298 rxn_smarts="[C:1]([C:2]([C:3]([H:12])([H:13])[H:14])([C@@:4]1([H:15])[C:5]([H:16])([H:17])[C@:6]1([O:7][H:19])[H:18])[H:11])([H:8])([H:9])[H:10]>>[C:1]([C:2]([C:3]([H:12])([H:13])[H:14])([C@@:4]1([H:15])[C:5]([H:16])([H:17])[C:6]1=[O:7])[H:11])([H:8])([H:9])[H:10].[H:18][H:19]"
C        1.59815201       1.07151722       0.31288136
C        0.79701485      -0.22392584       0.21695880
C        1.55640671      -1.31073805      -0.53661803
C       -0.54431671       0.04366073      -0.43138385
C       -1.75337219      -0.86119164      -0.15694342
C       -1.67223155       0.50197206       0.41559925
O       -1.75134627       0.93131620       1.64265813
H        1.04616574       1.82551440       0.87720540
H        2.55587108       0.90539703       0.81020099
H        1.80450870       1.47558695      -0.68262916
H        0.60221258      -0.57573086       1.23553430
H        2.51120857      -1.52827583      -0.05312813
H        1.76942747      -0.99686683      -1.56258740
H        0.98177218      -2.23805068      -0.58179364
H       -0.49158831       0.43998188      -1.44213005
H       -2.43898433      -1.06712993      -0.96849634
H       -1.61836728      -1.67154419       0.55095609
H       -2.49137823       1.51254006      -0.32269584
H       -2.46115502       1.76596733       0.67641152
19
Frame=8 idx=008294 GeodesicLength=0.7693520132939206 rxn_smarts="[C:1]([C:2]([C:3]([H:12])([H:13])[H:14])([C@@:4]1([H:15])[C:5]([H:16])([H:17])[C@:6]1([O:7][H:19])[H:18])[H:11])([H:8])([H:9])[H:10]>>[C:1]([C:2]([C:3]([H:12])([H:13])[H:14])([C@@:4]1([H:15])[C:5]([H:16])([H:17])[C:6]1=[O:7])[H:11])([H:8])([H:9])[H:10].[H:18][H:19]"
C        1.59769803       1.07012577       0.31184255
C        0.79841375      -0.22663351       0.21655128
C        1.56025810      -1.31218590      -0.53632345
C       -0.54324026       0.03827862      -0.43246078
C       -1.75041057      -0.86901837      -0.15834856
C       -1.67571890       0.49603604       0.40802652
O       -1.76285442       0.92697202       1.63356868
H        1.04440780       1.82468052       0.87429587
H        2.55528561       0.90597666       0.81006909
H        1.80404083       1.47330498      -0.68399990
H        0.60392144      -0.57856034       1.23520783
H        2.51587629      -1.52699212      -0.05316643
H        1.77227014      -0.99838089      -1.56251927
H        0.98781600      -2.24086074      -0.58068112
H       -0.48999119       0.43369493      -1.44365317
H       -2.43601416      -1.07776545      -0.96926132
H       -1.61211592      -1.67824711       0.55023284
H       -2.49820279       1.54016502      -0.31568883
H       -2.47143978       1.79940987       0.69630816
19
Frame=9 idx=008294 GeodesicLength=0.8654998711398063 rxn_smarts="[C:1]([C:2]([C:3]([H:12])([H:13])[H:14])([C@@:4]1([H:15])[C:5]([H:16])([H:17])[C@:6]1([O:7][H:19])[H:18])[H:11])([H:8])([H:9])[H:10]>>[C:1]([C:2]([C:3]([H:12])([H:13])[H:14])([C@@:4]1([H:15])[C:5]([H:16])([H:17])[C:6]1=[O:7])[H:11])([H:8])([H:9])[H:10].[H:18][H:19]"
C        1.59696523       1.06878709       0.31061601
C        0.79971624      -0.22939844       0.21604258
C        1.56426278      -1.31369172      -0.53584600
C       -0.54217768       0.03253759      -0.43389341
C       -1.74735875      -0.87734559      -0.16013931
C       -1.67941228       0.48966233       0.39978214
O       -1.77492624       0.92268109       1.62354079
H        1.04220270       1.82390461       0.87100069
H        2.55436181       0.90680945       0.80990520
H        1.80339402       1.47095448      -0.68558151
H        0.60541070      -0.58130132       1.23480238
H        2.52064118      -1.52556467      -0.05285423
H        1.77537625      -1.00008507      -1.56228054
H        0.99414295      -2.24380157      -0.57932491
H       -0.48834059       0.42700472      -1.44554220
H       -2.43286279      -1.08905307      -0.97043737
H       -1.60584038      -1.68521801       0.54937014
H       -2.50427784       1.56893840      -0.30731730
H       -2.48127731       1.83417973       0.71815687
19
Frame=10 idx=008294 GeodesicLength=0.9616698142097349 rxn_smarts="[C:1]([C:2]([C:3]([H:12])([H:13])[H:14])([C@@:4]1([H:15])[C:5]([H:16])([H:17])[C@:6]1([O:7][H:19])[H:18])[H:11])([H:8])([H:9])[H:10]>>[C:1]([C:2]([C:3]([H:12])([H:13])[H:14])([C@@:4]1([H:15])[C:5]([H:16])([H:17])[C:6]1=[O:7])[H:11])([H:8])([H:9])[H:10].[H:18][H:19]"
C        1.59594202       1.06750497       0.30918061
C        0.80092739      -0.23223018       0.21542395
C        1.56845442      -1.31527867      -0.53516539
C       -0.54112253       0.02640133      -0.43572549
C       -1.74420702      -0.88621959      -0.16236656
C       -1.68329649       0.48277254       0.39082333
O       -1.78762631       0.91855897       1.61247847
H        1.03951804       1.82320054       0.86727430
H        2.55308473       0.90791828       0.80971217
H        1.80256694       1.46851951      -0.68740505
H        0.60667764      -0.58394254       1.23432033
H        2.52553624      -1.52399715      -0.05214974
H        1.77878631      -1.00202275      -1.56186118
H        1.00080037      -2.24690542      -0.57769276
H       -0.48662664       0.41988077      -1.44783986
H       -2.42953542      -1.10101607      -0.97207050
H       -1.59952908      -1.69249713       0.54833721
H       -2.50960093       1.59901067      -0.29741149
H       -2.49074967       1.87034192       0.74213764
19
Frame=11 idx=008294 GeodesicLength=1.057872063297799 rxn_smarts="[C:1]([C:2]([C:3]([H:12])([H:13])[H:14])([C@@:4]1([H:15])[C:5]([H:16])([H:17])[C@:6]1([O:7][H:19])[H:18])[H:11])([H:8])([H:9])[H:10]>>[C:1]([C:2]([C:3]([H:12])([H:13])[H:14])([C@@:4]1([H:15])[C:5]([H:16])([H:17])[C:6]1=[O:7])[H:11])([H:8])([H:9])[H:10].[H:18][H:19]"
C        1.59459778       1.06629201       0.30750230
C        0.80203022      -0.23512375       0.21468242
C        1.57283915      -1.31695174      -0.53424693
C       -0.54007709       0.01984458      -0.43800222
C       -1.74095289      -0.89566869      -0.16507213
C       -1.68739523       0.47535026       0.38105924
O       -1.80099768       0.91461599       1.60026581
H        1.03630651       1.82258958       0.86304866
H        2.55141196       0.90933877       0.80947900
H        1.80154816       1.46598708      -0.68950969
H        0.60768574      -0.58645296       1.23375306
H        2.53055708      -1.52227248      -0.05099424
H        1.78252660      -1.00422570      -1.56122968
H        1.00780394      -2.25018228      -0.57573417
H       -0.48483243       0.41227104      -1.45060014
H       -2.42600490      -1.11371906      -0.97421208
H       -1.59319105      -1.70008600       0.54712127
H       -2.51399803       1.63051954      -0.28581375
H       -2.49985783       1.90787380       0.76850328
19
Frame=12 idx=008294 GeodesicLength=1.1540777460494496 rxn_smarts="[C:1]([C:2]([C:3]([H:12])([H:13])[H:14])([C@@:4]1([H:15])[C:5]([H:16])([H:17])[C@:6]1([O:7][H:19])[H:18])[H:11])([H:8])([H:9])[H:10]>>[C:1]([C:2]([C:3]([H:12])([H:13])[H:14])([C@@:4]1([H:15])[C:5]([H:16])([H:17])[C:6]1=[O:7])[H:11])([H:8])([H:9])[H:10].[H:18][H:19]"
C        1.59290136       1.06516487       0.30553878
C        0.80300457      -0.23806868       0.21380297
C        1.57742075      -1.31871849      -0.53304744
C       -0.53904402       0.01284641      -0.44077748
C       -1.73759710      -0.90571154      -0.16830343
C       -1.69173709       0.46739532       0.37037756
O       -1.81507988       0.91086687       1.58677526
H        1.03251988       1.82210141       0.85823887
H        2.54929838       0.91111205       0.80919102
H        1.80033075       1.46334054      -0.69194472
H        0.60839085      -0.58878899       1.23309174
H        2.53569454      -1.52037499      -0.04931534
H        1.78662571      -1.00673590      -1.56034807
H        1.01516358      -2.25364201      -0.57338569
H       -0.48293533       0.40411718      -1.45388941
H       -2.42224077      -1.12722697      -0.97692133
H       -1.58684280      -1.70797055       0.54571166
H       -2.51724220       1.66361855      -0.27235740
H       -2.50863119       1.94667490       0.79756248
19
Frame=13 idx=008294 GeodesicLength=1.2502853611806697 rxn_smarts="[C:1]([C:2]([C:3]([H:12])([H:13])[H:14])([C@@:4]1([H:15])[C:5]([H:16])([H:17])[C@:6]1([O:7][H:19])[H:18])[H:11])([H:8])([H:9])[H:10]>>[C:1]([C:2]([C:3]([H:12])([H:13])[H:14])([C@@:4]1([H:15])[C:5]([H:16])([H:17])[C:6]1=[O:7])[H:11])([H:8])([H:9])[H:10].[H:18][H:19]"
C        1.59082701       1.06414096       0.30324375
C        0.80383175      -0.24105199       0.21277062
C        1.58220054      -1.32058913      -0.53152180
C       -0.53802400       0.00539133      -0.44410452
C       -1.73414117      -0.91635644      -0.17210412
C       -1.69634575       0.45891726       0.35866457
O       -1.82990182       0.90733321       1.57187881
H        1.02811818       1.82177059       0.85275478
H        2.54670431       0.91327827       0.80883024
H        1.79891388       1.46056047      -0.69476506
H        0.60874988      -0.59090118       1.23232896
H        2.54093711      -1.51829370      -0.04703817
H        1.79111022      -1.00960157      -1.55917783
H        1.02288467      -2.25729587      -0.57057822
H       -0.48090965       0.39536252      -1.45777516
H       -2.41821170      -1.14159625      -0.98025347
H       -1.58050375      -1.71612583       0.54410156
H       -2.51907602       1.69847411      -0.25688651
H       -2.51716369       1.98658323       0.82963156
19
Frame=14 idx=008294 GeodesicLength=1.3464178913487785 rxn_smarts="[C:1]([C:2]([C:3]([H:12])([H:13])[H:14])([C@@:4]1([H:15])[C:5]([H:16])([H:17])[C@:6]1([O:7][H:19])[H:18])[H:11])([H:8])([H:9])[H:10]>>[C:1]([C:2]([C:3]([H:12])([H:13])[H:14])([C@@:4]1([H:15])[C:5]([H:16])([H:17])[C:6]1=[O:7])[H:11])([H:8])([H:9])[H:10].[H:18][H:19]"
C        1.58835411       1.06324158       0.30055801
C        0.80448981      -0.24405179       0.21156800
C        1.58717074      -1.32257394      -0.52961235
C       -0.53701623      -0.00252443      -0.44804344
C       -1.73059199      -0.92758888      -0.17651898
C       -1.70124754       0.44995724       0.34578390
O       -1.84548150       0.90404877       1.55543241
H        1.02307053       1.82164243       0.84648269
H        2.54359094       0.91588063       0.80836800
H        1.79730900       1.45762008      -0.69803983
H        0.60871018      -0.59272098       1.23145575
H        2.54625952      -1.51601876      -0.04407229
H        1.79600489      -1.01288235      -1.55766852
H        1.03095626      -2.26115115      -0.56722372
H       -0.47871875       0.38594553      -1.46233633
H       -2.41388304      -1.15687315      -0.98426738
H       -1.57420590      -1.72449778       0.54228945
H       -2.51915395       1.73526673      -0.23924670
H       -2.52561710       2.02728021       0.86509132
19
Frame=15 idx=008294 GeodesicLength=1.4424461037423109 rxn_smarts="[C:1]([C:2]([C:3]([H:12])([H:13])[H:14])([C@@:4]1([H:15])[C:5]([H:16])([H:17])[C@:6]1([O:7][H:19])[H:18])[H:11])([H:8])([H:9])[H:10]>>[C:1]([C:2]([C:3]([H:12])([H:13])[H:14])([C@@:4]1([H:15])[C:5]([H:16])([H:17])[C:6]1=[O:7])[H:11])([H:8])([H:9])[H:10].[H:18][H:19]"
C        1.58547439       1.06248738       0.29741389
C        0.80495976      -0.24704082       0.21017720
C        1.59231920      -1.32468761      -0.52725690
C       -0.53601522      -0.01089430      -0.45265387
C       -1.72695866      -0.93937365      -0.18158772
C       -1.70645930       0.44057714       0.33159616
O       -1.86181745       0.90106290       1.53729365
H        1.01736313       1.82176859       0.83929549
H        2.53993089       0.91895879       0.80776791
H        1.79554195       1.45448501      -0.70184903
H        0.60822055      -0.59416820       1.23046416
H        2.55163185      -1.51354826      -0.04032160
H        1.80133155      -1.01664889      -1.55576613
H        1.03935700      -2.26521545      -0.56322273
H       -0.47631911       0.37580899      -1.46765338
H       -2.40922136      -1.17308367      -0.98901505
H       -1.56798851      -1.73301001       0.54027969
H       -2.51708557       1.77419178      -0.21930036
H       -2.53426508       2.06833030       0.90433863
19
Frame=16 idx=008294 GeodesicLength=1.5383914262177691 rxn_smarts="[C:1]([C:2]([C:3]([H:12])([H:13])[H:14])([C@@:4]1([H:15])[C:5]([H:16])([H:17])[C@:6]1([O:7][H:19])[H:18])[H:11])([H:8])([H:9])[H:10]>>[C:1]([C:2]([C:3]([H:12])([H:13])[H:14])([C@@:4]1([H:15])[C:5]([H:16])([H:17])[C:6]1=[O:7])[H:11])([H:8])([H:9])[H:10].[H:18][H:19]"
C        1.58218737       1.06190443       0.29372873
C        0.80522272      -0.24998432       0.20857865
C        1.59762757      -1.32695109      -0.52438139
C       -0.53501328      -0.01970155      -0.45800167
C       -1.72325433      -0.95165564      -0.18735124
C       -1.71199300       0.43085864       0.31594773
O       -1.87889787       0.89844189       1.51730764
H        1.01099437       1.82221663       0.83104088
H        2.53570251       0.92255789       0.80698253
H        1.79365130       1.45111352      -0.70629145
H        0.60722650      -0.59514326       1.22934820
H        2.55701594      -1.51088683      -0.03567514
H        1.80710852      -1.02099116      -1.55340906
H        1.04805367      -2.26950050      -0.55845344
H       -0.47365985       0.36489489      -1.47381698
H       -2.40419605      -1.19023637      -0.99454897
H       -1.56189999      -1.74156452       0.53807771
H       -2.51238702       1.81546651      -0.19690080
H       -2.54348906       2.10916086       0.94781806
