11
Frame=0 idx=000296 GeodesicLength=0.0 rxn_smarts="[C:1]([C:2](=[O:3])[C:4](=[O:5])[N:6]([H:10])[H:11])([H:7])([H:8])[H:9]>>[C:1]([C-:2]=[O+:3][C:4](=[O:5])[N:6]([H:10])[H:11])([H:7])([H:8])[H:9]"
C       -1.98245860      -0.08618244       0.06311380
C       -0.52584257       0.17287559       0.05563252
O        0.11846399      -0.15207748      -1.00508580
C        1.19505688       0.56345361      -0.16818192
O        1.50206423       1.68832519      -0.42796491
N        1.97840789      -0.37883128       0.46450794
H       -2.31428267      -0.62415750      -0.82946281
H       -2.25043593      -0.62480648       0.97372191
H       -2.48172720       0.88521628       0.12427233
H        1.81724743      -1.34267553       0.23090036
H        2.94350659      -0.10114001       0.51854663
11
Frame=1 idx=000296 GeodesicLength=0.09180460398679745 rxn_smarts="[C:1]([C:2](=[O:3])[C:4](=[O:5])[N:6]([H:10])[H:11])([H:7])([H:8])[H:9]>>[C:1]([C-:2]=[O+:3][C:4](=[O:5])[N:6]([H:10])[H:11])([H:7])([H:8])[H:9]"
C       -1.99534031      -0.07664249       0.05780599
C       -0.54234974       0.19622503       0.04174695
O        0.11816318      -0.20365891      -0.97659233
C        1.19074245       0.55818982      -0.14105953
O        1.48801873       1.69887796      -0.34244429
N        2.00326758      -0.39254126       0.43352486
H       -2.31646338      -0.67973699      -0.79588886
H       -2.26761962      -0.54941368       1.00316256
H       -2.50284828       0.89241003       0.04937213
H        1.86408192      -1.34711491       0.15195805
H        2.96034748      -0.09659460       0.51841447
11
Frame=2 idx=000296 GeodesicLength=0.18377857009839899 rxn_smarts="[C:1]([C:2](=[O:3])[C:4](=[O:5])[N:6]([H:10])[H:11])([H:7])([H:8])[H:9]>>[C:1]([C-:2]=[O+:3][C:4](=[O:5])[N:6]([H:10])[H:11])([H:7])([H:8])[H:9]"
C       -2.00857155      -0.06615616       0.05281628
C       -0.55923192       0.21941941       0.02313765
O        0.11630749      -0.25843735      -0.94432594
C        1.18583871       0.55043940      -0.11316946
O        1.47352560       1.70453882      -0.25035040
N        2.02858808      -0.40573617       0.39931353
H       -2.31947330      -0.73620941      -0.75308177
H       -2.28529187      -0.46514365       1.03042916
H       -2.52380520       0.89521561      -0.03113572
H        1.91692886      -1.34585078       0.06171142
H        2.97518510      -0.09207973       0.52465523
11
Frame=3 idx=000296 GeodesicLength=0.27557356152150864 rxn_smarts="[C:1]([C:2](=[O:3])[C:4](=[O:5])[N:6]([H:10])[H:11])([H:7])([H:8])[H:9]>>[C:1]([C-:2]=[O+:3][C:4](=[O:5])[N:6]([H:10])[H:11])([H:7])([H:8])[H:9]"
C       -2.02216008      -0.05444257       0.04767948
C       -0.57624782       0.24114447      -0.00101191
O        0.11301270      -0.31904788      -0.90626298
C        1.18003875       0.53969515      -0.08414399
O        1.45726858       1.70417321      -0.15136427
N        2.05510603      -0.41739313       0.36177431
H       -2.32447973      -0.79101472      -0.70109796
H       -2.30331288      -0.37190754       1.05354318
H       -2.54378391       0.89314327      -0.11598941
H        1.97624137      -1.33590403      -0.03922206
H        2.98831699      -0.08844623       0.53609561
11
Frame=4 idx=000296 GeodesicLength=0.3667123195990863 rxn_smarts="[C:1]([C:2](=[O:3])[C:4](=[O:5])[N:6]([H:10])[H:11])([H:7])([H:8])[H:9]>>[C:1]([C-:2]=[O+:3][C:4](=[O:5])[N:6]([H:10])[H:11])([H:7])([H:8])[H:9]"
C       -2.03608827      -0.04107391       0.04168508
C       -0.59310298       0.25992917      -0.03157894
O        0.10848245      -0.38788625      -0.85888252
C        1.17289648       0.52540707      -0.05223488
O        1.43758944       1.69651778      -0.04310425
N        2.08387108      -0.42650030       0.32006448
H       -2.33202838      -0.84303216      -0.63905905
H       -2.32161058      -0.26802776       1.07058226
H       -2.56229579       0.88550896      -0.20609030
H        2.04143383      -1.31400897      -0.15073125
H        3.00085273      -0.08683362       0.54934936
11
Frame=5 idx=000296 GeodesicLength=0.456240365544591 rxn_smarts="[C:1]([C:2](=[O:3])[C:4](=[O:5])[N:6]([H:10])[H:11])([H:7])([H:8])[H:9]>>[C:1]([C-:2]=[O+:3][C:4](=[O:5])[N:6]([H:10])[H:11])([H:7])([H:8])[H:9]"
C       -2.05030135      -0.02566073       0.03341635
C       -0.60906276       0.27256747      -0.06884055
O        0.10300172      -0.46886618      -0.79540292
C        1.16381261       0.50646166      -0.01414532
O        1.41183865       1.67960217       0.07805438
N        2.11667060      -0.43092938       0.27305034
H       -2.34361342      -0.88950968      -0.56775278
H       -2.34068586      -0.15235463       1.07808586
H       -2.57750739       0.87230928      -0.30215333
H        2.10956557      -1.27724537      -0.27036151
H        3.01628163      -0.08637461       0.55604948
11
Frame=6 idx=000296 GeodesicLength=0.54145294089185 rxn_smarts="[C:1]([C:2](=[O:3])[C:4](=[O:5])[N:6]([H:10])[H:11])([H:7])([H:8])[H:9]>>[C:1]([C-:2]=[O+:3][C:4](=[O:5])[N:6]([H:10])[H:11])([H:7])([H:8])[H:9]"
C       -2.06386162      -0.00804866       0.02092874
C       -0.62234365       0.27483106      -0.11271193
O        0.09645903      -0.56505301      -0.70563198
C        1.15229130       0.48131284       0.03545909
O        1.37780271       1.65047236       0.21780028
N        2.15433970      -0.42774068       0.21842643
H       -2.36035355      -0.92818662      -0.48758709
H       -2.36022503      -0.02289295       1.07151149
H       -2.58617880       0.85277898      -0.40690821
H        2.17327070      -1.22351928      -0.39661102
H        3.03879920      -0.08395403       0.54532420
11
Frame=7 idx=000296 GeodesicLength=0.6159167583303489 rxn_smarts="[C:1]([C:2](=[O:3])[C:4](=[O:5])[N:6]([H:10])[H:11])([H:7])([H:8])[H:9]>>[C:1]([C-:2]=[O+:3][C:4](=[O:5])[N:6]([H:10])[H:11])([H:7])([H:8])[H:9]"
C       -2.07453204       0.01166178       0.00178284
C       -0.62890543       0.25801947      -0.15862765
O        0.08835403      -0.67826405      -0.57488023
C        1.13886715       0.44801662       0.10245570
O        1.33419055       1.60533864       0.38102155
N        2.19460975      -0.41299590       0.15402468
H       -2.38311553      -0.95504946      -0.40184018
H       -2.38014874       0.12018820       1.04419704
H       -2.58081678       0.82720893      -0.52298896
H        2.22013169      -1.15199571      -0.52808207
H        3.07136535      -0.07212852       0.50293728
11
Frame=8 idx=000296 GeodesicLength=0.6756147402706608 rxn_smarts="[C:1]([C:2](=[O:3])[C:4](=[O:5])[N:6]([H:10])[H:11])([H:7])([H:8])[H:9]>>[C:1]([C-:2]=[O+:3][C:4](=[O:5])[N:6]([H:10])[H:11])([H:7])([H:8])[H:9]"
C       -2.07625276       0.03056586      -0.02575800
C       -0.62258731       0.21837186      -0.19875860
O        0.07815851      -0.79426280      -0.40293466
C        1.12617078       0.40800899       0.19154554
O        1.28767943       1.54265875       0.57092481
N        2.22651385      -0.38558921       0.08194749
H       -2.40688658      -0.96943345      -0.31395046
H       -2.39453528       0.27145167       0.99043784
H       -2.55334050       0.79057645      -0.65139445
H        2.22637438      -1.07010355      -0.65555336
H        3.10870550      -0.04224456       0.41349386
11
Frame=9 idx=000296 GeodesicLength=0.741840382424962 rxn_smarts="[C:1]([C:2](=[O:3])[C:4](=[O:5])[N:6]([H:10])[H:11])([H:7])([H:8])[H:9]>>[C:1]([C-:2]=[O+:3][C:4](=[O:5])[N:6]([H:10])[H:11])([H:7])([H:8])[H:9]"
C       -2.06386490       0.04551179      -0.05743303
C       -0.60171250       0.15931292      -0.22853408
O        0.06663571      -0.89355390      -0.22397578
C        1.11675641       0.36475196       0.29143905
O        1.24694754       1.46681598       0.76623505
N        2.23759672      -0.34969618       0.01162017
H       -2.42603734      -0.96975142      -0.23039688
H       -2.39161815       0.41463584       0.91640560
H       -2.50329021       0.74378028      -0.77556876
H        2.18745558      -0.98854892      -0.76450755
H        3.13113114       0.00674165       0.29471621
11
Frame=10 idx=000296 GeodesicLength=0.8266522965083688 rxn_smarts="[C:1]([C:2](=[O:3])[C:4](=[O:5])[N:6]([H:10])[H:11])([H:7])([H:8])[H:9]>>[C:1]([C-:2]=[O+:3][C:4](=[O:5])[N:6]([H:10])[H:11])([H:7])([H:8])[H:9]"
C       -2.04069453       0.05561962      -0.08636336
C       -0.57296172       0.09498951      -0.24978001
O        0.05418315      -0.96841780      -0.07579246
C        1.11146724       0.32439399       0.38174333
O        1.21801873       1.38798561       0.94068378
N        2.22875870      -0.31077778      -0.04903688
H       -2.43902255      -0.95825109      -0.15551895
H       -2.36834379       0.53605800       0.83773893
H       -2.44461966       0.69148395      -0.87922800
H        2.12348120      -0.91687800      -0.84598912
H        3.12973325       0.06379400       0.18154274
11
Frame=11 idx=000296 GeodesicLength=0.9213393365351342 rxn_smarts="[C:1]([C:2](=[O:3])[C:4](=[O:5])[N:6]([H:10])[H:11])([H:7])([H:8])[H:9]>>[C:1]([C-:2]=[O+:3][C:4](=[O:5])[N:6]([H:10])[H:11])([H:7])([H:8])[H:9]"
C       -2.01263805       0.06343386      -0.11023031
C       -0.54346686       0.03086869      -0.26886090
O        0.04168924      -1.02725784       0.03498727
C        1.10800654       0.28798080       0.45367862
O        1.19602991       1.30636854       1.09219422
N        2.20874893      -0.27095888      -0.09918201
H       -2.44806119      -0.93683282      -0.08174391
H       -2.32887714       0.64201502       0.76001218
H       -2.38906505       0.63502982      -0.96314935
H        2.05611409      -0.85266627      -0.90703395
H        3.11151957       0.12201907       0.08932813
11
Frame=12 idx=000296 GeodesicLength=1.0195078392557937 rxn_smarts="[C:1]([C:2](=[O:3])[C:4](=[O:5])[N:6]([H:10])[H:11])([H:7])([H:8])[H:9]>>[C:1]([C-:2]=[O+:3][C:4](=[O:5])[N:6]([H:10])[H:11])([H:7])([H:8])[H:9]"
C       -1.98307515       0.06964910      -0.12996595
C       -0.51608812      -0.03222285      -0.28682622
O        0.02929864      -1.07654936       0.12107758
C        1.10493081       0.25729913       0.50851560
O        1.17937883       1.22524098       1.22103068
N        2.18297265      -0.23035475      -0.14125096
H       -2.45482524      -0.90718568      -0.01275291
H       -2.27908433       0.73249245       0.68553664
H       -2.33977019       0.57897443      -1.02944193
H        1.99170730      -0.79531426      -0.95322507
H        3.08455480       0.17797081       0.01730254
11
Frame=13 idx=000296 GeodesicLength=1.11883968146719 rxn_smarts="[C:1]([C:2](=[O:3])[C:4](=[O:5])[N:6]([H:10])[H:11])([H:7])([H:8])[H:9]>>[C:1]([C-:2]=[O+:3][C:4](=[O:5])[N:6]([H:10])[H:11])([H:7])([H:8])[H:9]"
C       -1.95317498       0.07460191      -0.14682586
C       -0.49160554      -0.09475606      -0.30400026
O        0.01719771      -1.11947765       0.19156770
C        1.10124409       0.23260440       0.55027932
O        1.16688722       1.14490057       1.33211448
N        2.15345383      -0.18791796      -0.17825285
H       -2.45936537      -0.87106957       0.05191726
H       -2.22260460       0.81034677       0.61346292
H       -2.29692142       0.52406512      -1.08242726
H        1.93114836      -0.74291479      -0.98965508
H        3.05374071       0.22961726      -0.03818038
11
Frame=14 idx=000296 GeodesicLength=1.2187123392114043 rxn_smarts="[C:1]([C:2](=[O:3])[C:4](=[O:5])[N:6]([H:10])[H:11])([H:7])([H:8])[H:9]>>[C:1]([C-:2]=[O+:3][C:4](=[O:5])[N:6]([H:10])[H:11])([H:7])([H:8])[H:9]"
C       -1.92322062       0.07859059      -0.16195388
C       -0.46990376      -0.15678130      -0.31963842
O        0.00538453      -1.15791995       0.25168327
C        1.09660720       0.21277627       0.58350548
O        1.15853667       1.06421994       1.43033395
N        2.12033000      -0.14207384      -0.21242931
H       -2.46111933      -0.82934193       0.11349279
H       -2.16174639       0.87839089       0.54182516
H       -2.25970220       0.46943397      -1.12600628
H        1.87355888      -0.69400272      -1.01928050
H        3.02127504       0.27670809      -0.08153226
11
Frame=15 idx=000296 GeodesicLength=1.3189637387667317 rxn_smarts="[C:1]([C:2](=[O:3])[C:4](=[O:5])[N:6]([H:10])[H:11])([H:7])([H:8])[H:9]>>[C:1]([C-:2]=[O+:3][C:4](=[O:5])[N:6]([H:10])[H:11])([H:7])([H:8])[H:9]"
C       -1.89345095       0.08146738      -0.17590075
C       -0.45083871      -0.21794343      -0.33320586
O       -0.00590133      -1.19227845       0.30503735
C        1.09088836       0.19820633       0.61039886
O        1.15485469       0.98362781       1.51779335
N        2.08302206      -0.09086931      -0.24546092
H       -2.45953754      -0.78332524       0.17159889
H       -2.09869300       0.93728065       0.47005450
H       -2.22749873       0.41477622      -1.16207846
H        1.81778007      -0.64657280      -1.04426697
H        2.98937506       0.31563084      -0.11396999
11
Frame=16 idx=000296 GeodesicLength=1.4196493124291687 rxn_smarts="[C:1]([C:2](=[O:3])[C:4](=[O:5])[N:6]([H:10])[H:11])([H:7])([H:8])[H:9]>>[C:1]([C-:2]=[O+:3][C:4](=[O:5])[N:6]([H:10])[H:11])([H:7])([H:8])[H:9]"
C       -1.86340358       0.08343745      -0.18934180
C       -0.43368708      -0.27874371      -0.34329853
O       -0.01743736      -1.22331685       0.35615401
C        1.08434409       0.18775576       0.63385964
O        1.15685703       0.90311788       1.59624406
N        2.04174503      -0.03733778      -0.27526792
H       -2.45539615      -0.73444642       0.22199532
H       -2.03475807       0.98665585       0.39931817
H       -2.19684237       0.36310446      -1.19219105
H        1.76286852      -0.60186791      -1.06370768
H        2.95570993       0.35164128      -0.14376422
