9
Frame=0 idx=002872 GeodesicLength=0.0 rxn_smarts="[N:1]([c:2]1[c:3]([H:9])[o:4][n:5][n:6]1)([H:7])[H:8]>>[N-:1]([c:2]1[c:3]([H:9])[o+:4][n:5][n:6]1[H:7])[H:8]"
N        1.63169329      -0.17312836       0.17480436
C        0.34553525       0.13325670       0.06647414
C       -0.74251166       0.96605865       0.07386349
O       -1.84393724       0.18684182      -0.20457020
N       -1.48418860      -1.07446730      -0.38045485
N       -0.22989925      -1.08628981      -0.22106377
H        0.93153282      -1.47881253      -0.14052539
H        2.32540163       0.51739377       0.39649112
H       -0.93362623       2.00914705       0.23498112
9
Frame=1 idx=002872 GeodesicLength=0.039527981218165205 rxn_smarts="[N:1]([c:2]1[c:3]([H:9])[o:4][n:5][n:6]1)([H:7])[H:8]>>[N-:1]([c:2]1[c:3]([H:9])[o+:4][n:5][n:6]1[H:7])[H:8]"
N        1.63250573      -0.17247606       0.16445401
C        0.35232028       0.14053385       0.00370328
C       -0.74084226       0.96407163       0.07643803
O       -1.84481140       0.18884379      -0.19148127
N       -1.48965636      -1.07508801      -0.36304412
N       -0.23024705      -1.08685544      -0.24116445
H        0.93819188      -1.48821963      -0.11943213
H        2.30844155       0.52174589       0.42713361
H       -0.92590237       2.00744397       0.24339305
9
Frame=2 idx=002872 GeodesicLength=0.0792357936900068 rxn_smarts="[N:1]([c:2]1[c:3]([H:9])[o:4][n:5][n:6]1)([H:7])[H:8]>>[N-:1]([c:2]1[c:3]([H:9])[o+:4][n:5][n:6]1[H:7])[H:8]"
N        1.63296285      -0.17046376       0.15065142
C        0.35652388       0.14423504      -0.04309757
C       -0.73749149       0.96235115       0.07458940
O       -1.84467049       0.19093507      -0.17864487
N       -1.49378766      -1.07481322      -0.35050898
N       -0.23092794      -1.08813889      -0.25927008
H        0.94455075      -1.49587750      -0.09867805
H        2.28944780       0.52666784       0.45298754
H       -0.91660771       2.00510427       0.25197119
9
Frame=3 idx=002872 GeodesicLength=0.11916626254398746 rxn_smarts="[N:1]([c:2]1[c:3]([H:9])[o:4][n:5][n:6]1)([H:7])[H:8]>>[N-:1]([c:2]1[c:3]([H:9])[o+:4][n:5][n:6]1[H:7])[H:8]"
N        1.63358450      -0.16799170       0.13601646
C        0.35914613       0.14620677      -0.07908769
C       -0.73416588       0.96042362       0.07408470
O       -1.84407571       0.19319594      -0.16711424
N       -1.49732575      -1.07441244      -0.33878147
N       -0.23189255      -1.08983575      -0.27478221
H        0.95191442      -1.50174937      -0.08372065
H        2.26960703       0.53060067       0.47727388
H       -0.90679220       2.00356225       0.25611123
9
Frame=4 idx=002872 GeodesicLength=0.15916591118402976 rxn_smarts="[N:1]([c:2]1[c:3]([H:9])[o:4][n:5][n:6]1)([H:7])[H:8]>>[N-:1]([c:2]1[c:3]([H:9])[o+:4][n:5][n:6]1[H:7])[H:8]"
N        1.63394779      -0.16561708       0.12332009
C        0.36096714       0.14728802      -0.10935085
C       -0.73077186       0.95875563       0.07254217
O       -1.84318634       0.19560516      -0.15664263
N       -1.50043021      -1.07383640      -0.32792257
N       -0.23309292      -1.09177926      -0.28846758
H        0.95992086      -1.50675405      -0.07169389
H        2.24960112       0.53420501       0.49856561
H       -0.89695560       2.00213299       0.25964966
9
Frame=5 idx=002872 GeodesicLength=0.19916989947902008 rxn_smarts="[N:1]([c:2]1[c:3]([H:9])[o:4][n:5][n:6]1)([H:7])[H:8]>>[N-:1]([c:2]1[c:3]([H:9])[o+:4][n:5][n:6]1[H:7])[H:8]"
N        1.63400814      -0.16343844       0.11266302
C        0.36227035       0.14780056      -0.13570389
C       -0.72742085       0.95728047       0.07037502
O       -1.84209542       0.19815791      -0.14711866
N       -1.50322625      -1.07315227      -0.31738345
N       -0.23448921      -1.09383090      -0.30110238
H        0.96844938      -1.51125868      -0.06193404
H        2.22969039       0.53765277       0.51743520
H       -0.88718653       2.00078858       0.26276918
9
Frame=6 idx=002872 GeodesicLength=0.2392241039779887 rxn_smarts="[N:1]([c:2]1[c:3]([H:9])[o:4][n:5][n:6]1)([H:7])[H:8]>>[N-:1]([c:2]1[c:3]([H:9])[o+:4][n:5][n:6]1[H:7])[H:8]"
N        1.63397323      -0.16116239       0.10271955
C        0.36321236       0.14805537      -0.15953089
C       -0.72414887       0.95594732       0.06804524
O       -1.84087010       0.20069600      -0.13761821
N       -1.50570593      -1.07245537      -0.30660362
N       -0.23599233      -1.09584672      -0.31323799
H        0.97757162      -1.51529475      -0.05423811
H        2.20945180       0.54033795       0.53579767
H       -0.87749177       1.99972259       0.26466636
9
Frame=7 idx=002872 GeodesicLength=0.279313476605369 rxn_smarts="[N:1]([c:2]1[c:3]([H:9])[o:4][n:5][n:6]1)([H:7])[H:8]>>[N-:1]([c:2]1[c:3]([H:9])[o+:4][n:5][n:6]1[H:7])[H:8]"
N        1.63380269      -0.15886047       0.09360751
C        0.36390122       0.14810869      -0.18153199
C       -0.72093731       0.95479200       0.06521541
O       -1.83951176       0.20324967      -0.12831063
N       -1.50789243      -1.07169908      -0.29591214
N       -0.23760858      -1.09784369      -0.32500530
H        0.98707973      -1.51903789      -0.04753538
H        2.18903971       0.54256522       0.55315704
H       -0.86787328       1.99872555       0.26631547
9
Frame=8 idx=002872 GeodesicLength=0.31944986152273336 rxn_smarts="[N:1]([c:2]1[c:3]([H:9])[o:4][n:5][n:6]1)([H:7])[H:8]>>[N-:1]([c:2]1[c:3]([H:9])[o+:4][n:5][n:6]1[H:7])[H:8]"
N        1.63353625      -0.15642546       0.08501801
C        0.36439519       0.14808194      -0.20220423
C       -0.71779760       0.95384007       0.06189052
O       -1.83802903       0.20573876      -0.11870086
N       -1.50975611      -1.07094333      -0.28488123
N       -0.23930631      -1.09974873      -0.33665514
H        0.99706547      -1.52247240      -0.04209518
H        2.16823075       0.54401406       0.57037889
H       -0.85833860       1.99791509       0.26724922
9
Frame=9 idx=002872 GeodesicLength=0.3596437679960671 rxn_smarts="[N:1]([c:2]1[c:3]([H:9])[o:4][n:5][n:6]1)([H:7])[H:8]>>[N-:1]([c:2]1[c:3]([H:9])[o+:4][n:5][n:6]1[H:7])[H:8]"
N        1.63314420      -0.15388790       0.07702810
C        0.36474833       0.14799481      -0.22188598
C       -0.71471983       0.95312757       0.05785380
O       -1.83640448       0.20816660      -0.10874088
N       -1.51128882      -1.07019116      -0.27345391
N       -0.24109792      -1.10156422      -0.34827530
H        1.00749042      -1.52567056      -0.03773162
H        2.14696987       0.54478751       0.58747634
H       -0.84884176       1.99723735       0.26772946
9
Frame=10 idx=002872 GeodesicLength=0.39986113334982587 rxn_smarts="[N:1]([c:2]1[c:3]([H:9])[o:4][n:5][n:6]1)([H:7])[H:8]>>[N-:1]([c:2]1[c:3]([H:9])[o+:4][n:5][n:6]1[H:7])[H:8]"
N        1.63259924      -0.15142061       0.06985151
C        0.36495454       0.14779357      -0.24035782
C       -0.71176228       0.95247840       0.05376432
O       -1.83466939       0.21065056      -0.09919255
N       -1.51258308      -1.06933870      -0.26245002
N       -0.24302544      -1.10333697      -0.35975311
H        1.01809851      -1.52878758      -0.03343592
H        2.12583804       0.54543917       0.60320428
H       -0.83945014       1.99652217       0.26836932
9
Frame=11 idx=002872 GeodesicLength=0.44011575780982004 rxn_smarts="[N:1]([c:2]1[c:3]([H:9])[o:4][n:5][n:6]1)([H:7])[H:8]>>[N-:1]([c:2]1[c:3]([H:9])[o+:4][n:5][n:6]1[H:7])[H:8]"
N        1.63194853      -0.14890500       0.06317317
C        0.36503954       0.14755410      -0.25793264
C       -0.70891562       0.95194806       0.04947770
O       -1.83282236       0.21312281      -0.08960506
N       -1.51360640      -1.06843994      -0.25146013
N       -0.24507227      -1.10502776      -0.37116719
H        1.02902947      -1.53176121      -0.02962238
H        2.10454760       0.54562341       0.61840821
H       -0.83014849       1.99588554       0.26872832
9
Frame=12 idx=002872 GeodesicLength=0.4804186160536509 rxn_smarts="[N:1]([c:2]1[c:3]([H:9])[o:4][n:5][n:6]1)([H:7])[H:8]>>[N-:1]([c:2]1[c:3]([H:9])[o+:4][n:5][n:6]1[H:7])[H:8]"
N        1.63118285      -0.14632530       0.05696808
C        0.36503182       0.14730141      -0.27481116
C       -0.70617479       0.95157959       0.04480035
O       -1.83084736       0.21555629      -0.07977406
N       -1.51433942      -1.06751550      -0.24033455
N       -0.24723813      -1.10661854      -0.38261121
H        1.04030452      -1.53459805      -0.02635453
H        2.08298991       0.54528213       0.63333877
H       -0.82090941       1.99533798       0.26877830
9
Frame=13 idx=002872 GeodesicLength=0.5207751600501009 rxn_smarts="[N:1]([c:2]1[c:3]([H:9])[o:4][n:5][n:6]1)([H:7])[H:8]>>[N-:1]([c:2]1[c:3]([H:9])[o+:4][n:5][n:6]1[H:7])[H:8]"
N        1.63031390      -0.14364790       0.05112673
C        0.36493020       0.14703092      -0.29110585
C       -0.70354660       0.95136625       0.03973164
O       -1.82873950       0.21796074      -0.06966405
N       -1.51480857      -1.06654077      -0.22921672
N       -0.24953746      -1.10813954      -0.39395303
H        1.05195708      -1.53729620      -0.02352112
H        2.06113672       0.54440665       0.64801874
H       -0.81170577       1.99485986       0.26858365
9
Frame=14 idx=002872 GeodesicLength=0.5611635279397797 rxn_smarts="[N:1]([c:2]1[c:3]([H:9])[o:4][n:5][n:6]1)([H:7])[H:8]>>[N-:1]([c:2]1[c:3]([H:9])[o+:4][n:5][n:6]1[H:7])[H:8]"
N        1.62933981      -0.14098066       0.04567186
C        0.36473733       0.14673378      -0.30673302
C       -0.70104507       0.95119566       0.03466602
O       -1.82652798       0.22039313      -0.05980116
N       -1.51506153      -1.06550005      -0.21839682
N       -0.25197379      -1.10958398      -0.40532353
H        1.06376505      -1.53990246      -0.02043502
H        2.03934247       0.54331614       0.66178769
H       -0.80257629       1.99432844       0.26856398
9
Frame=15 idx=002872 GeodesicLength=0.6015862662852824 rxn_smarts="[N:1]([c:2]1[c:3]([H:9])[o:4][n:5][n:6]1)([H:7])[H:8]>>[N-:1]([c:2]1[c:3]([H:9])[o+:4][n:5][n:6]1[H:7])[H:8]"
N        1.62827598      -0.13831986       0.04050176
C        0.36444824       0.14638187      -0.32178074
C       -0.69866389       0.95104577       0.02960157
O       -1.82424090       0.22287023      -0.05024520
N       -1.51518315      -1.06436553      -0.20813326
N       -0.25456296      -1.11100279      -0.41657252
H        1.07571230      -1.54241250      -0.01683286
H        2.01768384       0.54213447       0.67450842
H       -0.79346944       1.99366834       0.26895283
9
Frame=16 idx=002872 GeodesicLength=0.6420287804652843 rxn_smarts="[N:1]([c:2]1[c:3]([H:9])[o:4][n:5][n:6]1)([H:7])[H:8]>>[N-:1]([c:2]1[c:3]([H:9])[o+:4][n:5][n:6]1[H:7])[H:8]"
N        1.62713631      -0.13566676       0.03557878
C        0.36405990       0.14600171      -0.33621761
C       -0.69640753       0.95089021       0.02473391
O       -1.82189461       0.22537582      -0.04091891
N       -1.51519174      -1.06314957      -0.19839004
N       -0.25730330      -1.11237042      -0.42774212
H        1.08783225      -1.54482163      -0.01284644
H        1.99620873       0.54078942       0.68632702
H       -0.78444000       1.99295122       0.26947541
