16
Frame=0 idx=010732 GeodesicLength=0.0 rxn_smarts="[N:1]([C:2](=[O:3])[C:4]([C:5]([C:6]([O:7][H:16])([H:14])[H:15])([H:12])[H:13])([H:10])[H:11])([H:8])[H:9]>>[N:1](/[C:2]([O:3][H:10])=[C:4](\[C:5]([C:6]([O:7][H:16])([H:14])[H:15])([H:12])[H:13])[H:11])([H:8])[H:9]"
N        1.50571790       0.48034870       1.20097241
C        1.26500822      -0.69413655       0.63474602
O        2.22184093      -1.52801472       0.39550599
C        0.04597942      -1.26015383       0.12609866
C       -1.21351556      -0.49617230      -0.22917283
C       -1.03147745       0.80377771      -0.98746259
O       -0.68693924       1.84110699      -0.06301687
H        2.45729121       0.79578865       1.26782425
H        0.75871064       1.15955017       1.21421201
H        1.30415242      -1.96737614      -0.30637875
H       -0.17445534      -2.14294586       0.73044053
H       -1.82657851      -1.15228331      -0.85297450
H       -1.82750885      -0.26751967       0.65260700
H       -0.24894622       0.69295687      -1.74759559
H       -1.96670130       1.07280958      -1.49036682
H       -0.58257833       2.66226378      -0.54543896
16
Frame=1 idx=010732 GeodesicLength=0.056485278962867626 rxn_smarts="[N:1]([C:2](=[O:3])[C:4]([C:5]([C:6]([O:7][H:16])([H:14])[H:15])([H:12])[H:13])([H:10])[H:11])([H:8])[H:9]>>[N:1](/[C:2]([O:3][H:10])=[C:4](\[C:5]([C:6]([O:7][H:16])([H:14])[H:15])([H:12])[H:13])[H:11])([H:8])[H:9]"
N        1.48804125       0.47273116       1.23836561
C        1.25999108      -0.70081926       0.66120509
O        2.23141639      -1.50619365       0.38514851
C        0.05262098      -1.25709154       0.11684890
C       -1.21102493      -0.48903781      -0.21313344
C       -1.03946554       0.79827833      -0.99475694
O       -0.65655717       1.84510310      -0.09760993
H        2.43918611       0.78216860       1.33378359
H        0.74919720       1.16043167       1.21668478
H        1.31667538      -1.93769761      -0.34817165
H       -0.16368411      -2.17014040       0.67552583
H       -1.84731228      -1.14741326      -0.81083719
H       -1.79742791      -0.24611620       0.68315046
H       -0.28315554       0.66940903      -1.77821886
H       -1.98740664       1.06968464      -1.47241142
H       -0.55109427       2.65670321      -0.59557335
16
Frame=2 idx=010732 GeodesicLength=0.11221795504265607 rxn_smarts="[N:1]([C:2](=[O:3])[C:4]([C:5]([C:6]([O:7][H:16])([H:14])[H:15])([H:12])[H:13])([H:10])[H:11])([H:8])[H:9]>>[N:1](/[C:2]([O:3][H:10])=[C:4](\[C:5]([C:6]([O:7][H:16])([H:14])[H:15])([H:12])[H:13])[H:11])([H:8])[H:9]"
N        1.47047424       0.46510208       1.27288972
C        1.25482428      -0.70868750       0.68731131
O        2.24011710      -1.48522258       0.37848053
C        0.05922707      -1.25387579       0.10794270
C       -1.20812611      -0.48225554      -0.19814095
C       -1.04752695       0.79315736      -1.00115069
O       -0.62677337       1.84745788      -0.13108739
H        2.42057027       0.76822431       1.39570394
H        0.74146657       1.16122876       1.21716342
H        1.32890619      -1.90757513      -0.38709523
H       -0.15320155      -2.19391985       0.62098364
H       -1.86547472      -1.14239884      -0.77069053
H       -1.76798559      -0.22615765       0.71106028
H       -0.31802598       0.64684456      -1.80669892
H       -2.00725109       1.06816205      -1.45312850
H       -0.52122038       2.64991588      -0.64354332
16
Frame=3 idx=010732 GeodesicLength=0.16686616931804946 rxn_smarts="[N:1]([C:2](=[O:3])[C:4]([C:5]([C:6]([O:7][H:16])([H:14])[H:15])([H:12])[H:13])([H:10])[H:11])([H:8])[H:9]>>[N:1](/[C:2]([O:3][H:10])=[C:4](\[C:5]([C:6]([O:7][H:16])([H:14])[H:15])([H:12])[H:13])[H:11])([H:8])[H:9]"
N        1.45282681       0.45738990       1.30479347
C        1.24933679      -0.71742911       0.71290722
O        2.24780512      -1.46497908       0.37518080
C        0.06579140      -1.25035309       0.09929925
C       -1.20483994      -0.47581895      -0.18400582
C       -1.05552321       0.78830835      -1.00659073
O       -0.59742978       1.84818169      -0.16375689
H        2.40127956       0.75385709       1.45393312
H        0.73529662       1.16182157       1.21564154
H        1.34091079      -1.87659053      -0.42342095
H       -0.14297863      -2.21440755       0.56657120
H       -1.88130179      -1.13734495      -0.73217900
H       -1.73912037      -0.20757218       0.73665448
H       -0.35348581       0.62520982      -1.83297311
H       -2.02595525       1.06787306      -1.43234421
H       -0.49261232       2.64185398      -0.68971036
16
Frame=4 idx=010732 GeodesicLength=0.220853662840514 rxn_smarts="[N:1]([C:2](=[O:3])[C:4]([C:5]([C:6]([O:7][H:16])([H:14])[H:15])([H:12])[H:13])([H:10])[H:11])([H:8])[H:9]>>[N:1](/[C:2]([O:3][H:10])=[C:4](\[C:5]([C:6]([O:7][H:16])([H:14])[H:15])([H:12])[H:13])[H:11])([H:8])[H:9]"
N        1.43544905       0.44988146       1.33397720
C        1.24380990      -0.72687317       0.73754001
O        2.25470738      -1.44615091       0.37493034
C        0.07232754      -1.24673962       0.09096907
C       -1.20126689      -0.46972880      -0.17090932
C       -1.06346827       0.78387358      -1.01124317
O       -0.56900282       1.84751712      -0.19518759
H        2.38169616       0.73977867       1.50822108
H        0.73066507       1.16214237       1.21263521
H        1.35255121      -1.84598568      -0.45699604
H       -0.13298510      -2.23166916       0.51341548
H       -1.89494817      -1.13229320      -0.69583478
H       -1.71112323      -0.19041255       0.75991916
H       -0.38900966       0.60477111      -1.85703409
H       -2.04356248       1.06895087      -1.41085064
H       -0.46583967       2.63293790      -0.73355192
16
Frame=5 idx=010732 GeodesicLength=0.2742862639952964 rxn_smarts="[N:1]([C:2](=[O:3])[C:4]([C:5]([C:6]([O:7][H:16])([H:14])[H:15])([H:12])[H:13])([H:10])[H:11])([H:8])[H:9]>>[N:1](/[C:2]([O:3][H:10])=[C:4](\[C:5]([C:6]([O:7][H:16])([H:14])[H:15])([H:12])[H:13])[H:11])([H:8])[H:9]"
N        1.41828290       0.44250357       1.36081329
C        1.23814888      -0.73690346       0.76137248
O        2.26083168      -1.42875198       0.37752158
C        0.07887040      -1.24300546       0.08291436
C       -1.19743678      -0.46397027      -0.15866404
C       -1.07134271       0.77983685      -1.01518135
O       -0.54143850       1.84568383      -0.22570751
H        2.36189079       0.72587175       1.55892956
H        0.72731926       1.16218241       1.20830218
H        1.36398433      -1.81550964      -0.48817112
H       -0.12314475      -2.24609365       0.46118477
H       -1.90665843      -1.12736079      -0.66132154
H       -1.68389096      -0.17451306       0.78124572
H       -0.42465704       0.58547097      -1.87907901
H       -2.06002846       1.07117952      -1.38863911
H       -0.44073061       2.62337940      -0.77552026
16
Frame=6 idx=010732 GeodesicLength=0.3272402073547533 rxn_smarts="[N:1]([C:2](=[O:3])[C:4]([C:5]([C:6]([O:7][H:16])([H:14])[H:15])([H:12])[H:13])([H:10])[H:11])([H:8])[H:9]>>[N:1](/[C:2]([O:3][H:10])=[C:4](\[C:5]([C:6]([O:7][H:16])([H:14])[H:15])([H:12])[H:13])[H:11])([H:8])[H:9]"
N        1.40124673       0.43528290       1.38556317
C        1.23234707      -0.74732389       0.78431138
O        2.26624903      -1.41264681       0.38244755
C        0.08542317      -1.23913673       0.07508126
C       -1.19341468      -0.45852688      -0.14718319
C       -1.07915825       0.77612322      -1.01845293
O       -0.51463596       1.84273709      -0.25542049
H        2.34177716       0.71217271       1.60663255
H        0.72519451       1.16196886       1.20279281
H        1.37521042      -1.78513458      -0.51725159
H       -0.11336266      -2.25785686       0.40996587
H       -1.91667486      -1.12259170      -0.62848706
H       -1.65743664      -0.15977256       0.80083865
H       -0.46041864       0.56713911      -1.89924216
H       -2.07543047       1.07445103      -1.36574575
H       -0.41691593       2.61311508      -0.81585008
16
Frame=7 idx=010732 GeodesicLength=0.37995905569544414 rxn_smarts="[N:1]([C:2](=[O:3])[C:4]([C:5]([C:6]([O:7][H:16])([H:14])[H:15])([H:12])[H:13])([H:10])[H:11])([H:8])[H:9]>>[N:1](/[C:2]([O:3][H:10])=[C:4](\[C:5]([C:6]([O:7][H:16])([H:14])[H:15])([H:12])[H:13])[H:11])([H:8])[H:9]"
N        1.38423865       0.42821516       1.40857519
C        1.22638658      -0.75800956       0.80640757
O        2.27106933      -1.39768926       0.38940622
C        0.09204915      -1.23509048       0.06735884
C       -1.18923392      -0.45336561      -0.13632734
C       -1.08703997       0.77269431      -1.02112832
O       -0.48837120       1.83869205      -0.28467968
H        2.32114173       0.69846129       1.65232258
H        0.72433241       1.16154713       1.19613702
H        1.38639574      -1.75459937      -0.54459624
H       -0.10346080      -2.26719877       0.35946881
H       -1.92524707      -1.11802661      -0.59700447
H       -1.63160692      -0.14603157       0.81899031
H       -0.49673399       0.54961494      -1.91782647
H       -2.08996592       1.07875665      -1.34198351
H       -0.39395379       2.60202970      -0.85512051
16
Frame=8 idx=010732 GeodesicLength=0.4326544718392748 rxn_smarts="[N:1]([C:2](=[O:3])[C:4]([C:5]([C:6]([O:7][H:16])([H:14])[H:15])([H:12])[H:13])([H:10])[H:11])([H:8])[H:9]>>[N:1](/[C:2]([O:3][H:10])=[C:4](\[C:5]([C:6]([O:7][H:16])([H:14])[H:15])([H:12])[H:13])[H:11])([H:8])[H:9]"
N        1.36716585       0.42129924       1.43011877
C        1.22024525      -0.76888146       0.82773832
O        2.27538439      -1.38367007       0.39803039
C        0.09878442      -1.23081982       0.05968138
C       -1.18493473      -0.44846904      -0.12594705
C       -1.09508652       0.76951335      -1.02323213
O       -0.46254214       1.83359215      -0.31383057
H        2.29980746       0.68448142       1.69702145
H        0.72477063       1.16098843       1.18823869
H        1.39763440      -1.72358114      -0.57055402
H       -0.09328387      -2.27433269       0.30938622
H       -1.93257738      -1.11373048      -0.56655993
H       -1.60630450      -0.13314889       0.83597097
H       -0.53396027       0.53272271      -1.93500457
H       -2.10373239       1.08406962      -1.31716117
H       -0.37137058       2.58996667      -0.89389676
16
Frame=9 idx=010732 GeodesicLength=0.4850679108445397 rxn_smarts="[N:1]([C:2](=[O:3])[C:4]([C:5]([C:6]([O:7][H:16])([H:14])[H:15])([H:12])[H:13])([H:10])[H:11])([H:8])[H:9]>>[N:1](/[C:2]([O:3][H:10])=[C:4](\[C:5]([C:6]([O:7][H:16])([H:14])[H:15])([H:12])[H:13])[H:11])([H:8])[H:9]"
N        1.35021667       0.41463051       1.44992719
C        1.21391668      -0.77990146       0.84825648
O        2.27908299      -1.37087793       0.40826562
C        0.10553394      -1.22645642       0.05219153
C       -1.18054063      -0.44386674      -0.11617798
C       -1.10300494       0.76662110      -1.02475194
O       -0.43751101       1.82760616      -0.34227664
H        2.27818667       0.67095624       1.73902825
H        0.72610181       1.16011224       1.17965907
H        1.40869400      -1.69276224      -0.59486558
H       -0.08308686      -2.27932627       0.26044310
H       -1.93861971      -1.10969383      -0.53761504
H       -1.58180650      -0.12126548       0.85164206
H       -0.57107576       0.51673492      -1.95042367
H       -2.11636447       1.09021150      -1.29192148
H       -0.34972289       2.57727769      -0.93138098
16
Frame=10 idx=010732 GeodesicLength=0.5374660026848901 rxn_smarts="[N:1]([C:2](=[O:3])[C:4]([C:5]([C:6]([O:7][H:16])([H:14])[H:15])([H:12])[H:13])([H:10])[H:11])([H:8])[H:9]>>[N:1](/[C:2]([O:3][H:10])=[C:4](\[C:5]([C:6]([O:7][H:16])([H:14])[H:15])([H:12])[H:13])[H:11])([H:8])[H:9]"
N        1.33329577       0.40823575       1.46824262
C        1.20735166      -0.79100981       0.86806760
O        2.28225726      -1.35920587       0.41996482
C        0.11235285      -1.22195298       0.04480482
C       -1.17606565      -0.43953675      -0.10689652
C       -1.11092139       0.76401833      -1.02571442
O       -0.41311499       1.82067176      -0.37036814
H        2.25603775       0.65769102       1.77920578
H        0.72839449       1.15888068       1.17035965
H        1.41975133      -1.66182155      -0.61781080
H       -0.07268971      -2.28235289       0.21226738
H       -1.94354372      -1.10595000      -0.50988215
H       -1.55794303      -0.11026597       0.86624226
H       -0.60860155       0.50160798      -1.96431751
H       -2.12798256       1.09723963      -1.26599310
H       -0.32857850       2.56375068      -0.96817230
16
Frame=11 idx=010732 GeodesicLength=0.5898786321177604 rxn_smarts="[N:1]([C:2](=[O:3])[C:4]([C:5]([C:6]([O:7][H:16])([H:14])[H:15])([H:12])[H:13])([H:10])[H:11])([H:8])[H:9]>>[N:1](/[C:2]([O:3][H:10])=[C:4](\[C:5]([C:6]([O:7][H:16])([H:14])[H:15])([H:12])[H:13])[H:11])([H:8])[H:9]"
N        1.31637199       0.40206824       1.48520732
C        1.20058736      -0.80215507       0.88717159
O        2.28494175      -1.34842365       0.43277741
C        0.11922833      -1.21732486       0.03753562
C       -1.17155327      -0.43549682      -0.09803540
C       -1.11883861       0.76166175      -1.02614011
O       -0.38929844       1.81286881      -0.39812338
H        2.23335043       0.64468490       1.81780111
H        0.73150272       1.15736038       1.16052807
H        1.43072349      -1.63061982      -0.63959439
H       -0.06206017      -2.28353307       0.16486027
H       -1.94747751      -1.10255030      -0.48326614
H       -1.53475194      -0.10012021       0.87990800
H       -0.64649265       0.48718946      -1.97674101
H       -2.13864087       1.10513147      -1.23942338
H       -0.30759263       2.54925880      -1.00446558
16
Frame=12 idx=010732 GeodesicLength=0.6424712516027532 rxn_smarts="[N:1]([C:2](=[O:3])[C:4]([C:5]([C:6]([O:7][H:16])([H:14])[H:15])([H:12])[H:13])([H:10])[H:11])([H:8])[H:9]>>[N:1](/[C:2]([O:3][H:10])=[C:4](\[C:5]([C:6]([O:7][H:16])([H:14])[H:15])([H:12])[H:13])[H:11])([H:8])[H:9]"
N        1.29939621       0.39620418       1.50096648
C        1.19357031      -0.81325498       0.90564164
O        2.28715529      -1.33834581       0.44648275
C        0.12622371      -1.21244693       0.03026569
C       -1.16702183      -0.43169827      -0.08950750
C       -1.12686391       0.75953268      -1.02598158
O       -0.36599531       1.80427709      -0.42581417
H        2.20991557       0.63156712       1.85585149
H        0.73552331       1.15565401       1.14987789
H        1.44174779      -1.59891901      -0.66045508
H       -0.05105027      -2.28306204       0.11789279
H       -1.95054400      -1.09950066      -0.45756870
H       -1.51213566      -0.09071402       0.89280701
H       -0.68516510       0.47335186      -1.98782013
H       -2.14841997       1.11376530      -1.21182826
H       -0.28633615       2.53358949      -1.04081030
16
Frame=13 idx=010732 GeodesicLength=0.6951481694000958 rxn_smarts="[N:1]([C:2](=[O:3])[C:4]([C:5]([C:6]([O:7][H:16])([H:14])[H:15])([H:12])[H:13])([H:10])[H:11])([H:8])[H:9]>>[N:1](/[C:2]([O:3][H:10])=[C:4](\[C:5]([C:6]([O:7][H:16])([H:14])[H:15])([H:12])[H:13])[H:11])([H:8])[H:9]"
N        1.28250929       0.39061620       1.51543407
C        1.18633236      -0.82433661       0.92347281
O        2.28888790      -1.32918661       0.46111559
C        0.13324883      -1.20750045       0.02316102
C       -1.16248088      -0.42818761      -0.08138454
C       -1.13478203       0.75769401      -1.02529769
O       -0.34341299       1.79489762      -0.45306384
H        2.18612029       0.61898567       1.89195021
H        0.74005996       1.15352233       1.13901353
H        1.45263619      -1.56714396      -0.68022991
H       -0.03984192      -2.28095152       0.07185463
H       -1.95272834      -1.09681096      -0.43306721
H       -1.49024386      -0.08215128       0.90487929
H       -0.72392145       0.46039284      -1.99736863
H       -2.15705176       1.12319074      -1.18380475
H       -0.26533157       2.51696958      -1.07666457
16
Frame=14 idx=010732 GeodesicLength=0.7478128196583148 rxn_smarts="[N:1]([C:2](=[O:3])[C:4]([C:5]([C:6]([O:7][H:16])([H:14])[H:15])([H:12])[H:13])([H:10])[H:11])([H:8])[H:9]>>[N:1](/[C:2]([O:3][H:10])=[C:4](\[C:5]([C:6]([O:7][H:16])([H:14])[H:15])([H:12])[H:13])[H:11])([H:8])[H:9]"
N        1.26584879       0.38533630       1.52857343
C        1.17889965      -0.83536228       0.94065989
O        2.29010962      -1.32102779       0.47651012
C        0.14026259      -1.20254756       0.01629296
C       -1.15794222      -0.42494332      -0.07369867
C       -1.14245154       0.75613663      -1.02415256
O       -0.32174863       1.78490581      -0.47957983
H        2.16223256       0.60713286       1.92568112
H        0.74502357       1.15097930       1.12808097
H        1.46323397      -1.53567701      -0.69893616
H       -0.02858148      -2.27737947       0.02714926
H       -1.95409234      -1.09443279      -0.40988971
H       -1.46913051      -0.07441778       0.91612727
H       -0.76217692       0.44841729      -2.00537700
H       -2.16446032       1.13317035      -1.15581470
H       -0.24502679       2.49970945      -1.11162641
16
Frame=15 idx=010732 GeodesicLength=0.8004918294925716 rxn_smarts="[N:1]([C:2](=[O:3])[C:4]([C:5]([C:6]([O:7][H:16])([H:14])[H:15])([H:12])[H:13])([H:10])[H:11])([H:8])[H:9]>>[N:1](/[C:2]([O:3][H:10])=[C:4](\[C:5]([C:6]([O:7][H:16])([H:14])[H:15])([H:12])[H:13])[H:11])([H:8])[H:9]"
N        1.24932945       0.38037157       1.54052216
C        1.17121209      -0.84626669       0.95721664
O        2.29082387      -1.31367229       0.49248891
C        0.14727013      -1.19749629       0.00959745
C       -1.15341538      -0.42196510      -0.06637065
C       -1.14990449       0.75481084      -1.02248200
O       -0.30081969       1.77432799      -0.50564305
H        2.13817551       0.59577881       1.95761148
H        0.75017205       1.14809839       1.11704359
H        1.47360332      -1.50416529      -0.71676178
H       -0.01719782      -2.27238974      -0.01655156
H       -1.95473335      -1.09240390      -0.38786224
H       -1.44873485      -0.06746354       0.92666542
H       -0.80021137       0.43723637      -2.01187336
H       -2.17063577       1.14362341      -1.12746868
H       -0.22493369       2.48157546      -1.14613232
16
Frame=16 idx=010732 GeodesicLength=0.853186663684113 rxn_smarts="[N:1]([C:2](=[O:3])[C:4]([C:5]([C:6]([O:7][H:16])([H:14])[H:15])([H:12])[H:13])([H:10])[H:11])([H:8])[H:9]>>[N:1](/[C:2]([O:3][H:10])=[C:4](\[C:5]([C:6]([O:7][H:16])([H:14])[H:15])([H:12])[H:13])[H:11])([H:8])[H:9]"
N        1.23312144       0.37570045       1.55132772
C        1.16337345      -0.85706606       0.97317943
O        2.29108356      -1.30719670       0.50892921
C        0.15423971      -1.19248098       0.00317864
C       -1.14891466      -0.41923498      -0.05942886
C       -1.15704800       0.75375052      -1.02042992
O       -0.28085315       1.76334270      -0.53095538
H        2.11430846       0.58516797       1.98729990
H        0.75540406       1.14485592       1.10617272
H        1.48357861      -1.47308117      -0.73375082
H       -0.00582892      -2.26620941      -0.05880737
H       -1.95470799      -1.09068385      -0.36710364
H       -1.42910041      -0.06125417       0.93652986
H       -0.83748321       0.42699890      -2.01697558
H       -2.17559670       1.15444374      -1.09938233
H       -0.20557625       2.46294712      -1.17978359
