13
Frame=0 idx=010137 GeodesicLength=0.0 rxn_smarts="[O:1]=[C:2]1[N:3]([H:8])[C:4]([H:9])([H:10])[C@@:5]2([H:11])[C:6]([H:12])([H:13])[N:7]12>>[O:1]=[C:2]([N:3]([C:4]([C@@:5]1([H:11])[C:6]([H:12])=[N:7]1)([H:9])[H:10])[H:8])[H:13]"
O        0.93243284       2.10689568       1.06230854
C        0.60993471       1.04990657       0.64349071
N        1.33679354      -0.03739494       0.15560110
C        0.51509028      -1.10092946      -0.39643621
C       -0.76430220      -0.40101343      -0.82631439
C       -1.27564729       0.59472000       0.09033634
N       -0.62462547       1.04967198      -0.99396222
H        2.00999483      -0.32514689       0.85071160
H        0.30408363      -1.89309874       0.33085002
H        1.02183839      -1.54497464      -1.25495927
H       -1.43825106      -0.94442326      -1.48124188
H       -2.17803469       0.90752863       0.60744262
H       -0.44930752       0.53825856       1.21217303
13
Frame=1 idx=010137 GeodesicLength=0.08235671568572057 rxn_smarts="[O:1]=[C:2]1[N:3]([H:8])[C:4]([H:9])([H:10])[C@@:5]2([H:11])[C:6]([H:12])([H:13])[N:7]12>>[O:1]=[C:2]([N:3]([C:4]([C@@:5]1([H:11])[C:6]([H:12])=[N:7]1)([H:9])[H:10])[H:8])[H:13]"
O        0.95760771       2.10186192       1.07550554
C        0.61729749       1.04947306       0.65547841
N        1.33313606      -0.03689199       0.15705427
C        0.51102158      -1.10066199      -0.39057399
C       -0.76705263      -0.40234139      -0.82702706
C       -1.29138959       0.59003040       0.08733139
N       -0.62623900       1.05039978      -0.98746176
H        2.04462032      -0.31341838       0.81653564
H        0.29900052      -1.88659626       0.34288973
H        1.01691030      -1.55176661      -1.24598848
H       -1.43190808      -0.94274820      -1.49338492
H       -2.20459571       0.90381715       0.58349491
H       -0.45840897       0.53884250       1.22614634
13
Frame=2 idx=010137 GeodesicLength=0.16462326413494638 rxn_smarts="[O:1]=[C:2]1[N:3]([H:8])[C:4]([H:9])([H:10])[C@@:5]2([H:11])[C:6]([H:12])([H:13])[N:7]12>>[O:1]=[C:2]([N:3]([C:4]([C@@:5]1([H:11])[C:6]([H:12])=[N:7]1)([H:9])[H:10])[H:8])[H:13]"
O        0.98332972       2.09629181       1.08925368
C        0.62492491       1.04892396       0.66797031
N        1.32939963      -0.03666888       0.15929253
C        0.50682822      -1.10046978      -0.38424176
C       -0.76969903      -0.40364134      -0.82763079
C       -1.30742365       0.58520120       0.08418085
N       -0.62771290       1.05115072      -0.98048135
H        2.07897414      -0.30057406       0.77940002
H        0.29356654      -1.88006291       0.35534142
H        1.01196747      -1.55871766      -1.23637033
H       -1.42504097      -0.94082854      -1.50567422
H       -2.23137297       0.89983789       0.55849357
H       -0.46774112       0.53955759       1.24046608
13
Frame=3 idx=010137 GeodesicLength=0.24678431772719406 rxn_smarts="[O:1]=[C:2]1[N:3]([H:8])[C:4]([H:9])([H:10])[C@@:5]2([H:11])[C:6]([H:12])([H:13])[N:7]12>>[O:1]=[C:2]([N:3]([C:4]([C@@:5]1([H:11])[C:6]([H:12])=[N:7]1)([H:9])[H:10])[H:8])[H:13]"
O        1.00962810       2.09015621       1.10358543
C        0.63284362       1.04825050       0.68099713
N        1.32561021      -0.03677482       0.16242139
C        0.50251948      -1.10036469      -0.37740955
C       -0.77221595      -0.40491692      -0.82811184
C       -1.32373776       0.58023051       0.08086953
N       -0.62901592       1.05191722      -0.97298934
H        2.11280058      -0.28648694       0.73906549
H        0.28775995      -1.87353208       0.36820368
H        1.00702793      -1.56582518      -1.22607549
H       -1.41760356      -0.93865945      -1.51809155
H       -2.25831556       0.89558492       0.53238440
H       -0.47730112       0.54042072       1.25515071
13
Frame=4 idx=010137 GeodesicLength=0.3288209840971277 rxn_smarts="[O:1]=[C:2]1[N:3]([H:8])[C:4]([H:9])([H:10])[C@@:5]2([H:11])[C:6]([H:12])([H:13])[N:7]12>>[O:1]=[C:2]([N:3]([C:4]([C@@:5]1([H:11])[C:6]([H:12])=[N:7]1)([H:9])[H:10])[H:8])[H:13]"
O        1.03652554       2.08341002       1.11855770
C        0.64108015       1.04743276       0.69460561
N        1.32179589      -0.03726667       0.16655471
C        0.49810176      -1.10036003      -0.37003359
C       -0.77456967      -0.40617023      -0.82845396
C       -1.34031562       0.57511664       0.07737773
N       -0.63010077       1.05268928      -0.96494672
H        2.14582505      -0.27099543       0.69520695
H        0.28154553      -1.86702922       0.38149242
H        1.00210855      -1.57309889      -1.21505158
H       -1.40953385      -0.93622844      -1.53062131
H       -2.28536889       0.89105925       0.50509003
H       -0.48709366       0.54144095       1.27022201
13
Frame=5 idx=010137 GeodesicLength=0.4106622537602769 rxn_smarts="[O:1]=[C:2]1[N:3]([H:8])[C:4]([H:9])([H:10])[C@@:5]2([H:11])[C:6]([H:12])([H:13])[N:7]12>>[O:1]=[C:2]([N:3]([C:4]([C@@:5]1([H:11])[C:6]([H:12])=[N:7]1)([H:9])[H:10])[H:8])[H:13]"
O        1.06404915       2.07597840       1.13422154
C        0.64965851       1.04643484       0.70883555
N        1.31799393      -0.03821582       0.17182261
C        0.49358292      -1.10047290      -0.36206387
C       -0.77671177      -0.40740211      -0.82864022
C       -1.35712549       0.56985963       0.07367534
N       -0.63089558       1.05344774      -0.95631604
H        2.17765685      -0.25385941       0.64747524
H        0.27487847      -1.86058723       0.39522543
H        0.99722091      -1.58055021      -1.20324476
H       -1.40074764      -0.93351532      -1.54324585
H       -2.31243404       0.88626623       0.47656322
H       -0.49712622       0.54261616       1.28569181
13
Frame=6 idx=010137 GeodesicLength=0.4924627094589793 rxn_smarts="[O:1]=[C:2]1[N:3]([H:8])[C:4]([H:9])([H:10])[C@@:5]2([H:11])[C:6]([H:12])([H:13])[N:7]12>>[O:1]=[C:2]([N:3]([C:4]([C@@:5]1([H:11])[C:6]([H:12])=[N:7]1)([H:9])[H:10])[H:8])[H:13]"
O        1.09227039       2.06783906       1.15071410
C        0.65863553       1.04524515       0.72377223
N        1.31430333      -0.03970526       0.17837437
C        0.48898628      -1.10075949      -0.35343771
C       -0.77861478      -0.40862010      -0.82867284
C       -1.37416954       0.56448054       0.06971663
N       -0.63134710       1.05422499      -0.94705803
H        2.20790740      -0.23480141       0.59541877
H        0.26772761      -1.85429774       0.40944043
H        0.99239633      -1.58826122      -1.19057475
H       -1.39120132      -0.93051991      -1.55598726
H       -2.33948495       0.88122769       0.44670329
H       -0.50740917       0.54394770       1.30159076
13
Frame=7 idx=010137 GeodesicLength=0.5738829523208119 rxn_smarts="[O:1]=[C:2]1[N:3]([H:8])[C:4]([H:9])([H:10])[C@@:5]2([H:11])[C:6]([H:12])([H:13])[N:7]12>>[O:1]=[C:2]([N:3]([C:4]([C@@:5]1([H:11])[C:6]([H:12])=[N:7]1)([H:9])[H:10])[H:8])[H:13]"
O        1.12112651       2.05880803       1.16811137
C        0.66800290       1.04376620       0.73948332
N        1.31070984      -0.04179039       0.18634781
C        0.48430398      -1.10117888      -0.34406408
C       -0.78015882      -0.40982377      -0.82850804
C       -1.39132375       0.55895212       0.06547587
N       -0.63130857       1.05491270      -0.93712421
H        2.23589119      -0.21356262       0.53842174
H        0.26002395      -1.84806250       0.42421523
H        0.98762075      -1.59620753      -1.17693068
H       -1.38067995      -0.92720306      -1.56879562
H       -2.36627628       0.87597535       0.41541704
H       -0.51793174       0.54541437       1.31795024
13
Frame=8 idx=010137 GeodesicLength=0.655813918148821 rxn_smarts="[O:1]=[C:2]1[N:3]([H:8])[C:4]([H:9])([H:10])[C@@:5]2([H:11])[C:6]([H:12])([H:13])[N:7]12>>[O:1]=[C:2]([N:3]([C:4]([C@@:5]1([H:11])[C:6]([H:12])=[N:7]1)([H:9])[H:10])[H:8])[H:13]"
O        1.15080313       2.04897859       1.18696360
C        0.67787497       1.04201548       0.75632944
N        1.30747792      -0.04466281       0.19606279
C        0.47959955      -1.10199090      -0.33381174
C       -0.78134666      -0.41109681      -0.82818081
C       -1.40875222       0.55341388       0.06088311
N       -0.63065009       1.05559605      -0.92638139
H        2.26141824      -0.18946848       0.47520411
H        0.25164770      -1.84215331       0.43963721
H        0.98306387      -1.60487121      -1.16214936
H       -1.36913752      -0.92366004      -1.58188443
H       -2.39310280       0.87078657       0.38242551
H       -0.52889611       0.54711300       1.33490196
13
Frame=9 idx=010137 GeodesicLength=0.7362800759490432 rxn_smarts="[O:1]=[C:2]1[N:3]([H:8])[C:4]([H:9])([H:10])[C@@:5]2([H:11])[C:6]([H:12])([H:13])[N:7]12>>[O:1]=[C:2]([N:3]([C:4]([C@@:5]1([H:11])[C:6]([H:12])=[N:7]1)([H:9])[H:10])[H:8])[H:13]"
O        1.18108057       2.03753827       1.20670938
C        0.68818791       1.03959700       0.77383418
N        1.30450493      -0.04830329       0.20726832
C        0.47482158      -1.10277290      -0.32256324
C       -0.78183616      -0.41221837      -0.82756654
C       -1.42580033       0.54765202       0.05583089
N       -0.62912517       1.05611179      -0.91498875
H        2.28191692      -0.16216465       0.40619550
H        0.24269015      -1.83610124       0.45591390
H        0.97832944      -1.61356810      -1.14599712
H       -1.35615909      -0.91952432      -1.59475620
H       -2.41875781       0.86516796       0.34792678
H       -0.53985294       0.54858582       1.35219290
13
Frame=10 idx=010137 GeodesicLength=0.8177648726992536 rxn_smarts="[O:1]=[C:2]1[N:3]([H:8])[C:4]([H:9])([H:10])[C@@:5]2([H:11])[C:6]([H:12])([H:13])[N:7]12>>[O:1]=[C:2]([N:3]([C:4]([C@@:5]1([H:11])[C:6]([H:12])=[N:7]1)([H:9])[H:10])[H:8])[H:13]"
O        1.21244869       2.02526646       1.22808517
C        0.69929627       1.03688905       0.79240311
N        1.30264500      -0.05272588       0.21993339
C        0.47029783      -1.10404060      -0.31042508
C       -0.78181110      -0.41340681      -0.82680794
C       -1.44306099       0.54197667       0.05032776
N       -0.62682868       1.05685382      -0.90275516
H        2.29716493      -0.13154245       0.33093005
H        0.23327180      -1.83058730       0.47288977
H        0.97401944      -1.62329536      -1.12863546
H       -1.34203269      -0.91522438      -1.60777619
H       -2.44429390       0.85973492       0.31180045
H       -0.55111660       0.55010186       1.37003013
13
Frame=11 idx=010137 GeodesicLength=0.8981784465269638 rxn_smarts="[O:1]=[C:2]1[N:3]([H:8])[C:4]([H:9])([H:10])[C@@:5]2([H:11])[C:6]([H:12])([H:13])[N:7]12>>[O:1]=[C:2]([N:3]([C:4]([C@@:5]1([H:11])[C:6]([H:12])=[N:7]1)([H:9])[H:10])[H:8])[H:13]"
O        1.24460111       2.01154835       1.25022171
C        0.71116236       1.03364023       0.81146176
N        1.30167669      -0.05721925       0.23295997
C        0.46592683      -1.10495777      -0.29762409
C       -0.78109556      -0.41462129      -0.82582717
C       -1.45976254       0.53591753       0.04450281
N       -0.62400079       1.05707233      -0.88980327
H        2.30443153      -0.09881560       0.25197975
H        0.22395034      -1.82420737       0.49058173
H        0.96942359      -1.63312448      -1.11034126
H       -1.32638873      -0.91059696      -1.62075952
H       -2.46822698       0.85388386       0.27436953
H       -0.56169785       0.55148040       1.38827806
13
Frame=12 idx=010137 GeodesicLength=0.9791140438648177 rxn_smarts="[O:1]=[C:2]1[N:3]([H:8])[C:4]([H:9])([H:10])[C@@:5]2([H:11])[C:6]([H:12])([H:13])[N:7]12>>[O:1]=[C:2]([N:3]([C:4]([C@@:5]1([H:11])[C:6]([H:12])=[N:7]1)([H:9])[H:10])[H:8])[H:13]"
O        1.27800059       1.99706483       1.27292244
C        0.72406746       1.03026044       0.83069731
N        1.30225600      -0.06143110       0.24527847
C        0.46197115      -1.10574571      -0.28458446
C       -0.77992110      -0.41590114      -0.82474594
C       -1.47638894       0.52961396       0.03847725
N       -0.62100697       1.05733158      -0.87608094
H        2.30372488      -0.06484697       0.17179570
H        0.21506729      -1.81738679       0.50869027
H        0.96487319      -1.64350996      -1.09159155
H       -1.30963873      -0.90587048      -1.63370006
H       -2.49135077       0.84767308       0.23597750
H       -0.57165406       0.55274824       1.40686404
13
Frame=13 idx=010137 GeodesicLength=1.0599076098660871 rxn_smarts="[O:1]=[C:2]1[N:3]([H:8])[C:4]([H:9])([H:10])[C@@:5]2([H:11])[C:6]([H:12])([H:13])[N:7]12>>[O:1]=[C:2]([N:3]([C:4]([C@@:5]1([H:11])[C:6]([H:12])=[N:7]1)([H:9])[H:10])[H:8])[H:13]"
O        1.31266901       1.98189312       1.29464827
C        0.73803935       1.02697312       0.84898288
N        1.30431310      -0.06468120       0.25530667
C        0.45855647      -1.10589634      -0.27193838
C       -0.77859795      -0.41699778      -0.82363144
C       -1.49307582       0.52283980       0.03242415
N       -0.61887715       1.05781737      -0.86186330
H        2.29565501      -0.03209405       0.09578270
H        0.20747190      -1.80965723       0.52680708
H        0.96027071      -1.65358546      -1.07310590
H       -1.29241011      -0.90081260      -1.64618649
H       -2.51368584       0.84043734       0.19733739
H       -0.58032868       0.55376390       1.42543639
13
Frame=14 idx=010137 GeodesicLength=1.1411131520908533 rxn_smarts="[O:1]=[C:2]1[N:3]([H:8])[C:4]([H:9])([H:10])[C@@:5]2([H:11])[C:6]([H:12])([H:13])[N:7]12>>[O:1]=[C:2]([N:3]([C:4]([C@@:5]1([H:11])[C:6]([H:12])=[N:7]1)([H:9])[H:10])[H:8])[H:13]"
O        1.34874475       1.96643575       1.31530098
C        0.75309343       1.02399011       0.86648079
N        1.30754302      -0.06684155       0.26315980
C        0.45549884      -1.10542825      -0.25983277
C       -0.77734378      -0.41808700      -0.82255178
C       -1.51005335       0.51546287       0.02641081
N       -0.61773975       1.05831331      -0.84706062
H        2.28185915      -0.00100960       0.02447932
H        0.20094359      -1.80096796       0.54474437
H        0.95554310      -1.66328532      -1.05520336
H       -1.27479590      -0.89556395      -1.65859111
H       -2.53544643       0.83217401       0.15846099
H       -0.58784667       0.55480757       1.44420258
13
Frame=15 idx=010137 GeodesicLength=1.2224776430309852 rxn_smarts="[O:1]=[C:2]1[N:3]([H:8])[C:4]([H:9])([H:10])[C@@:5]2([H:11])[C:6]([H:12])([H:13])[N:7]12>>[O:1]=[C:2]([N:3]([C:4]([C@@:5]1([H:11])[C:6]([H:12])=[N:7]1)([H:9])[H:10])[H:8])[H:13]"
O        1.38619697       1.95071761       1.33448251
C        0.76913090       1.02140089       0.88297164
N        1.31161985      -0.06796786       0.26884720
C        0.45273197      -1.10433318      -0.24836777
C       -0.77628431      -0.41908795      -0.82153075
C       -1.52750657       0.50745400       0.02041963
N       -0.61785678       1.05892136      -0.83168820
H        2.26385134       0.02801258      -0.04122748
H        0.19546064      -1.79142022       0.56235272
H        0.95073431      -1.67240486      -1.03798923
H       -1.25698210      -0.88999423      -1.67083460
H       -2.55681709       0.82277338       0.11946046
H       -0.59427913       0.55592847       1.46310388
13
Frame=16 idx=010137 GeodesicLength=1.3039010881976638 rxn_smarts="[O:1]=[C:2]1[N:3]([H:8])[C:4]([H:9])([H:10])[C@@:5]2([H:11])[C:6]([H:12])([H:13])[N:7]12>>[O:1]=[C:2]([N:3]([C:4]([C@@:5]1([H:11])[C:6]([H:12])=[N:7]1)([H:9])[H:10])[H:8])[H:13]"
O        1.42498497       1.93473042       1.35212287
C        0.78608119       1.01921213       0.89852468
N        1.31625195      -0.06820707       0.27272177
C        0.45014125      -1.10265587      -0.23747999
C       -0.77547035      -0.41999854      -0.82057054
C       -1.54553205       0.49877052       0.01438907
N       -0.61924823       1.05959662      -0.81566972
H        2.24271548       0.05510821      -0.10169652
H        0.19081895      -1.78109882       0.57960488
H        0.94583112      -1.68088151      -1.02139542
H       -1.23896043      -0.88400599      -1.68298450
H       -2.57785407       0.81224916       0.08024671
H       -0.59975977       0.55718075       1.48218671
