16
Frame=0 idx=005171 GeodesicLength=0.0 rxn_smarts="[C:1]([O:2][C:3]([C:4]([C:5]([O:6][H:16])([H:14])[H:15])([H:12])[H:13])([H:10])[H:11])([H:7])([H:8])[H:9]>>[C:1]([O:2][C:3]([C:4]([C:5][H:15])([H:12])[H:13])([H:10])[H:11])([H:7])([H:8])[H:9].[O:6]([H:14])[H:16]"
C        1.92800862       0.75595373      -0.93244991
O        0.59826548       0.31249572      -0.81400564
C        0.45238579      -0.78311628       0.07841295
C       -1.03186485      -1.08916790       0.19171626
C       -1.87836528      -0.19027938       1.04265367
O       -1.45523869       1.51142701       0.53023739
H        2.57989967      -0.05075623      -1.28782895
H        1.94155994       1.56880501      -1.65679028
H        2.31215497       1.12323474       0.02668309
H        0.87417642      -0.52314927       1.05921215
H        1.00873082      -1.64339101      -0.31816635
H       -1.43598039      -1.18992545      -0.82074328
H       -1.15562119      -2.07211324       0.66494278
H       -2.37991793       1.03312619       0.42541563
H       -1.47028192      -0.11010082       2.05292513
H       -0.88791143       1.34695717      -0.24221459
16
Frame=1 idx=005171 GeodesicLength=0.06294144620781636 rxn_smarts="[C:1]([O:2][C:3]([C:4]([C:5]([O:6][H:16])([H:14])[H:15])([H:12])[H:13])([H:10])[H:11])([H:7])([H:8])[H:9]>>[C:1]([O:2][C:3]([C:4]([C:5][H:15])([H:12])[H:13])([H:10])[H:11])([H:7])([H:8])[H:9].[O:6]([H:14])[H:16]"
C        1.93116395       0.75637871      -0.92853435
O        0.59993251       0.31839023      -0.80689746
C        0.45322589      -0.78491856       0.07610240
C       -1.03139238      -1.08652012       0.19516542
C       -1.86908669      -0.17792475       1.04610347
O       -1.46985424       1.50268394       0.52084425
H        2.57685624      -0.04971685      -1.29637007
H        1.94469459       1.57688519      -1.64419498
H        2.32267556       1.11124554       0.03229686
H        0.88174389      -0.53594312       1.05688324
H        1.00425377      -1.64373640      -0.33101643
H       -1.44034536      -1.18849782      -0.81523934
H       -1.15561974      -2.06757064       0.67171174
H       -2.40567854       1.01899564       0.41147831
H       -1.45471705      -0.09505650       2.05393830
H       -0.88785239       1.34530550      -0.24227138
16
Frame=2 idx=005171 GeodesicLength=0.12586070244349046 rxn_smarts="[C:1]([O:2][C:3]([C:4]([C:5]([O:6][H:16])([H:14])[H:15])([H:12])[H:13])([H:10])[H:11])([H:7])([H:8])[H:9]>>[C:1]([O:2][C:3]([C:4]([C:5][H:15])([H:12])[H:13])([H:10])[H:11])([H:7])([H:8])[H:9].[O:6]([H:14])[H:16]"
C        1.93432641       0.75679014      -0.92456787
O        0.60163939       0.32425843      -0.79973219
C        0.45398972      -0.78667556       0.07376236
C       -1.03096655      -1.08385031       0.19857051
C       -1.85995870      -0.16551385       1.04919940
O       -1.48416997       1.49400883       0.51115564
H        2.57375978      -0.04853058      -1.30479585
H        1.94796573       1.58486550      -1.63146070
H        2.33311459       1.09917529       0.03780388
H        0.88908749      -0.54868611       1.05442209
H        0.99966624      -1.64392754      -0.34382339
H       -1.44469006      -1.18719943      -0.80976543
H       -1.15561178      -2.06294175       0.67855826
H       -2.43119308       1.00407875       0.39861647
H       -1.43916415      -0.07960977       2.05446540
H       -0.88779507       1.34375795      -0.24240859
16
Frame=3 idx=005171 GeodesicLength=0.1887562905505804 rxn_smarts="[C:1]([O:2][C:3]([C:4]([C:5]([O:6][H:16])([H:14])[H:15])([H:12])[H:13])([H:10])[H:11])([H:7])([H:8])[H:9]>>[C:1]([O:2][C:3]([C:4]([C:5][H:15])([H:12])[H:13])([H:10])[H:11])([H:7])([H:8])[H:9].[O:6]([H:14])[H:16]"
C        1.93749592       0.75717911      -0.92055050
O        0.60339081       0.33010416      -0.79250468
C        0.45467793      -0.78837741       0.07139516
C       -1.03057807      -1.08115001       0.20192594
C       -1.85097773      -0.15304925       1.05193794
O       -1.49819771       1.48537640       0.50116565
H        2.57059717      -0.04720755      -1.31311888
H        1.95137795       1.59273728      -1.61858060
H        2.34347933       1.08700083       0.04320545
H        0.89619881      -0.56136805       1.05183640
H        0.99497073      -1.64395168      -0.35658235
H       -1.44899698      -1.18601864      -0.80432925
H       -1.15558575      -2.05821342       0.68547098
H       -2.45650402       0.98838047       0.38685511
H       -1.42362588      -0.06375449       2.05449438
H       -0.88772251       1.34231226      -0.24262076
16
Frame=4 idx=005171 GeodesicLength=0.2516525279834294 rxn_smarts="[C:1]([O:2][C:3]([C:4]([C:5]([O:6][H:16])([H:14])[H:15])([H:12])[H:13])([H:10])[H:11])([H:7])([H:8])[H:9]>>[C:1]([O:2][C:3]([C:4]([C:5][H:15])([H:12])[H:13])([H:10])[H:11])([H:7])([H:8])[H:9].[O:6]([H:14])[H:16]"
C        1.94068807       0.75754847      -0.91646178
O        0.60519641       0.33593286      -0.78520157
C        0.45529199      -0.79003541       0.06898898
C       -1.03022981      -1.07841894       0.20524727
C       -1.84213162      -0.14051908       1.05433597
O       -1.51199011       1.47677304       0.49080703
H        2.56736808      -0.04572518      -1.32137911
H        1.95494284       1.60054932      -1.60547734
H        2.35380858       1.07466031       0.04852742
H        0.90309967      -0.57403572       1.04911291
H        0.99015390      -1.64381353      -0.36933818
H       -1.45328319      -1.18496419      -0.79890612
H       -1.15554483      -2.05337907       0.69247895
H       -2.48168889       0.97187995       0.37620095
H       -1.40804103      -0.04741870       2.05400709
H       -0.88764005       1.34096587      -0.24294248
16
Frame=5 idx=005171 GeodesicLength=0.3145502314756708 rxn_smarts="[C:1]([O:2][C:3]([C:4]([C:5]([O:6][H:16])([H:14])[H:15])([H:12])[H:13])([H:10])[H:11])([H:7])([H:8])[H:9]>>[C:1]([O:2][C:3]([C:4]([C:5][H:15])([H:12])[H:13])([H:10])[H:11])([H:7])([H:8])[H:9].[O:6]([H:14])[H:16]"
C        1.94391347       0.75789478      -0.91230316
O        0.60706034       0.34175488      -0.77781339
C        0.45583685      -0.79164582       0.06654928
C       -1.02991970      -1.07565996       0.20853099
C       -1.83342753      -0.12792353       1.05638524
O       -1.52557482       1.46818780       0.48006225
H        2.56406127      -0.04409233      -1.32960602
H        1.95867263       1.60831512      -1.59213163
H        2.36414310       1.06212281       0.05376699
H        0.90979589      -0.58668196       1.04626338
H        0.98522398      -1.64351418      -0.38208315
H       -1.45754821      -1.18404289      -0.79350366
H       -1.15548069      -2.04844382       0.69957977
H       -2.50679941       0.95458483       0.36668595
H       -1.39241380      -0.03058958       2.05298664
H       -0.88754337       1.33973384      -0.24336950
16
Frame=6 idx=005171 GeodesicLength=0.3774540586028676 rxn_smarts="[C:1]([O:2][C:3]([C:4]([C:5]([O:6][H:16])([H:14])[H:15])([H:12])[H:13])([H:10])[H:11])([H:7])([H:8])[H:9]>>[C:1]([O:2][C:3]([C:4]([C:5][H:15])([H:12])[H:13])([H:10])[H:11])([H:7])([H:8])[H:9].[O:6]([H:14])[H:16]"
C        1.94717517       0.75821159      -0.90807676
O        0.60898683       0.34757107      -0.77033781
C        0.45631307      -0.79320161       0.06407891
C       -1.02964470      -1.07286990       0.21177044
C       -1.82487058      -0.11526486       1.05807345
O       -1.53895658       1.45959466       0.46891976
H        2.56067383      -0.04231115      -1.33780368
H        1.96257589       1.61602475      -1.57854048
H        2.37448719       1.04937578       0.05891574
H        0.91627832      -0.59929163       1.04329333
H        0.98018796      -1.64304442      -0.39480587
H       -1.46178338      -1.18325121      -0.78812883
H       -1.15538937      -2.04340106       0.70676528
H       -2.53186280       0.93650383       0.35835869
H       -1.37675675      -0.01326888       2.05141022
H       -0.88741410       1.33862303      -0.24389239
16
Frame=7 idx=005171 GeodesicLength=0.4403642856120613 rxn_smarts="[C:1]([O:2][C:3]([C:4]([C:5]([O:6][H:16])([H:14])[H:15])([H:12])[H:13])([H:10])[H:11])([H:7])([H:8])[H:9]>>[C:1]([O:2][C:3]([C:4]([C:5][H:15])([H:12])[H:13])([H:10])[H:11])([H:7])([H:8])[H:9].[O:6]([H:14])[H:16]"
C        1.95047900       0.75849558      -0.90378514
O        0.61098047       0.35338268      -0.76277240
C        0.45672262      -0.79469997       0.06158003
C       -1.02940410      -1.07004831       0.21496131
C       -1.81646900      -0.10254406       1.05939050
O       -1.55214913       1.45097492       0.45736650
H        2.55720696      -0.04038214      -1.34597600
H        1.96666262       1.62367180      -1.56470376
H        2.38484782       1.03641163       0.06396491
H        0.92254373      -0.61185802       1.04020834
H        0.97505252      -1.64240157      -0.40750000
H       -1.46598489      -1.18258880      -0.78278703
H       -1.15526965      -2.03824942       0.71402981
H       -2.55690282       0.91764204       0.35125758
H       -1.36108368       0.00454598       2.04925806
H       -0.88723247       1.33764768      -0.24449271
16
Frame=8 idx=005171 GeodesicLength=0.503283494317281 rxn_smarts="[C:1]([O:2][C:3]([C:4]([C:5]([O:6][H:16])([H:14])[H:15])([H:12])[H:13])([H:10])[H:11])([H:7])([H:8])[H:9]>>[C:1]([O:2][C:3]([C:4]([C:5][H:15])([H:12])[H:13])([H:10])[H:11])([H:7])([H:8])[H:9].[O:6]([H:14])[H:16]"
C        1.95382742       0.75874377      -0.89942905
O        0.61304380       0.35918822      -0.75511752
C        0.45706639      -0.79613924       0.05905311
C       -1.02919776      -1.06719533       0.21809723
C       -1.80822920      -0.08976174       1.06032455
O       -1.56515871       1.44230793       0.44538701
H        2.55366481      -0.03830523      -1.35411577
H        1.97093919       1.63124492      -1.55062563
H        2.39522132       1.02323224       0.06890868
H        0.92858787      -0.62437373       1.03701264
H        0.96982350      -1.64158436      -0.42015986
H       -1.47015091      -1.18205616      -0.77748536
H       -1.15512116      -2.03298750       0.72136594
H       -2.58193330       0.89800846       0.34542851
H       -1.34540529       0.02285576       2.04650770
H       -0.88697797       1.33682200      -0.24515216
16
Frame=9 idx=005171 GeodesicLength=0.5662156435834774 rxn_smarts="[C:1]([O:2][C:3]([C:4]([C:5]([O:6][H:16])([H:14])[H:15])([H:12])[H:13])([H:10])[H:11])([H:7])([H:8])[H:9]>>[C:1]([O:2][C:3]([C:4]([C:5][H:15])([H:12])[H:13])([H:10])[H:11])([H:7])([H:8])[H:9].[O:6]([H:14])[H:16]"
C        1.95722852       0.75895659      -0.89501076
O        0.61518015       0.36498742      -0.74737480
C        0.45734640      -0.79752098       0.05649860
C       -1.02903028      -1.06431523       0.22117393
C       -1.80016377      -0.07691929       1.06086398
O       -1.57799395       1.43357638       0.43296140
H        2.55005972      -0.03607790      -1.36221841
H        1.97541659       1.63874159      -1.53631080
H        2.40561170       1.00984113       0.07374016
H        0.93441069      -0.63683484       1.03370997
H        0.96450932      -1.64059698      -0.43277952
H       -1.47428791      -1.18165879      -0.77222750
H       -1.15494848      -2.02762062       0.72877104
H       -2.60697001       0.87761631       0.34092095
H       -1.32973455       0.04165971       2.04313489
H       -0.88663414       1.33616548      -0.24585313
16
Frame=10 idx=005171 GeodesicLength=0.629160480670675 rxn_smarts="[C:1]([O:2][C:3]([C:4]([C:5]([O:6][H:16])([H:14])[H:15])([H:12])[H:13])([H:10])[H:11])([H:7])([H:8])[H:9]>>[C:1]([O:2][C:3]([C:4]([C:5][H:15])([H:12])[H:13])([H:10])[H:11])([H:7])([H:8])[H:9].[O:6]([H:14])[H:16]"
C        1.96066974       0.75912576      -0.89052523
O        0.61738876       0.37077962      -0.73953960
C        0.45755913      -0.79883493       0.05391578
C       -1.02889113      -1.06139796       0.22418453
C       -1.79226554      -0.06401208       1.06099326
O       -1.59065707       1.42473996       0.42006499
H        2.54636527      -0.03370034      -1.37028683
H        1.98009082       1.64614756      -1.52174184
H        2.41600526       0.99621752       0.07846126
H        0.93999695      -0.64923087       1.03030549
H        0.95910558      -1.63942215      -0.44536001
H       -1.47837349      -1.18139204      -0.76702163
H       -1.15473951      -2.02212424       0.73623946
H       -2.63198924       0.85645872       0.33777541
H       -1.31408679       0.06096975       2.03911095
H       -0.88617873       1.33567570      -0.24657600
16
Frame=11 idx=005171 GeodesicLength=0.6921406592083896 rxn_smarts="[C:1]([O:2][C:3]([C:4]([C:5]([O:6][H:16])([H:14])[H:15])([H:12])[H:13])([H:10])[H:11])([H:7])([H:8])[H:9]>>[C:1]([O:2][C:3]([C:4]([C:5][H:15])([H:12])[H:13])([H:10])[H:11])([H:7])([H:8])[H:9].[O:6]([H:14])[H:16]"
C        1.96416801       0.75925538      -0.88594897
O        0.61967569       0.37657682      -0.73158468
C        0.45770815      -0.80009259       0.05129744
C       -1.02878503      -1.05845291       0.22714832
C       -1.78454245      -0.05102101       1.06070815
O       -1.60320227       1.41578350       0.40659744
H        2.54255893      -0.03113084      -1.37840382
H        1.98497519       1.65353844      -1.50678702
H        2.42647150       0.98224979       0.08308652
H        0.94536892      -0.66160241       1.02678924
H        0.95360859      -1.63806524      -0.45794034
H       -1.48242721      -1.18129650      -0.76183855
H       -1.15449070      -2.01649733       0.74382180
H       -2.65703398       0.83451293       0.33602817
H       -1.29841268       0.08087305       2.03439049
H       -0.88564067       1.33536892      -0.24736419
16
Frame=12 idx=005171 GeodesicLength=0.7551327386274427 rxn_smarts="[C:1]([O:2][C:3]([C:4]([C:5]([O:6][H:16])([H:14])[H:15])([H:12])[H:13])([H:10])[H:11])([H:7])([H:8])[H:9]>>[C:1]([O:2][C:3]([C:4]([C:5][H:15])([H:12])[H:13])([H:10])[H:11])([H:7])([H:8])[H:9].[O:6]([H:14])[H:16]"
C        1.96771282       0.75934534      -0.88131188
O        0.62203512       0.38235686      -0.72355025
C        0.45779254      -0.80128974       0.04865164
C       -1.02871800      -1.05548549       0.23003426
C       -1.77701890      -0.03797086       1.05997882
O       -1.61556266       1.40668928       0.39263279
H        2.53869421      -0.02840197      -1.38645434
H        1.99006694       1.66081982      -1.49160748
H        2.43691950       0.96808655       0.08758330
H        0.95049869      -0.67389374       1.02317949
H        0.94804197      -1.63653589      -0.47046378
H       -1.48644340      -1.18135117      -0.75671840
H       -1.15421637      -2.01075796       0.75145817
H       -2.68203339       0.81185323       0.33574296
H       -1.28281164       0.10125834       2.02896676
H       -0.88495744       1.33527739      -0.24812204
16
Frame=13 idx=005171 GeodesicLength=0.8181240003396832 rxn_smarts="[C:1]([O:2][C:3]([C:4]([C:5]([O:6][H:16])([H:14])[H:15])([H:12])[H:13])([H:10])[H:11])([H:7])([H:8])[H:9]>>[C:1]([O:2][C:3]([C:4]([C:5][H:15])([H:12])[H:13])([H:10])[H:11])([H:7])([H:8])[H:9].[O:6]([H:14])[H:16]"
C        1.97128673       0.75939008      -0.87664332
O        0.62445589       0.38809289      -0.71547525
C        0.45781181      -0.80241893       0.04598812
C       -1.02869348      -1.05249876       0.23281188
C       -1.76972681      -0.02488950       1.05877759
O       -1.62765415       1.39744955       0.37825117
H        2.53481865      -0.02554925      -1.39434208
H        1.99534371       1.66790103      -1.47634989
H        2.44725608       0.95386257       0.09192540
H        0.95535822      -0.68603951       1.01949586
H        0.94243810      -1.63483891      -0.48287085
H       -1.49040982      -1.18153422      -0.75170150
H       -1.15392728      -2.00492016       0.75908858
H       -2.70690151       0.78855795       0.33695459
H       -1.26738366       0.12200366       2.02284864
H       -0.88407250       1.33543151      -0.24875894
16
Frame=14 idx=005171 GeodesicLength=0.8811340340233975 rxn_smarts="[C:1]([O:2][C:3]([C:4]([C:5]([O:6][H:16])([H:14])[H:15])([H:12])[H:13])([H:10])[H:11])([H:7])([H:8])[H:9]>>[C:1]([O:2][C:3]([C:4]([C:5][H:15])([H:12])[H:13])([H:10])[H:11])([H:7])([H:8])[H:9].[O:6]([H:14])[H:16]"
C        1.97489636       0.75939431      -0.87191378
O        0.62694149       0.39380041      -0.70732851
C        0.45776563      -0.80348764       0.04329918
C       -1.02871043      -1.04949720       0.23550197
C       -1.76265916      -0.01175455       1.05709888
O       -1.63952052       1.38803374       0.36334656
H        2.53088844      -0.02252761      -1.40215617
H        2.00081067       1.67486382      -1.46086669
H        2.45755128       0.93945074       0.09613680
H        0.95996290      -0.69808389       1.01573199
H        0.93678160      -1.63297119      -0.49520747
H       -1.49433702      -1.18188524      -0.74675633
H       -1.15361353      -1.99896787       0.76676835
H       -2.73164119       0.76460704       0.33969596
H       -1.25208508       0.14319812       2.01598723
H       -0.88303145       1.33582703      -0.24933797
16
Frame=15 idx=005171 GeodesicLength=0.9441426582159919 rxn_smarts="[C:1]([O:2][C:3]([C:4]([C:5]([O:6][H:16])([H:14])[H:15])([H:12])[H:13])([H:10])[H:11])([H:7])([H:8])[H:9]>>[C:1]([O:2][C:3]([C:4]([C:5][H:15])([H:12])[H:13])([H:10])[H:11])([H:7])([H:8])[H:9].[O:6]([H:14])[H:16]"
C        1.97852239       0.75935831      -0.86715077
O        0.62947904       0.39945170      -0.69915423
C        0.45765382      -0.80449177       0.04059403
C       -1.02877247      -1.04648713       0.23807720
C       -1.75584265       0.00140720       1.05491826
O       -1.65106960       1.37844471       0.34800453
H        2.52694727      -0.01937030      -1.40980460
H        2.00644439       1.68163350      -1.44529737
H        2.46771437       0.92498349       0.10019877
H        0.96428784      -0.70996598       1.01190880
H        0.93110134      -1.63094566      -0.50741571
H       -1.49821631      -1.18238650      -0.74191864
H       -1.15328666      -1.99291917       0.77444062
H       -2.75614786       0.74009397       0.34398998
H       -1.23701853       0.16471293       2.00839941
H       -0.88179639       1.33648069      -0.24979028
16
Frame=16 idx=005171 GeodesicLength=1.0071714652752939 rxn_smarts="[C:1]([O:2][C:3]([C:4]([C:5]([O:6][H:16])([H:14])[H:15])([H:12])[H:13])([H:10])[H:11])([H:7])([H:8])[H:9]>>[C:1]([O:2][C:3]([C:4]([C:5][H:15])([H:12])[H:13])([H:10])[H:11])([H:7])([H:8])[H:9].[O:6]([H:14])[H:16]"
C        1.98216053       0.75928474      -0.86232852
O        0.63206691       0.40505409      -0.69093064
C        0.45747317      -0.80543569       0.03786497
C       -1.02887643      -1.04346967       0.24055566
C       -1.74927312       0.01461251       1.05222799
O       -1.66230128       1.36865683       0.33216168
H        2.52295828      -0.01603464      -1.41735106
H        2.01223539       1.68826786      -1.42951942
H        2.47778096       0.91036320       0.10413134
H        0.96833927      -0.72171897       1.00801887
H        0.92538455      -1.62875203      -0.51953621
H       -1.50205078      -1.18307069      -0.73715948
H       -1.15293720      -1.98675202       0.78215413
H       -2.78037569       0.71502077       0.34985171
H       -1.22216581       0.18659885       2.00005011
H       -0.88041875       1.33737486      -0.25019111
