9
Frame=0 idx=005598 GeodesicLength=0.0 rxn_smarts="[N:1](=[C:2](/[N:3]([C:4](=[O:5])[H:9])[H:8])[H:7])\[H:6]>>[N:1](/[C:2](=[N:3]/[C:4](=[O:5])[H:9])[H:7])([H:6])[H:8]"
N       -0.94602278       0.85180464       1.22003549
C       -0.76174191       0.02775089       0.24034613
N        0.54964091       0.09961870      -0.02547206
C        1.18983785      -0.60415460      -1.00819789
O        0.66190455      -1.38730632      -1.76324989
H       -1.83802523       1.02349264       1.65535328
H       -1.48439498      -0.59610883      -0.27517168
H        0.36060012       0.96806442       1.00510332
H        2.26820143      -0.38316156      -1.04874674
9
Frame=1 idx=005598 GeodesicLength=0.04113807405359716 rxn_smarts="[N:1](=[C:2](/[N:3]([C:4](=[O:5])[H:9])[H:8])[H:7])\[H:6]>>[N:1](/[C:2](=[N:3]/[C:4](=[O:5])[H:9])[H:7])([H:6])[H:8]"
N       -0.94572222       0.86106583       1.21793689
C       -0.75392313       0.00150963       0.26937173
N        0.52933753       0.15679812      -0.08209983
C        1.18108200      -0.60650707      -1.01115511
O        0.65958046      -1.26601093      -1.87900582
H       -1.83660376       1.00736816       1.66465830
H       -1.46104744      -0.67672955      -0.19682026
H        0.35044362       1.04489877       0.94255345
H        2.27685293      -0.52239297      -0.92543936
9
Frame=2 idx=005598 GeodesicLength=0.08915704200080213 rxn_smarts="[N:1](=[C:2](/[N:3]([C:4](=[O:5])[H:9])[H:8])[H:7])\[H:6]>>[N:1](/[C:2](=[N:3]/[C:4](=[O:5])[H:9])[H:7])([H:6])[H:8]"
N       -0.94603094       0.87218659       1.21264781
C       -0.73846749      -0.02342159       0.30008243
N        0.51516166       0.19344366      -0.11941605
C        1.16942443      -0.60043520      -1.02134798
O        0.67315227      -1.14058224      -1.98064249
H       -1.83752009       0.99548952       1.66508476
H       -1.42363229      -0.75266571      -0.11999107
H        0.33603206       1.11742553       0.88229228
H        2.25188041      -0.66144056      -0.81870970
9
Frame=3 idx=005598 GeodesicLength=0.14212120684230306 rxn_smarts="[N:1](=[C:2](/[N:3]([C:4](=[O:5])[H:9])[H:8])[H:7])\[H:6]>>[N:1](/[C:2](=[N:3]/[C:4](=[O:5])[H:9])[H:7])([H:6])[H:8]"
N       -0.94602546       0.88099018       1.20863829
C       -0.72000024      -0.04163523       0.32650912
N        0.50483881       0.22253123      -0.14782924
C        1.15941187      -0.58987788      -1.03386787
O        0.70145379      -1.02384144      -2.06283209
H       -1.83817190       0.98061697       1.66555974
H       -1.37823324      -0.81816083      -0.05000310
H        0.31687015       1.18639054       0.82339429
H        2.19985622      -0.79701353      -0.72956914
9
Frame=4 idx=005598 GeodesicLength=0.1969928169913917 rxn_smarts="[N:1](=[C:2](/[N:3]([C:4](=[O:5])[H:9])[H:8])[H:7])\[H:6]>>[N:1](/[C:2](=[N:3]/[C:4](=[O:5])[H:9])[H:7])([H:6])[H:8]"
N       -0.95065739       0.89319904       1.19950794
C       -0.69490245      -0.06182810       0.35951336
N        0.50455539       0.23828344      -0.15698702
C        1.15208447      -0.57767056      -1.04584891
O        0.73536951      -0.89999957      -2.13104198
H       -1.84792625       0.97349638       1.65024814
H       -1.32131688      -0.88307377       0.02541138
H        0.29426427       1.24921493       0.77026329
H        2.12852934      -0.93162180      -0.67106620
9
Frame=5 idx=005598 GeodesicLength=0.25494269517691537 rxn_smarts="[N:1](=[C:2](/[N:3]([C:4](=[O:5])[H:9])[H:8])[H:7])\[H:6]>>[N:1](/[C:2](=[N:3]/[C:4](=[O:5])[H:9])[H:7])([H:6])[H:8]"
N       -0.94817165       0.89761752       1.19971739
C       -0.68135651      -0.06434087       0.36982294
N        0.49583289       0.26198685      -0.18109229
C        1.14689614      -0.57086148      -1.05239850
O        0.79406320      -0.80692436      -2.18086106
H       -1.83913662       0.94698532       1.66704350
H       -1.27340092      -0.92705424       0.08041888
H        0.26536253       1.31117400       0.70819097
H        2.03991095      -1.04858274      -0.61084182
9
Frame=6 idx=005598 GeodesicLength=0.3123461225214395 rxn_smarts="[N:1](=[C:2](/[N:3]([C:4](=[O:5])[H:9])[H:8])[H:7])\[H:6]>>[N:1](/[C:2](=[N:3]/[C:4](=[O:5])[H:9])[H:7])([H:6])[H:8]"
N       -0.95352400       0.90883737       1.19053150
C       -0.65782825      -0.07665208       0.39721618
N        0.49893418       0.27123263      -0.18337722
C        1.14196405      -0.56454881      -1.05869449
O        0.85065969      -0.70019199      -2.22001978
H       -1.84652667       0.93762410       1.65568681
H       -1.21382474      -0.97615640       0.15084692
H        0.23721556       1.36295898       0.65538060
H        1.94293018      -1.16310378      -0.58757051
9
Frame=7 idx=005598 GeodesicLength=0.37115943219431163 rxn_smarts="[N:1](=[C:2](/[N:3]([C:4](=[O:5])[H:9])[H:8])[H:7])\[H:6]>>[N:1](/[C:2](=[N:3]/[C:4](=[O:5])[H:9])[H:7])([H:6])[H:8]"
N       -0.95271904       0.91411014       1.18922906
C       -0.64463740      -0.07901173       0.40880241
N        0.49366863       0.28542659      -0.19777923
C        1.13773181      -0.56160034      -1.06210419
O        0.92826602      -0.61607788      -2.24676877
H       -1.83918010       0.91737020       1.66758385
H       -1.16284039      -1.01191810       0.20809084
H        0.20394157       1.41163255       0.59688726
H        1.83576890      -1.25993143      -0.56394122
9
Frame=8 idx=005598 GeodesicLength=0.4296318477911387 rxn_smarts="[N:1](=[C:2](/[N:3]([C:4](=[O:5])[H:9])[H:8])[H:7])\[H:6]>>[N:1](/[C:2](=[N:3]/[C:4](=[O:5])[H:9])[H:7])([H:6])[H:8]"
N       -0.95458558       0.92127436       1.18524542
C       -0.62727524      -0.08521339       0.42847167
N        0.49113975       0.29414437      -0.20567179
C        1.13169937      -0.56036945      -1.06611945
O        1.00958856      -0.53285543      -2.26331735
H       -1.83895139       0.90528240       1.66722912
H       -1.10786891      -1.04660028       0.27275252
H        0.17209664       1.45207880       0.54376572
H        1.72415679      -1.34774138      -0.56235585
9
Frame=9 idx=005598 GeodesicLength=0.48743666376549666 rxn_smarts="[N:1](=[C:2](/[N:3]([C:4](=[O:5])[H:9])[H:8])[H:7])\[H:6]>>[N:1](/[C:2](=[N:3]/[C:4](=[O:5])[H:9])[H:7])([H:6])[H:8]"
N       -0.95576246       0.92754467       1.18262245
C       -0.61062371      -0.09090187       0.44832762
N        0.48583246       0.30183727      -0.21561240
C        1.12399310      -0.56098431      -1.07041871
O        1.09984535      -0.45983037      -2.26909358
H       -1.83712107       0.89341034       1.66917575
H       -1.05516067      -1.07557202       0.33576397
H        0.13929266       1.48710063       0.49168087
H        1.60970433      -1.42260433      -0.57244598
9
Frame=10 idx=005598 GeodesicLength=0.5438804387675974 rxn_smarts="[N:1](=[C:2](/[N:3]([C:4](=[O:5])[H:9])[H:8])[H:7])\[H:6]>>[N:1](/[C:2](=[N:3]/[C:4](=[O:5])[H:9])[H:7])([H:6])[H:8]"
N       -0.95626139       0.93302423       1.18145543
C       -0.59274280      -0.09692741       0.47058319
N        0.47738502       0.30865292      -0.22796074
C        1.11403326      -0.56273579      -1.07600735
O        1.19648576      -0.39704409      -2.26422157
H       -1.83516056       0.88247598       1.67105426
H       -1.00428224      -1.09969433       0.39730242
H        0.10620368       1.51703761       0.44167557
H        1.49433926      -1.48478913      -0.59388120
9
Frame=11 idx=005598 GeodesicLength=0.5983117352076808 rxn_smarts="[N:1](=[C:2](/[N:3]([C:4](=[O:5])[H:9])[H:8])[H:7])\[H:6]>>[N:1](/[C:2](=[N:3]/[C:4](=[O:5])[H:9])[H:7])([H:6])[H:8]"
N       -0.95490587       0.93712131       1.18306951
C       -0.57337624      -0.10270886       0.49444655
N        0.46312989       0.31604197      -0.24600370
C        1.10259586      -0.56471119      -1.08297668
O        1.29858840      -0.34751760      -2.24881193
H       -1.83070195       0.87049884       1.67632346
H       -0.95760512      -1.11818663       0.45283533
H        0.07181212       1.54311338       0.39328456
H        1.38046291      -1.53365121      -0.62216711
9
Frame=12 idx=005598 GeodesicLength=0.6504868765157906 rxn_smarts="[N:1](=[C:2](/[N:3]([C:4](=[O:5])[H:9])[H:8])[H:7])\[H:6]>>[N:1](/[C:2](=[N:3]/[C:4](=[O:5])[H:9])[H:7])([H:6])[H:8]"
N       -0.95091915       0.94002284       1.18756533
C       -0.55209928      -0.10777855       0.51910185
N        0.44059365       0.32450183      -0.27218462
C        1.09187731      -0.56614718      -1.09013966
O        1.40650973      -0.31223091      -2.22152890
H       -1.81960770       0.85538290       1.69058949
H       -0.91817076      -1.13057357       0.49762602
H        0.03277011       1.56696424       0.34319704
H        1.26904609      -1.57014159      -0.65422654
9
Frame=13 idx=005598 GeodesicLength=0.7000269635508931 rxn_smarts="[N:1](=[C:2](/[N:3]([C:4](=[O:5])[H:9])[H:8])[H:7])\[H:6]>>[N:1](/[C:2](=[N:3]/[C:4](=[O:5])[H:9])[H:7])([H:6])[H:8]"
N       -0.94382725       0.94232972       1.19412057
C       -0.52894674      -0.11182834       0.54357566
N        0.40738850       0.33280147      -0.30783379
C        1.08225736      -0.56697266      -1.09709877
O        1.52194036      -0.28758204      -2.17901200
H       -1.80042605       0.83832065       1.71395386
H       -0.88415012      -1.13894426       0.53506281
H       -0.01263586       1.58847530       0.28960535
H        1.15839978      -1.59659984      -0.69237370
9
Frame=14 idx=005598 GeodesicLength=0.7458554139758367 rxn_smarts="[N:1](=[C:2](/[N:3]([C:4](=[O:5])[H:9])[H:8])[H:7])\[H:6]>>[N:1](/[C:2](=[N:3]/[C:4](=[O:5])[H:9])[H:7])([H:6])[H:8]"
N       -0.93347206       0.94399623       1.20136694
C       -0.50816339      -0.11432887       0.56223762
N        0.35742118       0.33946659      -0.35735001
C        1.07713049      -0.56551305      -1.10105373
O        1.63902042      -0.27222498      -2.12046740
H       -1.77401016       0.82148695       1.74296684
H       -0.85076697      -1.14609763       0.57012770
H       -0.05766494       1.60615190       0.23856722
H        1.05050543      -1.61293715      -0.73639517
9
Frame=15 idx=005598 GeodesicLength=0.7876318343420987 rxn_smarts="[N:1](=[C:2](/[N:3]([C:4](=[O:5])[H:9])[H:8])[H:7])\[H:6]>>[N:1](/[C:2](=[N:3]/[C:4](=[O:5])[H:9])[H:7])([H:6])[H:8]"
N       -0.92286395       0.94682309       1.20494409
C       -0.48569337      -0.11617769       0.57942918
N        0.29674801       0.33972645      -0.41217959
C        1.07175354      -0.56328820      -1.10316372
O        1.75163960      -0.25826679      -2.04342174
H       -1.74754144       0.80796089       1.76664480
H       -0.80896950      -1.15404973       0.61289100
H       -0.09722634       1.61914281       0.19048922
H        0.94215345      -1.62187083      -0.79563325
9
Frame=16 idx=005598 GeodesicLength=0.8287260031812987 rxn_smarts="[N:1](=[C:2](/[N:3]([C:4](=[O:5])[H:9])[H:8])[H:7])\[H:6]>>[N:1](/[C:2](=[N:3]/[C:4](=[O:5])[H:9])[H:7])([H:6])[H:8]"
N       -0.91386572       0.95030223       1.20456760
C       -0.46191696      -0.11665375       0.59410990
N        0.24078721       0.33471814      -0.45936986
C        1.06581438      -0.56160551      -1.10314560
O        1.84748351      -0.24855582      -1.95675173
H       -1.72372327       0.79579895       1.78348092
H       -0.76072202      -1.16081870       0.65664390
H       -0.13249870       1.62914237       0.14506062
H        0.83864156      -1.62232790      -0.86459575
