11
Frame=0 idx=001363 GeodesicLength=0.0 rxn_smarts="[N:1](=[C:2](/[O:3][C:4]([C:5](=[O:6])[H:11])([H:9])[H:10])[H:8])\[H:7]>>[C:5](=[O:6])([H:7])[H:11].[N:1]#[C:2][H:8].[O:3]=[C:4]([H:9])[H:10]"
N        1.57145849       0.88668328       0.02894037
C        1.73306404       0.01706260      -0.75015869
O        0.32249420      -1.14243170      -0.92670097
C       -0.52760829      -0.98510743      -0.00302817
C       -0.99232588       0.89799870       0.58829591
O       -1.47468757       0.96100468       1.67676351
H        0.26824748       0.63463279       0.42118789
H        2.35654973      -0.47025323      -1.47461171
H       -0.32637466      -1.35360089       1.01077619
H       -1.58231562      -0.95631331      -0.30275286
H       -1.34850187       1.51032450      -0.26871146
11
Frame=1 idx=001363 GeodesicLength=0.10653620453975597 rxn_smarts="[N:1](=[C:2](/[O:3][C:4]([C:5](=[O:6])[H:11])([H:9])[H:10])[H:8])\[H:7]>>[C:5](=[O:6])([H:7])[H:11].[N:1]#[C:2][H:8].[O:3]=[C:4]([H:9])[H:10]"
N        1.60768966       0.88315744       0.04107508
C        1.73789198       0.01836350      -0.75102888
O        0.32127090      -1.13990947      -0.91465605
C       -0.53309737      -0.98492996       0.00875878
C       -0.98775873       0.90718500       0.58465264
O       -1.52582827       0.95141871       1.64782646
H        0.30418618       0.65342451       0.48362738
H        2.31223449      -0.44933789      -1.52782881
H       -0.33672893      -1.36210205       1.02021962
H       -1.58606442      -0.98151901      -0.29849144
H       -1.31379548       1.50424923      -0.29415477
11
Frame=2 idx=001363 GeodesicLength=0.21275219930496078 rxn_smarts="[N:1](=[C:2](/[O:3][C:4]([C:5](=[O:6])[H:11])([H:9])[H:10])[H:8])\[H:7]>>[C:5](=[O:6])([H:7])[H:11].[N:1]#[C:2][H:8].[O:3]=[C:4]([H:9])[H:10]"
N        1.64380057       0.87695138       0.05511254
C        1.74211934       0.01909860      -0.75087329
O        0.31856629      -1.13667343      -0.90461698
C       -0.53930927      -0.98525388       0.01945277
C       -0.98274803       0.91595134       0.58066283
O       -1.57178204       0.94228911       1.61725940
H        0.33835893       0.67536573       0.54199861
H        2.26559770      -0.42678205      -1.57562142
H       -0.34440821      -1.36965198       1.02838241
H       -1.59039381      -1.00821404      -0.29342690
H       -1.27980148       1.49691922      -0.31832997
11
Frame=3 idx=001363 GeodesicLength=0.3189535508310668 rxn_smarts="[N:1](=[C:2](/[O:3][C:4]([C:5](=[O:6])[H:11])([H:9])[H:10])[H:8])\[H:7]>>[C:5](=[O:6])([H:7])[H:11].[N:1]#[C:2][H:8].[O:3]=[C:4]([H:9])[H:10]"
N        1.67993607       0.86821508       0.07053371
C        1.74600879       0.01900873      -0.74966662
O        0.31459170      -1.13302847      -0.89625621
C       -0.54628955      -0.98618195       0.02916147
C       -0.97747497       0.92431650       0.57627844
O       -1.61316343       0.93361956       1.58545626
H        0.37121046       0.70056390       0.59689849
H        2.21675965      -0.40218199      -1.61865434
H       -0.35002256      -1.37651337       1.03547774
H       -1.59521471      -1.03637548      -0.28776183
H       -1.24634146       1.48855749      -0.34146712
11
Frame=4 idx=001363 GeodesicLength=0.42532409204638866 rxn_smarts="[N:1](=[C:2](/[O:3][C:4]([C:5](=[O:6])[H:11])([H:9])[H:10])[H:8])\[H:7]>>[C:5](=[O:6])([H:7])[H:11].[N:1]#[C:2][H:8].[O:3]=[C:4]([H:9])[H:10]"
N        1.71600754       0.85710894       0.08678732
C        1.74935092       0.01833750      -0.74800240
O        0.30937886      -1.12899374      -0.88955123
C       -0.55407952      -0.98773436       0.03785290
C       -0.97210886       0.93228681       0.57158199
O       -1.65033369       0.92523506       1.55299435
H        0.40304418       0.72936396       0.64868193
H        2.16657397      -0.37610618      -1.65666811
H       -0.35388339      -1.38288768       1.04154329
H       -1.60048751      -1.06600450      -0.28168478
H       -1.21346250       1.47939417      -0.36353525
11
Frame=5 idx=001363 GeodesicLength=0.5314872454979715 rxn_smarts="[N:1](=[C:2](/[O:3][C:4]([C:5](=[O:6])[H:11])([H:9])[H:10])[H:8])\[H:7]>>[C:5](=[O:6])([H:7])[H:11].[N:1]#[C:2][H:8].[O:3]=[C:4]([H:9])[H:10]"
N        1.75219156       0.84314439       0.10413257
C        1.75230397       0.01678360      -0.74539001
O        0.30318895      -1.12511649      -0.88382240
C       -0.56266158      -0.98996020       0.04576933
C       -0.96644143       0.93969793       0.56628681
O       -1.68366195       0.91720818       1.51954732
H        0.43439438       0.76178703       0.69751868
H        2.11392068      -0.34703938      -1.69058637
H       -0.35650577      -1.38878075       1.04672123
H       -1.60606524      -1.09683219      -0.27520947
H       -1.18066357       1.46910787      -0.38496768
11
Frame=6 idx=001363 GeodesicLength=0.6378366706591261 rxn_smarts="[N:1](=[C:2](/[O:3][C:4]([C:5](=[O:6])[H:11])([H:9])[H:10])[H:8])\[H:7]>>[C:5](=[O:6])([H:7])[H:11].[N:1]#[C:2][H:8].[O:3]=[C:4]([H:9])[H:10]"
N        1.78799213       0.82700551       0.12160203
C        1.75467954       0.01460428      -0.74251166
O        0.29569914      -1.12085357      -0.87977891
C       -0.57214151      -0.99278412       0.05256419
C       -0.96078579       0.94663251       0.56081996
O       -1.71322327       0.90908126       1.48632210
H        0.46530335       0.79872435       0.74320130
H        2.06104890      -0.31721216      -1.71917366
H       -0.35777130      -1.39443213       1.05065425
H       -1.61205777      -1.12894545      -0.26851014
H       -1.14874342       1.45817953      -0.40518945
11
Frame=7 idx=001363 GeodesicLength=0.7442602334615755 rxn_smarts="[N:1](=[C:2](/[O:3][C:4]([C:5](=[O:6])[H:11])([H:9])[H:10])[H:8])\[H:7]>>[C:5](=[O:6])([H:7])[H:11].[N:1]#[C:2][H:8].[O:3]=[C:4]([H:9])[H:10]"
N        1.82331194       0.80848713       0.13933284
C        1.75656859       0.01160242      -0.73912328
O        0.28696530      -1.11635413      -0.87723127
C       -0.58254593      -0.99623274       0.05827574
C       -0.95508150       0.95301366       0.55518262
O       -1.73922347       0.90074333       1.45353420
H        0.49610206       0.84069864       0.78544795
H        2.00797864      -0.28635836      -1.74277238
H       -0.35793292      -1.39993239       1.05328754
H       -1.61840739      -1.16221274      -0.26166165
H       -1.11773532       1.44654519      -0.42427230
11
Frame=8 idx=001363 GeodesicLength=0.8507541480538098 rxn_smarts="[N:1](=[C:2](/[O:3][C:4]([C:5](=[O:6])[H:11])([H:9])[H:10])[H:8])\[H:7]>>[C:5](=[O:6])([H:7])[H:11].[N:1]#[C:2][H:8].[O:3]=[C:4]([H:9])[H:10]"
N        1.85785302       0.78738867       0.15735670
C        1.75807044       0.00749581      -0.73507505
O        0.27698309      -1.11159873      -0.87620811
C       -0.59392213      -1.00035868       0.06285197
C       -0.94930918       0.95882549       0.54944777
O       -1.76171020       0.89206629       1.42163963
H        0.52704182       0.88848332       0.82376648
H        1.95512692      -0.25448021      -1.76138964
H       -0.35714758      -1.40546953       1.05458788
H       -1.62512844      -1.19664120      -0.25482955
H       -1.08785776       1.43428877      -0.44214808
11
Frame=9 idx=001363 GeodesicLength=0.9574337504725249 rxn_smarts="[N:1](=[C:2](/[O:3][C:4]([C:5](=[O:6])[H:11])([H:9])[H:10])[H:8])\[H:7]>>[C:5](=[O:6])([H:7])[H:11].[N:1]#[C:2][H:8].[O:3]=[C:4]([H:9])[H:10]"
N        1.89148768       0.76372094       0.17582187
C        1.75940472       0.00209757      -0.73013949
O        0.26572414      -1.10678798      -0.87658569
C       -0.60633058      -1.00518666       0.06626996
C       -0.94338245       0.96391405       0.54380007
O       -1.78081884       0.88284253       1.39103942
H        0.55847378       0.94279167       0.85739025
H        1.90261408      -0.22152324      -1.77498362
H       -0.35575048      -1.41120283       1.05423302
H       -1.63215039      -1.23194463      -0.24808494
H       -1.05927165       1.42127858      -0.45876087
11
Frame=10 idx=001363 GeodesicLength=1.0641405340513364 rxn_smarts="[N:1](=[C:2](/[O:3][C:4]([C:5](=[O:6])[H:11])([H:9])[H:10])[H:8])\[H:7]>>[C:5](=[O:6])([H:7])[H:11].[N:1]#[C:2][H:8].[O:3]=[C:4]([H:9])[H:10]"
N        1.92344732       0.73797249       0.19450480
C        1.76059116      -0.00483366      -0.72405419
O        0.25299361      -1.10137178      -0.87882738
C       -0.61989618      -1.01066993       0.06823184
C       -0.93735453       0.96826380       0.53870479
O       -1.79628425       0.87266223       1.36291655
H        0.59061290       1.00476343       0.88503233
H        1.85219338      -0.18903329      -1.78297669
H       -0.35376802      -1.41755190       1.05184176
H       -1.63965137      -1.26801380      -0.24182386
H       -1.03288401       1.40781241      -0.47354993
11
Frame=11 idx=001363 GeodesicLength=1.170770328371382 rxn_smarts="[N:1](=[C:2](/[O:3][C:4]([C:5](=[O:6])[H:11])([H:9])[H:10])[H:8])\[H:7]>>[C:5](=[O:6])([H:7])[H:11].[N:1]#[C:2][H:8].[O:3]=[C:4]([H:9])[H:10]"
N        1.95310724       0.71089702       0.21341104
C        1.76178134      -0.01351983      -0.71640126
O        0.23865020      -1.09498764      -0.88312797
C       -0.63476178      -1.01675127       0.06850278
C       -0.93121929       0.97176490       0.53477219
O       -1.80792136       0.86109284       1.33847822
H        0.62369418       1.07539983       0.90508981
H        1.80545133      -0.15847893      -1.78514061
H       -0.35150792      -1.42499203       1.04686056
H       -1.64772936      -1.30448288      -0.23649744
H       -1.00954458       1.39405800      -0.48594732
11
Frame=12 idx=001363 GeodesicLength=1.2772116078300237 rxn_smarts="[N:1](=[C:2](/[O:3][C:4]([C:5](=[O:6])[H:11])([H:9])[H:10])[H:8])\[H:7]>>[C:5](=[O:6])([H:7])[H:11].[N:1]#[C:2][H:8].[O:3]=[C:4]([H:9])[H:10]"
N        1.97971218       0.68361629       0.23248953
C        1.76312616      -0.02421068      -0.70664137
O        0.22259169      -1.08706963      -0.88963165
C       -0.65110257      -1.02332882       0.06680520
C       -0.92495277       0.97431046       0.53279182
O       -1.81540376       0.84760873       1.31919382
H        0.65784554       1.15566034       0.91560261
H        1.76441163      -0.13179963      -1.78133472
H       -0.34940427      -1.43415924       1.03869022
H       -1.65654659      -1.34091185      -0.23280599
H       -0.99027723       1.38028404      -0.49515948
11
Frame=13 idx=001363 GeodesicLength=1.3832744048751449 rxn_smarts="[N:1](=[C:2](/[O:3][C:4]([C:5](=[O:6])[H:11])([H:9])[H:10])[H:8])\[H:7]>>[C:5](=[O:6])([H:7])[H:11].[N:1]#[C:2][H:8].[O:3]=[C:4]([H:9])[H:10]"
N        2.00244302       0.65781349       0.25178202
C        1.76474529      -0.03710273      -0.69403148
O        0.20489261      -1.07700556      -0.89836427
C       -0.66909566      -1.03026339       0.06286636
C       -0.91846212       0.97579257       0.53373162
O       -1.81832923       0.83164516       1.30670915
H        0.69309550       1.24609593       0.91417908
H        1.73124217      -0.11128660      -1.77169101
H       -0.34810564      -1.44587504       1.02672332
H       -1.66630202      -1.37666387      -0.23168310
H       -0.97612392       1.36685003      -0.50022170
11
Frame=14 idx=001363 GeodesicLength=1.4889400335435825 rxn_smarts="[N:1](=[C:2](/[O:3][C:4]([C:5](=[O:6])[H:11])([H:9])[H:10])[H:8])\[H:7]>>[C:5](=[O:6])([H:7])[H:11].[N:1]#[C:2][H:8].[O:3]=[C:4]([H:9])[H:10]"
N        2.02079894       0.63600406       0.27097107
C        1.76672640      -0.05211732      -0.67781381
O        0.18565122      -1.06405319      -0.90913289
C       -0.68893275      -1.03729924       0.05644191
C       -0.91162721       0.97611311       0.53874732
O       -1.81629857       0.81255565       1.30260785
H        0.72899299       1.34638412       0.89866191
H        1.70834075      -0.09993873      -1.75662319
H       -0.34848577      -1.46093223       1.01031400
H       -1.67718221      -1.41095415      -0.23427665
H       -0.96798379       1.35423793      -0.49989752
11
Frame=15 idx=001363 GeodesicLength=1.5943219553936188 rxn_smarts="[N:1](=[C:2](/[O:3][C:4]([C:5](=[O:6])[H:11])([H:9])[H:10])[H:8])\[H:7]>>[C:5](=[O:6])([H:7])[H:11].[N:1]#[C:2][H:8].[O:3]=[C:4]([H:9])[H:10]"
N        2.03459970       0.62080923       0.28952130
C        1.76900811      -0.06895832      -0.65728746
O        0.16532808      -1.04764685      -0.92143437
C       -0.71066055      -1.04412607       0.04745359
C       -0.90424780       0.97524579       0.54881145
O       -1.80915744       0.78987925       1.30783960
H        0.76489179       1.45492393       0.86748435
H        1.69707304      -0.10017003      -1.73666637
H       -0.35143622      -1.47996764       0.98915560
H       -1.68928361      -1.44293949      -0.24174070
H       -0.96611510       1.34295021      -0.49313700
11
Frame=16 idx=001363 GeodesicLength=1.6996938325931836 rxn_smarts="[N:1](=[C:2](/[O:3][C:4]([C:5](=[O:6])[H:11])([H:9])[H:10])[H:8])\[H:7]>>[C:5](=[O:6])([H:7])[H:11].[N:1]#[C:2][H:8].[O:3]=[C:4]([H:9])[H:10]"
N        2.04425704       0.61464580       0.30642725
C        1.77135005      -0.08697369      -0.63200975
O        0.14448605      -1.02736286      -0.93454771
C       -0.73418554      -1.05034042       0.03598039
C       -0.89613723       0.97320928       0.56458111
O       -1.79706486       0.76328347       1.32246967
H        0.79981437       1.56897612       0.82026910
H        1.69771477      -0.11387237      -1.71218597
H       -0.35764186      -1.50316857       0.96315164
H       -1.70253999      -1.47184261      -0.25498266
H       -0.97005280       1.33344585      -0.47915307
