12
Frame=0 idx=000347 GeodesicLength=0.0 rxn_smarts="[C:1]([C@@:2]1([H:10])[O:3][C@:4]1([C:5]#[C:6][H:12])[H:11])([H:7])([H:8])[H:9]>>[C:1]([C:2][C@@:4]([O:3][H:10])([C:5]#[C:6][H:12])[H:11])([H:7])([H:8])[H:9]"
C       -1.16979581       1.05169429       0.08729217
C       -1.08583138      -0.38102438       0.45864202
O       -0.52646557      -1.38500473      -0.91333169
C        0.22395660      -1.06052697       0.27051551
C        1.43120868      -0.31083415      -0.02002450
C        2.44606138       0.29852051      -0.19513978
H       -0.36879157       1.40667082      -0.56594211
H       -1.08489790       1.58840726       1.04103846
H       -2.14388433       1.30189007      -0.33060461
H       -1.49992108      -1.42054164      -0.36740733
H        0.43003887      -1.92783003       0.89635549
H        3.34832216       0.83857899      -0.36139366
12
Frame=1 idx=000347 GeodesicLength=0.03855189124816982 rxn_smarts="[C:1]([C@@:2]1([H:10])[O:3][C@:4]1([C:5]#[C:6][H:12])[H:11])([H:7])([H:8])[H:9]>>[C:1]([C:2][C@@:4]([O:3][H:10])([C:5]#[C:6][H:12])[H:11])([H:7])([H:8])[H:9]"
C       -1.16972302       1.05269146       0.08643760
C       -1.08438109      -0.38081084       0.45247183
O       -0.52639258      -1.38411747      -0.91251035
C        0.22589431      -1.06004957       0.26940181
C        1.43337714      -0.31076023      -0.02120496
C        2.44767815       0.30047761      -0.19308400
H       -0.36806675       1.40976565      -0.56477180
H       -1.08580995       1.58535091       1.04267459
H       -2.14340053       1.30438889      -0.33163958
H       -1.50966648      -1.42894397      -0.36269010
H        0.42990715      -1.92666585       0.89678069
H        3.35058365       0.83867340      -0.36186573
12
Frame=2 idx=000347 GeodesicLength=0.07710396728584204 rxn_smarts="[C:1]([C@@:2]1([H:10])[O:3][C@:4]1([C:5]#[C:6][H:12])[H:11])([H:7])([H:8])[H:9]>>[C:1]([C:2][C@@:4]([O:3][H:10])([C:5]#[C:6][H:12])[H:11])([H:7])([H:8])[H:9]"
C       -1.16951235       1.05368535       0.08549656
C       -1.08276887      -0.38053170       0.44642103
O       -0.52682893      -1.38357190      -0.91154564
C        0.22786322      -1.05963716       0.26801300
C        1.43551438      -0.31093602      -0.02339447
C        2.44920849       0.30209575      -0.19260569
H       -0.36746151       1.41266299      -0.56409957
H       -1.08613370       1.58243767       1.04407961
H       -2.14293428       1.30690108      -0.33238332
H       -1.51977204      -1.43729534      -0.35723731
H        0.43000188      -1.92540772       0.89707665
H        3.35282369       0.83959701      -0.35982083
12
Frame=3 idx=000347 GeodesicLength=0.11565803975251712 rxn_smarts="[C:1]([C@@:2]1([H:10])[O:3][C@:4]1([C:5]#[C:6][H:12])[H:11])([H:7])([H:8])[H:9]>>[C:1]([C:2][C@@:4]([O:3][H:10])([C:5]#[C:6][H:12])[H:11])([H:7])([H:8])[H:9]"
C       -1.16936777       1.05465388       0.08459516
C       -1.08124402      -0.38031911       0.44019132
O       -0.52695345      -1.38296364      -0.91069221
C        0.22983391      -1.05917437       0.26671488
C        1.43768322      -0.31097897      -0.02515618
C        2.45074890       0.30396532      -0.19133782
H       -0.36678488       1.41567522      -0.56312893
H       -1.08680255       1.57933365       1.04561635
H       -2.14243812       1.30940934      -0.33329242
H       -1.52979151      -1.44551880      -0.35197299
H        0.42998762      -1.92411981       0.89745972
H        3.35512866       0.84003729      -0.35899687
12
Frame=4 idx=000347 GeodesicLength=0.1542176527225333 rxn_smarts="[C:1]([C@@:2]1([H:10])[O:3][C@:4]1([C:5]#[C:6][H:12])[H:11])([H:7])([H:8])[H:9]>>[C:1]([C:2][C@@:4]([O:3][H:10])([C:5]#[C:6][H:12])[H:11])([H:7])([H:8])[H:9]"
C       -1.16905994       1.05561761       0.08360233
C       -1.07956808      -0.38005000       0.43405903
O       -0.52756824      -1.38269083      -0.90971564
C        0.23182532      -1.05879907       0.26514302
C        1.43982867      -0.31130934      -0.02788816
C        2.45222353       0.30547815      -0.19148084
H       -0.36618084       1.41848765      -0.56264011
H       -1.08686402       1.57635700       1.04692838
H       -2.14192137       1.31195254      -0.33393113
H       -1.54017791      -1.45367854      -0.34597035
H        0.43016178      -1.92276461       0.89771742
H        3.35730110       0.84139942      -0.35582395
12
Frame=5 idx=000347 GeodesicLength=0.1927820880427289 rxn_smarts="[C:1]([C@@:2]1([H:10])[O:3][C@:4]1([C:5]#[C:6][H:12])[H:11])([H:7])([H:8])[H:9]>>[C:1]([C:2][C@@:4]([O:3][H:10])([C:5]#[C:6][H:12])[H:11])([H:7])([H:8])[H:9]"
C       -1.16872195       1.05656245       0.08259192
C       -1.07788644      -0.37980086       0.42785007
O       -0.52819253      -1.38251463      -0.90876554
C        0.23382367      -1.05843382       0.26350763
C        1.44198297      -0.31168275      -0.03075744
C        2.45367898       0.30699917      -0.19167965
H       -0.36555875       1.42128780      -0.56217112
H       -1.08687528       1.57330998       1.04822709
H       -2.14137458       1.31451267      -0.33455843
H       -1.55066840      -1.46173680      -0.33976205
H        0.43034007      -1.92136570       0.89797493
H        3.35945226       0.84286248      -0.35245740
12
Frame=6 idx=000347 GeodesicLength=0.23134671050510142 rxn_smarts="[C:1]([C@@:2]1([H:10])[O:3][C@:4]1([C:5]#[C:6][H:12])[H:11])([H:7])([H:8])[H:9]>>[C:1]([C:2][C@@:4]([O:3][H:10])([C:5]#[C:6][H:12])[H:11])([H:7])([H:8])[H:9]"
C       -1.16822572       1.05750092       0.08148582
C       -1.07605694      -0.37950223       0.42172485
O       -0.52929801      -1.38267073      -0.90770251
C        0.23585091      -1.05814950       0.26157757
C        1.44411207      -0.31232892      -0.03462426
C        2.45507253       0.30818495      -0.19328946
H       -0.36501682       1.42389801      -0.56219169
H       -1.08627420       1.57038289       1.04930351
H       -2.14081425       1.31710617      -0.33491195
H       -1.56151798      -1.46972750      -0.33276762
H        0.43072669      -1.91988158       0.89809522
H        3.36144171       0.84518752      -0.34669949
12
Frame=7 idx=000347 GeodesicLength=0.2699314400699532 rxn_smarts="[C:1]([C@@:2]1([H:10])[O:3][C@:4]1([C:5]#[C:6][H:12])[H:11])([H:7])([H:8])[H:9]>>[C:1]([C:2][C@@:4]([O:3][H:10])([C:5]#[C:6][H:12])[H:11])([H:7])([H:8])[H:9]"
C       -1.16750396       1.05844006       0.08023416
C       -1.07399142      -0.37910909       0.41578107
O       -0.53117744      -1.38329399      -0.90644715
C        0.23792778      -1.05797741       0.25919020
C        1.44618946      -0.31336843      -0.04005636
C        2.45637093       0.30885384      -0.19717894
H       -0.36463350       1.42621544      -0.56299810
H       -1.08472832       1.56769586       1.05002651
H       -2.14026700       1.31973027      -0.33482548
H       -1.57287024      -1.47767845      -0.32457798
H        0.43147195      -1.91827155       0.89797468
H        3.36321176       0.84876344      -0.33712260
12
Frame=8 idx=000347 GeodesicLength=0.3085239273707469 rxn_smarts="[C:1]([C@@:2]1([H:10])[O:3][C@:4]1([C:5]#[C:6][H:12])[H:11])([H:7])([H:8])[H:9]>>[C:1]([C:2][C@@:4]([O:3][H:10])([C:5]#[C:6][H:12])[H:11])([H:7])([H:8])[H:9]"
C       -1.16678446       1.05935822       0.07897014
C       -1.07192118      -0.37874592       0.40974074
O       -0.53299767      -1.38397083      -0.90524227
C        0.24004186      -1.05777814       0.25672626
C        1.44828434      -0.31437458      -0.04559814
C        2.45766092       0.30963053      -0.20104511
H       -0.36424718       1.42856656      -0.56377562
H       -1.08323353       1.56492157       1.05075819
H       -2.13970911       1.32233887      -0.33476762
H       -1.58427323      -1.48550683      -0.31614223
H        0.43227269      -1.91658529       0.89782487
H        3.36490654       0.85214583      -0.32744921
12
Frame=9 idx=000347 GeodesicLength=0.34710737499902483 rxn_smarts="[C:1]([C@@:2]1([H:10])[O:3][C@:4]1([C:5]#[C:6][H:12])[H:11])([H:7])([H:8])[H:9]>>[C:1]([C:2][C@@:4]([O:3][H:10])([C:5]#[C:6][H:12])[H:11])([H:7])([H:8])[H:9]"
C       -1.16599535       1.06026108       0.07763982
C       -1.06976014      -0.37837069       0.40370837
O       -0.53507745      -1.38485474      -0.90400139
C        0.24220672      -1.05759381       0.25402023
C        1.45036599      -0.31548888      -0.05183962
C        2.45890483       0.31032167      -0.20575242
H       -0.36393923       1.43083646      -0.56484329
H       -1.08143072       1.56218722       1.05136062
H       -2.13916815       1.32493394      -0.33456033
H       -1.59588371      -1.49322976      -0.30704553
H        0.43327649      -1.91479106       0.89753657
H        3.36650072       0.85578856      -0.31622302
12
Frame=10 idx=000347 GeodesicLength=0.3857445130916817 rxn_smarts="[C:1]([C@@:2]1([H:10])[O:3][C@:4]1([C:5]#[C:6][H:12])[H:11])([H:7])([H:8])[H:9]>>[C:1]([C:2][C@@:4]([O:3][H:10])([C:5]#[C:6][H:12])[H:11])([H:7])([H:8])[H:9]"
C       -1.16508784       1.06115648       0.07622237
C       -1.06745011      -0.37795633       0.39770790
O       -0.53749496      -1.38597489      -0.90270159
C        0.24444649      -1.05743265       0.25100506
C        1.45243891      -0.31675840      -0.05899511
C        2.46009344       0.31089620      -0.21149769
H       -0.36371835       1.43299172      -0.56630438
H       -1.07916804       1.55953223       1.05177560
H       -2.13862469       1.32752832      -0.33414742
H       -1.60773650      -1.50087504      -0.29713520
H        0.43454995      -1.91287460       0.89706150
H        3.36775171       0.85976695      -0.30299105
12
Frame=11 idx=000347 GeodesicLength=0.4243834204171396 rxn_smarts="[C:1]([C@@:2]1([H:10])[O:3][C@:4]1([C:5]#[C:6][H:12])[H:11])([H:7])([H:8])[H:9]>>[C:1]([C:2][C@@:4]([O:3][H:10])([C:5]#[C:6][H:12])[H:11])([H:7])([H:8])[H:9]"
C       -1.16416162       1.06203084       0.07477750
C       -1.06511775      -0.37756851       0.39160869
O       -0.53988431      -1.38716282      -0.90145764
C        0.24673474      -1.05725127       0.24786668
C        1.45452895      -0.31801685      -0.06637212
C        2.46126868       0.31159848      -0.21720949
H       -0.36349518       1.43516742      -0.56778784
H       -1.07689148       1.55680335       1.05217390
H       -2.13806134       1.33011101      -0.33374317
H       -1.61964272      -1.50838742      -0.28686086
H        0.43591608      -1.91087756       0.89651457
H        3.36880594       0.86355333      -0.28951021
12
Frame=12 idx=000347 GeodesicLength=0.46302649578025323 rxn_smarts="[C:1]([C@@:2]1([H:10])[O:3][C@:4]1([C:5]#[C:6][H:12])[H:11])([H:7])([H:8])[H:9]>>[C:1]([C:2][C@@:4]([O:3][H:10])([C:5]#[C:6][H:12])[H:11])([H:7])([H:8])[H:9]"
C       -1.16323451       1.06288069       0.07331420
C       -1.06278244      -0.37721681       0.38538756
O       -0.54217993      -1.38838349      -0.90029297
C        0.24906577      -1.05704214       0.24463642
C        1.45663961      -0.31923421      -0.07384652
C        2.46243691       0.31246028      -0.22270984
H       -0.36325775       1.43738440      -0.56923203
H       -1.07467407       1.55397289       1.05258032
H       -2.13747770       1.33267818      -0.33338266
H       -1.63157402      -1.51575784      -0.27629003
H        0.43734103      -1.90880953       0.89591204
H        3.36969710       0.86706759      -0.27607649
12
Frame=13 idx=000347 GeodesicLength=0.5016752226438744 rxn_smarts="[C:1]([C@@:2]1([H:10])[O:3][C@:4]1([C:5]#[C:6][H:12])[H:11])([H:7])([H:8])[H:9]>>[C:1]([C:2][C@@:4]([O:3][H:10])([C:5]#[C:6][H:12])[H:11])([H:7])([H:8])[H:9]"
C       -1.16232800       1.06370216       0.07184466
C       -1.06047002      -0.37691223       0.37901748
O       -0.54430610      -1.38959920      -0.89923406
C        0.25142944      -1.05679892       0.24135672
C        1.45877557      -0.32037873      -0.08126049
C        2.46360575       0.31350734      -0.22781317
H       -0.36298746       1.43966705      -0.57055722
H       -1.07260950       1.55100723       1.05302683
H       -2.13687110       1.33522733      -0.33311099
H       -1.64350263      -1.52297681      -0.26551078
H        0.43877715      -1.90668504       0.89527954
H        3.37048688       0.87023981      -0.26303853
12
Frame=14 idx=000347 GeodesicLength=0.5403282116877312 rxn_smarts="[C:1]([C@@:2]1([H:10])[O:3][C@:4]1([C:5]#[C:6][H:12])[H:11])([H:7])([H:8])[H:9]>>[C:1]([C:2][C@@:4]([O:3][H:10])([C:5]#[C:6][H:12])[H:11])([H:7])([H:8])[H:9]"
C       -1.16145171       1.06449250       0.07037499
C       -1.05819505      -0.37666056       0.37248464
O       -0.54622537      -1.39079162      -0.89829606
C        0.25381676      -1.05652243       0.23805260
C        1.46093948      -0.32143938      -0.08852234
C        2.46478171       0.31473172      -0.23245074
H       -0.36267156       1.44202451      -0.57172175
H       -1.07074441       1.54788850       1.05352914
H       -2.13623840       1.33775818      -0.33295216
H       -1.65542178      -1.53003565      -0.25456656
H        0.44019120      -1.90451731       0.89463246
H        3.37121913       0.87307154      -0.25056421
12
Frame=15 idx=000347 GeodesicLength=0.5789833433506543 rxn_smarts="[C:1]([C@@:2]1([H:10])[O:3][C@:4]1([C:5]#[C:6][H:12])[H:11])([H:7])([H:8])[H:9]>>[C:1]([C:2][C@@:4]([O:3][H:10])([C:5]#[C:6][H:12])[H:11])([H:7])([H:8])[H:9]"
C       -1.16060417       1.06525013       0.06890319
C       -1.05595656      -0.37646121       0.36579076
O       -0.54794403      -1.39196310      -0.89748146
C        0.25622458      -1.05621724       0.23472287
C        1.46313094      -0.32242173      -0.09563196
C        2.46596644       0.31610610      -0.23667889
H       -0.36231220       1.44444955      -0.57273487
H       -1.06906790       1.54461866       1.05408146
H       -2.13558167       1.34026969      -0.33290065
H       -1.66734317      -1.53692730      -0.24343965
H        0.44157810      -1.90231205       0.89396819
H        3.37190964       0.87560850      -0.23859899
12
Frame=16 idx=000347 GeodesicLength=0.617639048987833 rxn_smarts="[C:1]([C@@:2]1([H:10])[O:3][C@:4]1([C:5]#[C:6][H:12])[H:11])([H:7])([H:8])[H:9]>>[C:1]([C:2][C@@:4]([O:3][H:10])([C:5]#[C:6][H:12])[H:11])([H:7])([H:8])[H:9]"
C       -1.15979047       1.06597251       0.06743118
C       -1.05376034      -0.37631664       0.35893025
O       -0.54944723      -1.39310622      -0.89679884
C        0.25864783      -1.05588497       0.23137867
C        1.46535121      -0.32332125      -0.10254696
C        2.46716108       0.31761896      -0.24050147
H       -0.36190692       1.44694269      -0.57358239
H       -1.06759712       1.54118995       1.05468782
H       -2.13490247       1.34276000      -0.33296368
H       -1.67927025      -1.54364385      -0.23214073
H        0.44292145      -1.90007706       0.89329271
H        3.37259323       0.87786588      -0.22718657
