21
Frame=0 idx=007723 GeodesicLength=0.0 rxn_smarts="[C:1]([C:2]([C:3]([C:4]([C:5]([O:6][C:7]([H:19])([H:20])[H:21])([H:17])[H:18])([H:15])[H:16])([H:13])[H:14])([H:11])[H:12])([H:8])([H:9])[H:10]>>[C:1]([C:2]([H:11])([H:12])[H:18])([H:8])([H:9])[H:10].[C:3]1([H:13])([H:14])[C:4]([H:15])([H:16])[C:5]1([O:6][C:7]([H:19])([H:20])[H:21])[H:17]"
C       -2.23831382       0.84073239      -0.94761437
C       -1.64731479       0.62250377       0.43147927
C       -0.85663358      -1.87287907       0.12843979
C        0.47294410      -1.51501266       0.56210006
C        0.94026898      -0.12930808       0.16913235
O        2.02526916       0.33709116       0.83489287
C        2.91734992       1.13449730       0.08471580
H       -3.05171772       1.57222780      -0.91741000
H       -2.63598411      -0.08445661      -1.36476818
H       -1.49363580       1.22192394      -1.65156796
H       -1.46502621       1.58383575       0.92597771
H       -2.29734507       0.04664458       1.07864161
H       -1.49125610      -2.46771063       0.77181616
H       -1.07176191      -1.93001185      -0.93244021
H        1.20822750      -2.12454182       0.00432581
H        0.64328625      -1.66479725       1.62890042
H        0.98243927       0.05213906      -0.91373520
H       -0.41406122       0.34575025       0.40425016
H        3.34548215       0.56408406      -0.74651748
H        3.71325217       1.44428039       0.75896611
H        2.41453082       2.02300752      -0.30958469
21
Frame=1 idx=007723 GeodesicLength=0.13799379440053358 rxn_smarts="[C:1]([C:2]([C:3]([C:4]([C:5]([O:6][C:7]([H:19])([H:20])[H:21])([H:17])[H:18])([H:15])[H:16])([H:13])[H:14])([H:11])[H:12])([H:8])([H:9])[H:10]>>[C:1]([C:2]([H:11])([H:12])[H:18])([H:8])([H:9])[H:10].[C:3]1([H:13])([H:14])[C:4]([H:15])([H:16])[C:5]1([O:6][C:7]([H:19])([H:20])[H:21])[H:17]"
C       -2.26042643       0.85059240      -0.93314276
C       -1.64603245       0.62296774       0.43501806
C       -0.84066842      -1.84577629       0.09467861
C        0.47997306      -1.53015583       0.59279463
C        0.96400993      -0.16990181       0.14673070
O        2.03289348       0.32462882       0.82235056
C        2.90987467       1.14102629       0.07598995
H       -3.06797423       1.58763371      -0.88880247
H       -2.67658162      -0.06901105      -1.34500805
H       -1.52329219       1.22572707      -1.64810089
H       -1.46928009       1.58395547       0.93267086
H       -2.29812696       0.05546183       1.08927585
H       -1.47952684      -2.49456839       0.67975919
H       -1.04269464      -1.87116269      -0.97018284
H        1.22199366      -2.18268628       0.09892304
H        0.59500985      -1.62622150       1.67235583
H        1.03814621      -0.03626279      -0.94105872
H       -0.38006896       0.36795927       0.40921480
H        3.36938973       0.57253245      -0.73994129
H        3.68499082       1.48508929       0.75793588
H        2.38839142       2.00817228      -0.34146096
21
Frame=2 idx=007723 GeodesicLength=0.27540235461522977 rxn_smarts="[C:1]([C:2]([C:3]([C:4]([C:5]([O:6][C:7]([H:19])([H:20])[H:21])([H:17])[H:18])([H:15])[H:16])([H:13])[H:14])([H:11])[H:12])([H:8])([H:9])[H:10]>>[C:1]([C:2]([H:11])([H:12])[H:18])([H:8])([H:9])[H:10].[C:3]1([H:13])([H:14])[C:4]([H:15])([H:16])[C:5]1([O:6][C:7]([H:19])([H:20])[H:21])[H:17]"
C       -2.28431495       0.85850807      -0.91862542
C       -1.64540966       0.62380327       0.43798032
C       -0.82284745      -1.81785334       0.06201881
C        0.48522404      -1.54246676       0.62204656
C        0.98713481      -0.20886036       0.12716984
O        2.04019847       0.31245378       0.81177007
C        2.90313908       1.14510211       0.06815041
H       -3.08752766       1.59909176      -0.86021665
H       -2.71652480      -0.05679653      -1.32391881
H       -1.55625350       1.22901530      -1.64510149
H       -1.47461518       1.58498803       0.93779082
H       -2.29814248       0.06432313       1.10032113
H       -1.46200879      -2.51730260       0.58608957
H       -1.01320411      -1.81104998      -1.00548570
H        1.22848022      -2.23380781       0.18974086
H        0.54970607      -1.58745389       1.70846232
H        1.09729038      -0.12454285      -0.96233357
H       -0.34557893       0.39217797       0.41208523
H        3.39285378       0.57800497      -0.73130579
H        3.65673092       1.52220440       0.75685418
H        2.36566973       1.99046134      -0.37349269
21
Frame=3 idx=007723 GeodesicLength=0.4123558282026517 rxn_smarts="[C:1]([C:2]([C:3]([C:4]([C:5]([O:6][C:7]([H:19])([H:20])[H:21])([H:17])[H:18])([H:15])[H:16])([H:13])[H:14])([H:11])[H:12])([H:8])([H:9])[H:10]>>[C:1]([C:2]([H:11])([H:12])[H:18])([H:8])([H:9])[H:10].[C:3]1([H:13])([H:14])[C:4]([H:15])([H:16])[C:5]1([O:6][C:7]([H:19])([H:20])[H:21])[H:17]"
C       -2.31015676       0.86459907      -0.90389292
C       -1.64558769       0.62492834       0.44042575
C       -0.80338956      -1.78911839       0.02999829
C        0.48872016      -1.55210283       0.64984355
C        1.00976219      -0.24619583       0.11012304
O        2.04716267       0.30080560       0.80301452
C        2.89737266       1.14687603       0.06098541
H       -3.11064537       1.60666126      -0.83124997
H       -2.75588755      -0.04773090      -1.30163232
H       -1.59276059       1.23218933      -1.64226708
H       -1.48089062       1.58675412       0.94148390
H       -2.29751443       0.07310690       1.11179444
H       -1.43892427      -2.53578527       0.49055607
H       -0.98324859      -1.74930886      -1.03885881
H        1.22848915      -2.27876260       0.27711537
H        0.50684112      -1.54848508       1.73835566
H        1.15977314      -0.21304135      -0.97732461
H       -0.31074291       0.41818015       0.41276714
H        3.41631652       0.58039039      -0.72055510
H        3.62868779       1.55610844       0.75546359
H        2.34662295       1.96993146      -0.40614593
21
Frame=4 idx=007723 GeodesicLength=0.5489221930424368 rxn_smarts="[C:1]([C:2]([C:3]([C:4]([C:5]([O:6][C:7]([H:19])([H:20])[H:21])([H:17])[H:18])([H:15])[H:16])([H:13])[H:14])([H:11])[H:12])([H:8])([H:9])[H:10]>>[C:1]([C:2]([H:11])([H:12])[H:18])([H:8])([H:9])[H:10].[C:3]1([H:13])([H:14])[C:4]([H:15])([H:16])[C:5]1([O:6][C:7]([H:19])([H:20])[H:21])[H:17]"
C       -2.33803766       0.86890566      -0.88881188
C       -1.64671198       0.62624979       0.44242315
C       -0.78243622      -1.75952816      -0.00179704
C        0.49046599      -1.55919963       0.67615334
C        1.03199231      -0.28193870       0.09532928
O        2.05376469       0.28987518       0.79595108
C        2.89278345       1.14644919       0.05428076
H       -3.13746444       1.61033488      -0.80160716
H       -2.79466193      -0.04180151      -1.27830052
H       -1.63291433       1.23549824      -1.63931045
H       -1.48807988       1.58909266       0.94389474
H       -2.29638916       0.08168078       1.12369425
H       -1.41041616      -2.54978505       0.39299903
H       -0.95269375      -1.68559227      -1.07070297
H        1.22254799      -2.31820324       0.36129605
H        0.46595704      -1.50930556       1.76287652
H        1.22526278      -0.30187619      -0.98566044
H       -0.27567227       0.44581015       0.41131797
H        3.44007911       0.57959773      -0.70770935
H        3.60111761       1.58712515       0.75344329
H        2.33150681       1.94661090      -0.43975965
21
Frame=5 idx=007723 GeodesicLength=0.6850905997740666 rxn_smarts="[C:1]([C:2]([C:3]([C:4]([C:5]([O:6][C:7]([H:19])([H:20])[H:21])([H:17])[H:18])([H:15])[H:16])([H:13])[H:14])([H:11])[H:12])([H:8])([H:9])[H:10]>>[C:1]([C:2]([H:11])([H:12])[H:18])([H:8])([H:9])[H:10].[C:3]1([H:13])([H:14])[C:4]([H:15])([H:16])[C:5]1([O:6][C:7]([H:19])([H:20])[H:21])[H:17]"
C       -2.36787856       0.87144293      -0.87331128
C       -1.64892927       0.62768246       0.44404713
C       -0.76012203      -1.72899351      -0.03363107
C        0.49040164      -1.56386310       0.70098098
C        1.05386498      -0.31611875       0.08262742
O        2.05999328       0.27978299       0.79042277
C        2.88951941       1.14388007       0.04778107
H       -3.16792673       1.61006822      -0.77114796
H       -2.83264845      -0.03899759      -1.25416758
H       -1.67656915       1.23912523      -1.63593725
H       -1.49625801       1.59185444       0.94517778
H       -2.29497698       0.08990638       1.13594835
H       -1.37632671      -2.55930959       0.29325277
H       -0.92136983      -1.61954907      -1.10120966
H        1.21092912      -2.35261179       0.44249131
H        0.42664182      -1.46987866       1.78270270
H        1.29305188      -0.39091222      -0.98690306
H       -0.24045561       0.47496313       0.40799627
H        3.46415898       0.57560990      -0.69302763
H        3.57442433       1.61532680       0.75032218
H        2.32047588       1.92059171      -0.47441525
21
Frame=6 idx=007723 GeodesicLength=0.8209224678121583 rxn_smarts="[C:1]([C:2]([C:3]([C:4]([C:5]([O:6][C:7]([H:19])([H:20])[H:21])([H:17])[H:18])([H:15])[H:16])([H:13])[H:14])([H:11])[H:12])([H:8])([H:9])[H:10]>>[C:1]([C:2]([H:11])([H:12])[H:18])([H:8])([H:9])[H:10].[C:3]1([H:13])([H:14])[C:4]([H:15])([H:16])[C:5]1([O:6][C:7]([H:19])([H:20])[H:21])[H:17]"
C       -2.39948391       0.87221228      -0.85738661
C       -1.65236295       0.62916850       0.44539591
C       -0.73660280      -1.69740076      -0.06560303
C        0.48851095      -1.56627287       0.72432060
C        1.07542429      -0.34884373       0.07191611
O        2.06591682       0.27053091       0.78626938
C        2.88764259       1.13924022       0.04124551
H       -3.20179152       1.60587550      -0.73990284
H       -2.86959584      -0.03929209      -1.22953157
H       -1.72338039       1.24309977      -1.63190695
H       -1.50551522       1.59495231       0.94548588
H       -2.29353589       0.09773512       1.14848939
H       -1.33642661      -2.56430924       0.19122633
H       -0.88916924      -1.55092169      -1.13037820
H        1.19373857      -2.38250326       0.52065869
H        0.38869590      -1.43028012       1.79839400
H        1.36218616      -0.47984122      -0.98067389
H       -0.20512034       0.50553664       0.40326657
H        3.48849278       0.56850784      -0.67683562
H        3.54890605       1.64086674       0.74564790
H        2.31347060       1.89193913      -0.51009756
21
Frame=7 idx=007723 GeodesicLength=0.9564313167799169 rxn_smarts="[C:1]([C:2]([C:3]([C:4]([C:5]([O:6][C:7]([H:19])([H:20])[H:21])([H:17])[H:18])([H:15])[H:16])([H:13])[H:14])([H:11])[H:12])([H:8])([H:9])[H:10]>>[C:1]([C:2]([H:11])([H:12])[H:18])([H:8])([H:9])[H:10].[C:3]1([H:13])([H:14])[C:4]([H:15])([H:16])[C:5]1([O:6][C:7]([H:19])([H:20])[H:21])[H:17]"
C       -2.43259771       0.87111258      -0.84108454
C       -1.65711654       0.63064218       0.44657089
C       -0.71202525      -1.66460006      -0.09772277
C        0.48478408      -1.56660263       0.74612662
C        1.09668101      -0.38019932       0.06313273
O        2.07162562       0.26205887       0.78332745
C        2.88720479       1.13257417       0.03449422
H       -3.23870039       1.59770569      -0.70803959
H       -2.90525539      -0.04273634      -1.20465311
H       -1.77291334       1.24721761      -1.62706978
H       -1.51596420       1.59832540       0.94490197
H       -2.29232523       0.10516681       1.16128157
H       -1.29049837      -2.56450365       0.08702544
H       -0.85597487      -1.47953886      -1.15808544
H        1.17100546      -2.40830791       0.59558312
H        0.35201914      -1.39064302       1.81039572
H        1.43145581      -0.56805027      -0.96682647
H       -0.16964734       0.53746126       0.39770154
H        3.51288232       0.55842565      -0.65957758
H        3.52498319       1.66368556       0.73905074
H        2.31037720       1.86080628      -0.54653273
21
Frame=8 idx=007723 GeodesicLength=1.0916901635817535 rxn_smarts="[C:1]([C:2]([C:3]([C:4]([C:5]([O:6][C:7]([H:19])([H:20])[H:21])([H:17])[H:18])([H:15])[H:16])([H:13])[H:14])([H:11])[H:12])([H:8])([H:9])[H:10]>>[C:1]([C:2]([H:11])([H:12])[H:18])([H:8])([H:9])[H:10].[C:3]1([H:13])([H:14])[C:4]([H:15])([H:16])[C:5]1([O:6][C:7]([H:19])([H:20])[H:21])[H:17]"
C       -2.46693549       0.86802770      -0.82450155
C       -1.66330211       0.63204805       0.44769311
C       -0.68656137      -1.63044130      -0.12988543
C        0.47924598      -1.56504804       0.76635477
C        1.11762892      -0.41028355       0.05623639
O        2.07726289       0.25424717       0.78143138
C        2.88823929       1.12392358       0.02738811
H       -3.27822660       1.58555430      -0.67584776
H       -2.93940962      -0.04936928      -1.17979925
H       -1.82465016       1.25114464      -1.62134532
H       -1.52774562       1.60194787       0.94350290
H       -2.29165660       0.11225725       1.17430890
H       -1.23826777      -2.55955889      -0.01912982
H       -0.82173752      -1.40532107      -1.18408395
H        1.14274226      -2.43045555       0.66693119
H        0.31662656      -1.35112785       1.81912101
H        1.49955518      -0.65483197      -0.94552284
H       -0.13397796       0.57069056       0.39198509
H        3.53711598       0.54551935      -0.64174555
H        3.50308561       1.68369982       0.73026357
H        2.31096813       1.82737721      -0.58335495
21
Frame=9 idx=007723 GeodesicLength=1.2266252949868308 rxn_smarts="[C:1]([C:2]([C:3]([C:4]([C:5]([O:6][C:7]([H:19])([H:20])[H:21])([H:17])[H:18])([H:15])[H:16])([H:13])[H:14])([H:11])[H:12])([H:8])([H:9])[H:10]>>[C:1]([C:2]([H:11])([H:12])[H:18])([H:8])([H:9])[H:10].[C:3]1([H:13])([H:14])[C:4]([H:15])([H:16])[C:5]1([O:6][C:7]([H:19])([H:20])[H:21])[H:17]"
C       -2.50207934       0.86275497      -0.80778854
C       -1.67092978       0.63330439       0.44884250
C       -0.66036150      -1.59476930      -0.16190968
C        0.47193295      -1.56181754       0.78491366
C        1.13820301      -0.43917937       0.05116593
O        2.08296140       0.24685064       0.78037273
C        2.89065915       1.11335664       0.01987593
H       -3.31975950       1.56935747      -0.64375788
H       -2.97175703      -0.05928978      -1.15516947
H       -1.87793351       1.25436882      -1.61475235
H       -1.54089744       1.60578410       0.94120899
H       -2.29174770       0.11910500       1.18755431
H       -1.17969536      -2.54884587      -0.12649542
H       -0.78643819      -1.32831130      -1.20802298
H        1.10893478      -2.44934202       0.73427516
H        0.28258298      -1.31196725       1.82488778
H        1.56510326      -0.73932886      -0.91734692
H       -0.09796504       0.60518123       0.38680335
H        3.56068340       0.53014063      -0.62407511
H        3.48373651       1.70051525       0.71919979
H        2.31476695       1.79213213      -0.61978177
21
Frame=10 idx=007723 GeodesicLength=1.3614645592462093 rxn_smarts="[C:1]([C:2]([C:3]([C:4]([C:5]([O:6][C:7]([H:19])([H:20])[H:21])([H:17])[H:18])([H:15])[H:16])([H:13])[H:14])([H:11])[H:12])([H:8])([H:9])[H:10]>>[C:1]([C:2]([H:11])([H:12])[H:18])([H:8])([H:9])[H:10].[C:3]1([H:13])([H:14])[C:4]([H:15])([H:16])[C:5]1([O:6][C:7]([H:19])([H:20])[H:21])[H:17]"
C       -2.53778008       0.85515655      -0.79112308
C       -1.68016021       0.63433049       0.45018671
C       -0.63361147      -1.55741350      -0.19356526
C        0.46300943      -1.55713606       0.80176996
C        1.15840208      -0.46698554       0.04785645
O        2.08897387       0.23968493       0.78002095
C        2.89449509       1.10094090       0.01189921
H       -3.36286825       1.54921477      -0.61225195
H       -3.00222403      -0.07250892      -1.13101708
H       -1.93219135       1.25634764      -1.60737403
H       -1.55562632       1.60981317       0.93811885
H       -2.29302689       0.12581834       1.20106914
H       -1.11482567      -2.53173578      -0.23447119
H       -0.75017794      -1.24854812      -1.22956786
H        1.06967615      -2.46543703       0.79705205
H        0.25013986      -1.27335368       1.82811741
H        1.62709355      -0.82099503      -0.88305611
H       -0.06149231       0.64092454       0.38300401
H        3.58352456       0.51243899      -0.60704807
H        3.46728219       1.71415667       0.70586952
H        2.32138775       1.75528667      -0.65548962
21
Frame=11 idx=007723 GeodesicLength=1.4962567300786689 rxn_smarts="[C:1]([C:2]([C:3]([C:4]([C:5]([O:6][C:7]([H:19])([H:20])[H:21])([H:17])[H:18])([H:15])[H:16])([H:13])[H:14])([H:11])[H:12])([H:8])([H:9])[H:10]>>[C:1]([C:2]([H:11])([H:12])[H:18])([H:8])([H:9])[H:10].[C:3]1([H:13])([H:14])[C:4]([H:15])([H:16])[C:5]1([O:6][C:7]([H:19])([H:20])[H:21])[H:17]"
C       -2.57369886       0.84499408      -0.77467001
C       -1.69100913       0.63500608       0.45182945
C       -0.60641912      -1.51815534      -0.22465865
C        0.45262411      -1.55119770       0.81682359
C        1.17817968      -0.49375786       0.04617882
O        2.09546356       0.23251460       0.78020943
C        2.89966586       1.08676563       0.00347454
H       -3.40702200       1.52508961      -0.58180097
H       -3.03064747      -0.08914096      -1.10743132
H       -1.98684259       1.25644106      -1.59935983
H       -1.57196934       1.61397830       0.93413832
H       -2.29571553       0.13250603       1.21491496
H       -1.04418970      -2.50731788      -0.34195541
H       -0.71300262      -1.16606241      -1.24838815
H        1.02500440      -2.47914120       0.85466122
H        0.21948457      -1.23550547       1.82909834
H        1.68470413      -0.89932827      -0.84364005
H       -0.02434337       0.67793487       0.38128347
H        3.60541353       0.49266869      -0.59116314
H        3.45398306       1.72447832       0.69044141
H        2.33033682       1.71722983      -0.68998603
21
Frame=12 idx=007723 GeodesicLength=1.6311744654884808 rxn_smarts="[C:1]([C:2]([C:3]([C:4]([C:5]([O:6][C:7]([H:19])([H:20])[H:21])([H:17])[H:18])([H:15])[H:16])([H:13])[H:14])([H:11])[H:12])([H:8])([H:9])[H:10]>>[C:1]([C:2]([H:11])([H:12])[H:18])([H:8])([H:9])[H:10].[C:3]1([H:13])([H:14])[C:4]([H:15])([H:16])[C:5]1([O:6][C:7]([H:19])([H:20])[H:21])[H:17]"
C       -2.60964123       0.83203848      -0.75858268
C       -1.70353525       0.63522516       0.45388540
C       -0.57885470      -1.47676443      -0.25505608
C        0.44097690      -1.54416234       0.82997373
C        1.19753626      -0.51953680       0.04596141
O        2.10263766       0.22516223       0.78081206
C        2.90618632       1.07092012      -0.00535582
H       -3.45190597       1.49694636      -0.55281450
H       -3.05699008      -0.10932200      -1.08447787
H       -2.04147982       1.25405073      -1.59089813
H       -1.58999413       1.61825476       0.92919465
H       -2.30005829       0.13929623       1.22919282
H       -0.96865268      -2.47478485      -0.44779865
H       -0.67496212      -1.08084627      -1.26422970
H        0.97502907      -2.49081211       0.90651057
H        0.19081230      -1.19857366       1.82811044
H        1.73748184      -0.97409369      -0.80014587
H        0.01372971       0.71628393       0.38226688
H        3.62638931       0.47097579      -0.57671711
H        3.44403443       1.73149762       0.67317352
H        2.34126048       1.67824471      -0.72300507
21
Frame=13 idx=007723 GeodesicLength=1.7662302207548102 rxn_smarts="[C:1]([C:2]([C:3]([C:4]([C:5]([O:6][C:7]([H:19])([H:20])[H:21])([H:17])[H:18])([H:15])[H:16])([H:13])[H:14])([H:11])[H:12])([H:8])([H:9])[H:10]>>[C:1]([C:2]([H:11])([H:12])[H:18])([H:8])([H:9])[H:10].[C:3]1([H:13])([H:14])[C:4]([H:15])([H:16])[C:5]1([O:6][C:7]([H:19])([H:20])[H:21])[H:17]"
C       -2.64520518       0.81606313      -0.74308845
C       -1.71770599       0.63481438       0.45642515
C       -0.55093679      -1.43302653      -0.28455277
C        0.42828038      -1.53615645       0.84114785
C        1.21640749      -0.54433249       0.04699936
O        2.11068550       0.21735328       0.78166133
C        2.91392438       1.05354685      -0.01455175
H       -3.49697743       1.46476973      -0.52584941
H       -3.08100368      -0.13314616      -1.06228662
H       -2.09542816       1.24860017      -1.58222887
H       -1.60967230       1.62249635       0.92315273
H       -2.30626491       0.14625680       1.24391554
H       -0.88959231      -2.43356205      -0.55033293
H       -0.63609293      -0.99296467      -1.27678281
H        0.91991620      -2.50065787       0.95214337
H        0.16428841      -1.16271647       1.82541296
H        1.78497185      -1.04499996      -0.75383374
H        0.05303653       0.75600314       0.38657360
H        3.64607211       0.44771820      -0.56448187
H        3.43780363       1.73487394       0.65442843
H        2.35349320       1.63906668      -0.75387108
21
Frame=14 idx=007723 GeodesicLength=1.9016671242722898 rxn_smarts="[C:1]([C:2]([C:3]([C:4]([C:5]([O:6][C:7]([H:19])([H:20])[H:21])([H:17])[H:18])([H:15])[H:16])([H:13])[H:14])([H:11])[H:12])([H:8])([H:9])[H:10]>>[C:1]([C:2]([H:11])([H:12])[H:18])([H:8])([H:9])[H:10].[C:3]1([H:13])([H:14])[C:4]([H:15])([H:16])[C:5]1([O:6][C:7]([H:19])([H:20])[H:21])[H:17]"
C       -2.68022138       0.79686089      -0.72834289
C       -1.73360089       0.63364232       0.45958592
C       -0.52267567      -1.38661503      -0.31298625
C        0.41478932      -1.52727618       0.85030701
C        1.23482471      -0.56812947       0.04909579
O        2.11982877       0.20900004       0.78268064
C        2.92291788       1.03476216      -0.02411877
H       -3.54199932       1.42855932      -0.50132947
H       -3.10264601      -0.16074359      -1.04088658
H       -2.14827860       1.23953395      -1.57358521
H       -1.63107562       1.62663484       0.91597580
H       -2.31463524       0.15347898       1.25917848
H       -0.80857005      -2.38326183      -0.64852586
H       -0.59640735      -0.90222446      -1.28576757
H        0.85983503      -2.50887924       0.99096365
H        0.14011820      -1.12802615       1.82130129
H        1.82715840      -1.11218017      -0.70559504
H        0.09388016       0.79719909       0.39489219
H        3.66466348       0.42294186      -0.55461689
H        3.43533125       1.73484688       0.63443016
H        2.36676291       1.59987579      -0.78265642
21
Frame=15 idx=007723 GeodesicLength=2.037580791364084 rxn_smarts="[C:1]([C:2]([C:3]([C:4]([C:5]([O:6][C:7]([H:19])([H:20])[H:21])([H:17])[H:18])([H:15])[H:16])([H:13])[H:14])([H:11])[H:12])([H:8])([H:9])[H:10]>>[C:1]([C:2]([H:11])([H:12])[H:18])([H:8])([H:9])[H:10].[C:3]1([H:13])([H:14])[C:4]([H:15])([H:16])[C:5]1([O:6][C:7]([H:19])([H:20])[H:21])[H:17]"
C       -2.71430200       0.77420450      -0.71452604
C       -1.75115498       0.63155506       0.46344418
C       -0.49403674      -1.33718450      -0.34011080
C        0.40070577      -1.51757450       0.85744179
C        1.25273307      -0.59089695       0.05204468
O        2.13021943       0.19991419       0.78374653
C        2.93303205       1.01469793      -0.03407030
H       -3.58651752       1.38824166      -0.47973681
H       -3.12161264      -0.19225429      -1.02028602
H       -2.19941029       1.22633575      -1.56521336
H       -1.65410224       1.63053613       0.90748395
H       -2.32533700       0.16105405       1.27500160
H       -0.72743996      -2.32381115      -0.74117960
H       -0.55586778      -0.80839965      -1.29077699
H        0.79493686      -2.51547649       1.02257569
H        0.11840220      -1.09458737       1.81601772
H        1.86389371      -1.17565892      -0.65644424
H        0.13666020       0.83992829       0.40786797
H        3.68195813       0.39684696      -0.54761199
H        3.43669743       1.73134896       0.61343741
H        2.38054229       1.56118035      -0.80910538
21
Frame=16 idx=007723 GeodesicLength=2.1741537877748582 rxn_smarts="[C:1]([C:2]([C:3]([C:4]([C:5]([O:6][C:7]([H:19])([H:20])[H:21])([H:17])[H:18])([H:15])[H:16])([H:13])[H:14])([H:11])[H:12])([H:8])([H:9])[H:10]>>[C:1]([C:2]([H:11])([H:12])[H:18])([H:8])([H:9])[H:10].[C:3]1([H:13])([H:14])[C:4]([H:15])([H:16])[C:5]1([O:6][C:7]([H:19])([H:20])[H:21])[H:17]"
C       -2.74713303       0.74791224      -0.70180354
C       -1.77036167       0.62842288       0.46810748
C       -0.46501146      -1.28438913      -0.36563548
C        0.38619774      -1.50705682       0.86261936
C        1.27008273      -0.61261757       0.05565328
O        2.14203436       0.18993200       0.78475984
C        2.94418082       0.99345117      -0.04446806
H       -3.63020754       1.34376684      -0.46151711
H       -3.13764724      -0.22778946      -1.00050547
H       -2.24825168       1.20857622      -1.55734784
H       -1.67867454       1.63407469       0.89755712
H       -2.33863531       0.16909403       1.29141347
H       -0.64784038      -2.25544645      -0.82760465
H       -0.51446298      -0.71115948      -1.29130024
H        0.72540338      -2.52028245       1.04676476
H        0.09917796      -1.06239091       1.80985262
H        1.89512253      -1.23560897      -0.60730377
H        0.18181816       0.88422870       0.42617192
H        3.69787119       0.36952882      -0.54388811
H        3.44194358       1.72440357       0.59163101
H        2.39439338       1.52335009      -0.83315658
