13
Frame=0 idx=001009 GeodesicLength=0.0 rxn_smarts="[O:1]([C:2]([C:3]([O:4]/[C:5](=[N:6]/[H:13])[H:12])([H:10])[H:11])([H:8])[H:9])[H:7]>>[O:1]=[C:2]([C:3]([H:9])([H:10])[H:11])[H:8].[O:4]=[C:5]([N:6]([H:7])[H:13])[H:12]"
O       -1.79111210       0.33645965       0.23459993
C       -1.23056552      -0.81278717       0.40576081
C       -0.09424582      -1.23899094      -0.36878783
O        1.56684143      -0.26684531       0.04490693
C        1.48419930       0.97577514       0.04274058
N        0.37650242       1.67908749      -0.00538650
H       -0.61287063       1.21322627       0.05222953
H       -1.31657081      -1.31398650       1.38428433
H       -1.58682618      -1.71601055      -0.35764111
H        0.35636855      -2.19328300      -0.12982220
H       -0.03908313      -0.88796293      -1.39215631
H        2.42082133       1.54520665       0.07671231
H        0.46654118       2.68011122       0.01255951
13
Frame=1 idx=001009 GeodesicLength=0.07368235147118071 rxn_smarts="[O:1]([C:2]([C:3]([O:4]/[C:5](=[N:6]/[H:13])[H:12])([H:10])[H:11])([H:8])[H:9])[H:7]>>[O:1]=[C:2]([C:3]([H:9])([H:10])[H:11])[H:8].[O:4]=[C:5]([N:6]([H:7])[H:13])[H:12]"
O       -1.78703625       0.34029866       0.23655016
C       -1.23813434      -0.81569556       0.40422120
C       -0.10053092      -1.24270747      -0.37437803
O        1.56628856      -0.26243606       0.02722312
C        1.48941927       0.98196267       0.02793507
N        0.38277681       1.68730900      -0.00344308
H       -0.61906253       1.21648784       0.06262399
H       -1.33552442      -1.31327584       1.38345596
H       -1.57763979      -1.74133176      -0.35776258
H        0.37035404      -2.18170990      -0.11480944
H       -0.05768552      -0.90235156      -1.40249759
H        2.42792584       1.54549184       0.09440473
H        0.47884926       2.68795813       0.01647650
13
Frame=2 idx=001009 GeodesicLength=0.1473754232982481 rxn_smarts="[O:1]([C:2]([C:3]([O:4]/[C:5](=[N:6]/[H:13])[H:12])([H:10])[H:11])([H:8])[H:9])[H:7]>>[O:1]=[C:2]([C:3]([H:9])([H:10])[H:11])[H:8].[O:4]=[C:5]([N:6]([H:7])[H:13])[H:12]"
O       -1.78296967       0.34411914       0.23829263
C       -1.24602394      -0.81864455       0.40229041
C       -0.10670703      -1.24639319      -0.37983459
O        1.56552092      -0.25775236       0.01008145
C        1.49470707       0.98843191       0.01381924
N        0.38928503       1.69570762      -0.00112213
H       -0.62524207       1.21971339       0.07298788
H       -1.35510332      -1.31244569       1.38215810
H       -1.56769268      -1.76740164      -0.35733182
H        0.38411248      -2.16930794      -0.10021171
H       -0.07607252      -0.91701963      -1.41252866
H        2.43483176       1.54505483       0.11027633
H        0.49135398       2.69593809       0.02112287
13
Frame=3 idx=001009 GeodesicLength=0.22106274993490244 rxn_smarts="[O:1]([C:2]([C:3]([O:4]/[C:5](=[N:6]/[H:13])[H:12])([H:10])[H:11])([H:8])[H:9])[H:7]>>[O:1]=[C:2]([C:3]([H:9])([H:10])[H:11])[H:8].[O:4]=[C:5]([N:6]([H:7])[H:13])[H:12]"
O       -1.77895881       0.34790251       0.23982372
C       -1.25428916      -0.82165687       0.39991525
C       -0.11276312      -1.25004042      -0.38513437
O        1.56455199      -0.25284807      -0.00627154
C        1.50001714       0.99511622       0.00099991
N        0.39601429       1.70426325       0.00176914
H       -0.63147407       1.22291925       0.08336150
H       -1.37544792      -1.31160686       1.38027451
H       -1.55692803      -1.79415777      -0.35642737
H        0.39757150      -2.15613900      -0.08603527
H       -0.09411851      -0.93189472      -1.42219935
H        2.44174238       1.54408687       0.12347361
H        0.50408232       2.70405561       0.02645026
13
Frame=4 idx=001009 GeodesicLength=0.2947813714605125 rxn_smarts="[O:1]([C:2]([C:3]([O:4]/[C:5](=[N:6]/[H:13])[H:12])([H:10])[H:11])([H:8])[H:9])[H:7]>>[O:1]=[C:2]([C:3]([H:9])([H:10])[H:11])[H:8].[O:4]=[C:5]([N:6]([H:7])[H:13])[H:12]"
O       -1.77499154       0.35161369       0.24143605
C       -1.26291757      -0.82477798       0.39714246
C       -0.11875245      -1.25360879      -0.39037967
O        1.56340786      -0.24776061      -0.02193193
C        1.50534176       1.00193356      -0.01029027
N        0.40297958       1.71295098       0.00552893
H       -0.63778078       1.22604345       0.09401211
H       -1.39642142      -1.31089258       1.37777867
H       -1.54538467      -1.82147545      -0.35508489
H        0.41068958      -2.14222775      -0.07246252
H       -0.11195290      -0.94679327      -1.43158091
H        2.44876140       1.54272285       0.13457928
H        0.51702114       2.71227191       0.03125271
13
Frame=5 idx=001009 GeodesicLength=0.3683325415830929 rxn_smarts="[O:1]([C:2]([C:3]([O:4]/[C:5](=[N:6]/[H:13])[H:12])([H:10])[H:11])([H:8])[H:9])[H:7]>>[O:1]=[C:2]([C:3]([H:9])([H:10])[H:11])[H:8].[O:4]=[C:5]([N:6]([H:7])[H:13])[H:12]"
O       -1.77104979       0.35528027       0.24298272
C       -1.27187196      -0.82793915       0.39398558
C       -0.12468449      -1.25716166      -0.39554657
O        1.56208195      -0.24247743      -0.03722850
C        1.51068149       1.00891055      -0.02062919
N        0.41013261       1.72179758       0.00956788
H       -0.64414525       1.22916959       0.10455880
H       -1.41801731      -1.31018309       1.37474085
H       -1.53296602      -1.84940451      -0.35300396
H        0.42339626      -2.12763532      -0.05939146
H       -0.12966199      -0.96203303      -1.44071189
H        2.45591147       1.54104798       0.14410368
H        0.53019304       2.72062822       0.03657207
13
Frame=6 idx=001009 GeodesicLength=0.44182124548884727 rxn_smarts="[O:1]([C:2]([C:3]([O:4]/[C:5](=[N:6]/[H:13])[H:12])([H:10])[H:11])([H:8])[H:9])[H:7]>>[O:1]=[C:2]([C:3]([H:9])([H:10])[H:11])[H:8].[O:4]=[C:5]([N:6]([H:7])[H:13])[H:12]"
O       -1.76712216       0.35886418       0.24483938
C       -1.28118139      -0.83123267       0.39046678
C       -0.13059460      -1.26061314      -0.40071441
O        1.56061306      -0.23704219      -0.05194440
C        1.51605442       1.01597408      -0.02953034
N        0.41755687       1.73075289       0.01472279
H       -0.65056744       1.23224339       0.11565336
H       -1.44024821      -1.30980634       1.37103048
H       -1.51973459      -1.87772701      -0.35047479
H        0.43567874      -2.11240617      -0.04705214
H       -0.14727662      -0.97724038      -1.44958571
H        2.46331533       1.53917544       0.15215086
H        0.54350659       2.72905792       0.04043812
13
Frame=7 idx=001009 GeodesicLength=0.5153237354373568 rxn_smarts="[O:1]([C:2]([C:3]([O:4]/[C:5](=[N:6]/[H:13])[H:12])([H:10])[H:11])([H:8])[H:9])[H:7]>>[O:1]=[C:2]([C:3]([H:9])([H:10])[H:11])[H:8].[O:4]=[C:5]([N:6]([H:7])[H:13])[H:12]"
O       -1.76320679       0.36239667       0.24671952
C       -1.29080165      -0.83455473       0.38659494
C       -0.13649288      -1.26407868      -0.40585243
O        1.55899218      -0.23140696      -0.06658907
C        1.52147308       1.02317614      -0.03780983
N        0.42520921       1.73986861       0.02000756
H       -0.65709200       1.23531718       0.12664386
H       -1.46305567      -1.30943881       1.36676709
H       -1.50558907      -1.90656953      -0.34706034
H        0.44754968      -2.09654986      -0.03520036
H       -0.16492917      -0.99290999      -1.45828654
H        2.47087613       1.53709938       0.15931663
H        0.55706695       2.73765058       0.04474896
13
Frame=8 idx=001009 GeodesicLength=0.5888817134959744 rxn_smarts="[O:1]([C:2]([C:3]([O:4]/[C:5](=[N:6]/[H:13])[H:12])([H:10])[H:11])([H:8])[H:9])[H:7]>>[O:1]=[C:2]([C:3]([H:9])([H:10])[H:11])[H:8].[O:4]=[C:5]([N:6]([H:7])[H:13])[H:12]"
O       -1.75933115       0.36586104       0.24845436
C       -1.30073736      -0.83787993       0.38232667
C       -0.14237826      -1.26758861      -0.41093587
O        1.55721693      -0.22552582      -0.08136740
C        1.52694057       1.03052977      -0.04578404
N        0.43309444       1.74919454       0.02518544
H       -0.66376242       1.23835364       0.13729843
H       -1.48647005      -1.30895673       1.36192603
H       -1.49045792      -1.93589295      -0.34255437
H        0.45902631      -2.08001674      -0.02368579
H       -0.18264375      -1.00925884      -1.46680121
H        2.47858852       1.53480578       0.16564378
H        0.57091412       2.74637486       0.05029399
13
Frame=9 idx=001009 GeodesicLength=0.6622534499485768 rxn_smarts="[O:1]([C:2]([C:3]([O:4]/[C:5](=[N:6]/[H:13])[H:12])([H:10])[H:11])([H:8])[H:9])[H:7]>>[O:1]=[C:2]([C:3]([H:9])([H:10])[H:11])[H:8].[O:4]=[C:5]([N:6]([H:7])[H:13])[H:12]"
O       -1.75541560       0.36923986       0.25036176
C       -1.31096113      -0.84125394       0.37771921
C       -0.14827942      -1.27109076      -0.41603125
O        1.55526856      -0.21940311      -0.09626509
C        1.53246902       1.03802657      -0.05328917
N        0.44118606       1.75870664       0.03047562
H       -0.67041919       1.24130432       0.14815428
H       -1.51051264      -1.30861694       1.35644103
H       -1.47434684      -1.96553026      -0.33711119
H        0.47006311      -2.06283314      -0.01269071
H       -0.20048074      -1.02609037      -1.47514467
H        2.48642065       1.53230767       0.17161741
H        0.58500817       2.75523348       0.05576277
13
Frame=10 idx=001009 GeodesicLength=0.7357581125727356 rxn_smarts="[O:1]([C:2]([C:3]([O:4]/[C:5](=[N:6]/[H:13])[H:12])([H:10])[H:11])([H:8])[H:9])[H:7]>>[O:1]=[C:2]([C:3]([H:9])([H:10])[H:11])[H:8].[O:4]=[C:5]([N:6]([H:7])[H:13])[H:12]"
O       -1.75151769       0.37256728       0.25247545
C       -1.32149168      -0.84466841       0.37277284
C       -0.15418472      -1.27462218      -0.42114949
O        1.55318026      -0.21307138      -0.11124136
C        1.53807791       1.04565417      -0.06030676
N        0.44951261       1.76845070       0.03601490
H       -0.67718506       1.24425550       0.15924120
H       -1.53523192      -1.30848439       1.35028100
H       -1.45721961      -1.99541287      -0.33073924
H        0.48070434      -2.04509041      -0.00222233
H       -0.21843561      -1.04347499      -1.48335402
H        2.49445291       1.52960459       0.17714624
H        0.59933827       2.76429239       0.06108155
13
Frame=11 idx=001009 GeodesicLength=0.809021462334518 rxn_smarts="[O:1]([C:2]([C:3]([O:4]/[C:5](=[N:6]/[H:13])[H:12])([H:10])[H:11])([H:8])[H:9])[H:7]>>[O:1]=[C:2]([C:3]([H:9])([H:10])[H:11])[H:8].[O:4]=[C:5]([N:6]([H:7])[H:13])[H:12]"
O       -1.74750987       0.37569771       0.25496618
C       -1.33229867      -0.84816117       0.36749734
C       -0.16011004      -1.27805324      -0.42625048
O        1.55089928      -0.20644900      -0.12627947
C        1.54375732       1.05339778      -0.06678627
N        0.45818944       1.77821289       0.04186780
H       -0.68401863       1.24718630       0.17086815
H       -1.56070918      -1.30881017       1.34324584
H       -1.43907306      -2.02527575      -0.32346242
H        0.49085699      -2.02665967       0.00761628
H       -0.23646482      -1.06121028      -1.49123139
H        2.50259104       1.52672711       0.18240183
H        0.61389021       2.77339749       0.06554662
13
Frame=12 idx=001009 GeodesicLength=0.8823784955952922 rxn_smarts="[O:1]([C:2]([C:3]([O:4]/[C:5](=[N:6]/[H:13])[H:12])([H:10])[H:11])([H:8])[H:9])[H:7]>>[O:1]=[C:2]([C:3]([H:9])([H:10])[H:11])[H:8].[O:4]=[C:5]([N:6]([H:7])[H:13])[H:12]"
O       -1.74350539       0.37875365       0.25756789
C       -1.34339906      -0.85166678       0.36185401
C       -0.16603227      -1.28156428      -0.43134406
O        1.54845449      -0.19956026      -0.14160549
C        1.54952456       1.06130048      -0.07311126
N        0.46706419       1.78827712       0.04749858
H       -0.69088634       1.25006624       0.18284626
H       -1.58704968      -1.30932868       1.33541849
H       -1.41981480      -2.05524227      -0.31510675
H        0.50062181      -2.00763962       0.01709415
H       -0.25461179      -1.07976954      -1.49894892
H        2.51088258       1.52364951       0.18728257
H        0.62875169       2.78272443       0.07055455
13
Frame=13 idx=001009 GeodesicLength=0.955800620371981 rxn_smarts="[O:1]([C:2]([C:3]([O:4]/[C:5](=[N:6]/[H:13])[H:12])([H:10])[H:11])([H:8])[H:9])[H:7]>>[O:1]=[C:2]([C:3]([H:9])([H:10])[H:11])[H:8].[O:4]=[C:5]([N:6]([H:7])[H:13])[H:12]"
O       -1.73947607       0.38169519       0.26011465
C       -1.35479652      -0.85516363       0.35578821
C       -0.17194281      -1.28516702      -0.43637948
O        1.54581346      -0.19232789      -0.15751709
C        1.55536612       1.06939919      -0.07957368
N        0.47615720       1.79861811       0.05263025
H       -0.69779635       1.25284317       0.19514175
H       -1.61438580      -1.30996410       1.32667036
H       -1.39935593      -2.08522119      -0.30544601
H        0.51001750      -1.98788766       0.02636515
H       -0.27285890      -1.09937660      -1.50641181
H        2.51924864       1.52034526       0.19179899
H        0.64400946       2.79220718       0.07681870
13
Frame=14 idx=001009 GeodesicLength=1.0293070959332784 rxn_smarts="[O:1]([C:2]([C:3]([O:4]/[C:5](=[N:6]/[H:13])[H:12])([H:10])[H:11])([H:8])[H:9])[H:7]>>[O:1]=[C:2]([C:3]([H:9])([H:10])[H:11])[H:8].[O:4]=[C:5]([N:6]([H:7])[H:13])[H:12]"
O       -1.73535865       0.38451985       0.26300213
C       -1.36645304      -0.85868239       0.34937590
C       -0.17785514      -1.28881996      -0.44142513
O        1.54298883      -0.18476726      -0.17394771
C        1.56131260       1.07766691      -0.08589964
N        0.48549768       1.80919814       0.05743010
H       -0.70469702       1.25560809       0.20834643
H       -1.64274193      -1.31104028       1.31690610
H       -1.37772809      -2.11504239      -0.29467736
H        0.51905192      -1.96747787       0.03518478
H       -0.29126457      -1.11982055      -1.51363480
H        2.52766563       1.51675672       0.19645805
H        0.65958177       2.80190099       0.08288115
13
Frame=15 idx=001009 GeodesicLength=1.1026695003723597 rxn_smarts="[O:1]([C:2]([C:3]([O:4]/[C:5](=[N:6]/[H:13])[H:12])([H:10])[H:11])([H:8])[H:9])[H:7]>>[O:1]=[C:2]([C:3]([H:9])([H:10])[H:11])[H:8].[O:4]=[C:5]([N:6]([H:7])[H:13])[H:12]"
O       -1.73112208       0.38714264       0.26601738
C       -1.37837182      -0.86220874       0.34253461
C       -0.18375901      -1.29250883      -0.44642109
O        1.53991435      -0.17678217      -0.19108135
C        1.56732771       1.08612406      -0.09234848
N        0.49504725       1.82002815       0.06162326
H       -0.71148908       1.25811874       0.22244672
H       -1.67227021      -1.31243483       1.30595469
H       -1.35484939      -2.14454963      -0.28255945
H        0.52767701      -1.94620774       0.04371837
H       -0.30972904      -1.14129124      -1.52048890
H        2.53605245       1.51287656       0.20103795
H        0.67557187       2.81169303       0.08956630
13
Frame=16 idx=001009 GeodesicLength=1.1761532963875554 rxn_smarts="[O:1]([C:2]([C:3]([O:4]/[C:5](=[N:6]/[H:13])[H:12])([H:10])[H:11])([H:8])[H:9])[H:7]>>[O:1]=[C:2]([C:3]([H:9])([H:10])[H:11])[H:8].[O:4]=[C:5]([N:6]([H:7])[H:13])[H:12]"
O       -1.72675788       0.38964037       0.26931072
C       -1.39054542      -0.86572554       0.33528105
C       -0.18964087      -1.29630098      -0.45139494
O        1.53661196      -0.16839815      -0.20898752
C        1.57343600       1.09477966      -0.09891281
N        0.50479736       1.83117575       0.06515616
H       -0.71816791       1.26048587       0.23777438
H       -1.70309505      -1.31426260       1.29371175
H       -1.33069340      -2.17369004      -0.26912984
H        0.53597200      -1.92416663       0.05192922
H       -0.32828596      -1.16389231      -1.52701968
H        2.54441199       1.50865471       0.20572992
H        0.69195718       2.82169990       0.09655159
