11
Frame=0 idx=004744 GeodesicLength=0.0 rxn_smarts="[N:1]([C:2](=[O:3])[N:4](/[C:5](=[N:6]/[H:11])[H:10])[H:9])([H:7])[H:8]>>[C:5](#[N:6])[H:10].[N:1]([C+:2]([O:3][H:11])[N-:4][H:9])([H:7])[H:8]"
N       -1.89859225      -0.46531156       0.13839617
C       -0.55924138      -0.32680730      -0.02275709
O        0.06246498      -1.41735905      -0.34491759
N        0.08912248       0.78843678       0.14750210
C        1.91555941       0.67987022       0.01762887
N        2.36207106      -0.38297681      -0.25285888
H       -2.30361239      -1.33249525      -0.16645932
H       -2.48609401       0.34627561       0.16484128
H       -0.44679044       1.58974042       0.44439536
H        2.16910620       1.70702511       0.23637154
H        1.09600636      -1.18639816      -0.36214239
11
Frame=1 idx=004744 GeodesicLength=0.10540551250642012 rxn_smarts="[N:1]([C:2](=[O:3])[N:4](/[C:5](=[N:6]/[H:11])[H:10])[H:9])([H:7])[H:8]>>[C:5](#[N:6])[H:10].[N:1]([C+:2]([O:3][H:11])[N-:4][H:9])([H:7])[H:8]"
N       -1.90305828      -0.46140867       0.13739023
C       -0.56641422      -0.32363540      -0.04747224
O        0.05525262      -1.40823881      -0.38451163
N        0.08947297       0.78330893       0.15933195
C        1.92555249       0.66592904       0.08217176
N        2.38870443      -0.39081845      -0.19031352
H       -2.31508073      -1.32496400      -0.16807578
H       -2.48712313       0.35208832       0.18019860
H       -0.44298975       1.57708572       0.48184064
H        2.13658420       1.72475397       0.12936870
H        1.11909940      -1.19410066      -0.37992869
11
Frame=2 idx=004744 GeodesicLength=0.2114613921647591 rxn_smarts="[N:1]([C:2](=[O:3])[N:4](/[C:5](=[N:6]/[H:11])[H:10])[H:9])([H:7])[H:8]>>[C:5](#[N:6])[H:10].[N:1]([C+:2]([O:3][H:11])[N-:4][H:9])([H:7])[H:8]"
N       -1.90740126      -0.45765642       0.13260239
C       -0.57289974      -0.31856155      -0.06853594
O        0.05061744      -1.39462988      -0.42471501
N        0.08933731       0.77784247       0.18236001
C        1.93369772       0.66317521       0.11993201
N        2.41282529      -0.39936833      -0.10553471
H       -2.32496606      -1.31490988      -0.18270327
H       -2.48811218       0.35701783       0.19650624
H       -0.43946964       1.56036081       0.53696501
H        2.10115196       1.72526174       0.00532473
H        1.14521917      -1.19853201      -0.39220145
11
Frame=3 idx=004744 GeodesicLength=0.3181618295580064 rxn_smarts="[N:1]([C:2](=[O:3])[N:4](/[C:5](=[N:6]/[H:11])[H:10])[H:9])([H:7])[H:8]>>[C:5](#[N:6])[H:10].[N:1]([C+:2]([O:3][H:11])[N-:4][H:9])([H:7])[H:8]"
N       -1.91169086      -0.45300241       0.12466994
C       -0.57844847      -0.31272905      -0.08521080
O        0.04839186      -1.37997596      -0.45734514
N        0.08881548       0.77239959       0.20817938
C        1.94156375       0.66677252       0.14400353
N        2.43421489      -0.40129432      -0.02887415
H       -2.33407201      -1.30173299      -0.20644119
H       -2.48857360       0.36230319       0.21161836
H       -0.43579067       1.54056819       0.59842123
H        2.06156174       1.71010504      -0.11619683
H        1.17402788      -1.20341380      -0.39282431
11
Frame=4 idx=004744 GeodesicLength=0.42573489960609606 rxn_smarts="[N:1]([C:2](=[O:3])[N:4](/[C:5](=[N:6]/[H:11])[H:10])[H:9])([H:7])[H:8]>>[C:5](#[N:6])[H:10].[N:1]([C+:2]([O:3][H:11])[N-:4][H:9])([H:7])[H:8]"
N       -1.91595730      -0.44801846       0.11570752
C       -0.58385015      -0.30592543      -0.10187441
O        0.04763673      -1.36596376      -0.48302611
N        0.08733592       0.76889446       0.22774598
C        1.94888070       0.67455505       0.16039448
N        2.45415942      -0.39660662       0.03805410
H       -2.34340734      -1.28609446      -0.23518972
H       -2.48875159       0.36677125       0.23043761
H       -0.43164713       1.51857207       0.65927374
H        2.02107393       1.68321357      -0.22648181
H        1.20452681      -1.20939765      -0.38504138
11
Frame=5 idx=004744 GeodesicLength=0.533528302524735 rxn_smarts="[N:1]([C:2](=[O:3])[N:4](/[C:5](=[N:6]/[H:11])[H:10])[H:9])([H:7])[H:8]>>[C:5](#[N:6])[H:10].[N:1]([C+:2]([O:3][H:11])[N-:4][H:9])([H:7])[H:8]"
N       -1.92005488      -0.44327551       0.10728288
C       -0.58944023      -0.29852004      -0.11923463
O        0.04736722      -1.35237438      -0.50524572
N        0.08490198       0.76732112       0.24010885
C        1.95546692       0.68503402       0.17145254
N        2.47330444      -0.38652238       0.09656603
H       -2.35321090      -1.26804643      -0.26692114
H       -2.48839541       0.36940798       0.25446225
H       -0.42693337       1.49521384       0.71510198
H        1.98146520       1.64865920      -0.32335377
H        1.23552903      -1.21689740      -0.37021928
11
Frame=6 idx=004744 GeodesicLength=0.641729450345372 rxn_smarts="[N:1]([C:2](=[O:3])[N:4](/[C:5](=[N:6]/[H:11])[H:10])[H:9])([H:7])[H:8]>>[C:5](#[N:6])[H:10].[N:1]([C+:2]([O:3][H:11])[N-:4][H:9])([H:7])[H:8]"
N       -1.92467595      -0.43829696       0.09861435
C       -0.59504382      -0.29185939      -0.13426586
O        0.04729389      -1.34076875      -0.52145270
N        0.08194820       0.76649141       0.24944159
C        1.96160014       0.69772946       0.17767850
N        2.49241136      -0.37172177       0.14770599
H       -2.36403995      -1.24725293      -0.30172904
H       -2.48771844       0.37127260       0.27960470
H       -0.42151801       1.47026768       0.76770596
H        1.94224287       1.60872885      -0.41014812
H        1.26749972      -1.22459020      -0.35315537
11
Frame=7 idx=004744 GeodesicLength=0.7501865883689276 rxn_smarts="[N:1]([C:2](=[O:3])[N:4](/[C:5](=[N:6]/[H:11])[H:10])[H:9])([H:7])[H:8]>>[C:5](#[N:6])[H:10].[N:1]([C+:2]([O:3][H:11])[N-:4][H:9])([H:7])[H:8]"
N       -1.93049947      -0.43193551       0.08788393
C       -0.60036899      -0.28728787      -0.14463196
O        0.04718820      -1.33354134      -0.52710804
N        0.07894680       0.76451347       0.25995959
C        1.96742317       0.71278522       0.17765223
N        2.51311647      -0.35153984       0.18953945
H       -2.37629351      -1.22187301      -0.34205469
H       -2.48679132       0.37428592       0.30176192
H       -0.41476745       1.44160519       0.82137740
H        1.90070036       1.56543125      -0.49023517
H        1.30134575      -1.23244348      -0.33414465
11
Frame=8 idx=004744 GeodesicLength=0.8589924023923706 rxn_smarts="[N:1]([C:2](=[O:3])[N:4](/[C:5](=[N:6]/[H:11])[H:10])[H:9])([H:7])[H:8]>>[C:5](#[N:6])[H:10].[N:1]([C+:2]([O:3][H:11])[N-:4][H:9])([H:7])[H:8]"
N       -1.93685139      -0.42529661       0.07741245
C       -0.60595562      -0.28348580      -0.15390310
O        0.04646438      -1.32795184      -0.52978862
N        0.07556703       0.76261357       0.26865643
C        1.97279699       0.72897056       0.17493351
N        2.53425831      -0.32800319       0.22706055
H       -2.38924097      -1.19403777      -0.38283645
H       -2.48582652       0.37645034       0.32452918
H       -0.40735644       1.41194420       0.87076824
H        1.85958682       1.51867122      -0.56185194
H        1.33655740      -1.23987469      -0.31498025
11
Frame=9 idx=004744 GeodesicLength=0.9679694095493386 rxn_smarts="[N:1]([C:2](=[O:3])[N:4](/[C:5](=[N:6]/[H:11])[H:10])[H:9])([H:7])[H:8]>>[C:5](#[N:6])[H:10].[N:1]([C+:2]([O:3][H:11])[N-:4][H:9])([H:7])[H:8]"
N       -1.94352717      -0.41875284       0.06792681
C       -0.61207116      -0.27993423      -0.16342591
O        0.04480756      -1.32291817      -0.53241742
N        0.07170247       0.76115747       0.27467457
C        1.97763848       0.74563694       0.17099716
N        2.55505535      -0.30214533       0.26248065
H       -2.40268909      -1.16505074      -0.42149940
H       -2.48488862       0.37713306       0.34859199
H       -0.39966728       1.38246332       0.91437188
H        1.82061393       1.46895843      -0.62477345
H        1.37302554      -1.24654792      -0.29692688
11
Frame=10 idx=004744 GeodesicLength=1.0771112447395805 rxn_smarts="[N:1]([C:2](=[O:3])[N:4](/[C:5](=[N:6]/[H:11])[H:10])[H:9])([H:7])[H:8]>>[C:5](#[N:6])[H:10].[N:1]([C+:2]([O:3][H:11])[N-:4][H:9])([H:7])[H:8]"
N       -1.95074266      -0.41199469       0.05872272
C       -0.61865788      -0.27692787      -0.17264338
O        0.04217466      -1.31892413      -0.53403549
N        0.06748227       0.75962293       0.27923699
C        1.98195171       0.76286398       0.16519011
N        2.57590669      -0.27366503       0.29527422
H       -2.41678450      -1.13424819      -0.45932312
H       -2.48399156       0.37675514       0.37310189
H       -0.39146543       1.35237868       0.95416717
H        1.78306453       1.41690277      -0.68071375
H        1.41106215      -1.25276360      -0.27897734
11
Frame=11 idx=004744 GeodesicLength=1.1863804216308615 rxn_smarts="[N:1]([C:2](=[O:3])[N:4](/[C:5](=[N:6]/[H:11])[H:10])[H:9])([H:7])[H:8]>>[C:5](#[N:6])[H:10].[N:1]([C+:2]([O:3][H:11])[N-:4][H:9])([H:7])[H:8]"
N       -1.95850071      -0.40506052       0.04988932
C       -0.62578933      -0.27439637      -0.18180328
O        0.03842212      -1.31571579      -0.53555177
N        0.06296906       0.75784417       0.28258799
C        1.98575642       0.78037975       0.15779035
N        2.59685608      -0.24284252       0.32559633
H       -2.43154195      -1.10190604      -0.49577424
H       -2.48315906       0.37536368       0.39777007
H       -0.38282321       1.32190540       0.99022405
H        1.74710795       1.36312550      -0.72996953
H        1.45070261      -1.25869724      -0.26075928
11
Frame=12 idx=004744 GeodesicLength=1.2957300430260326 rxn_smarts="[N:1]([C:2](=[O:3])[N:4](/[C:5](=[N:6]/[H:11])[H:10])[H:9])([H:7])[H:8]>>[C:5](#[N:6])[H:10].[N:1]([C+:2]([O:3][H:11])[N-:4][H:9])([H:7])[H:8]"
N       -1.96679173      -0.39804122       0.04153543
C       -0.63355733      -0.27222129      -0.19125177
O        0.03342933      -1.31303618      -0.53778760
N        0.05816071       0.75581789       0.28460328
C        1.98904733       0.79797593       0.14909717
N        2.61775753      -0.20989019       0.35403374
H       -2.44705158      -1.06815215      -0.53057404
H       -2.48235164       0.37275474       0.42292115
H       -0.37381502       1.29123964       1.02252011
H        1.71312731       1.30792427      -0.77299996
H        1.49204509      -1.26437143      -0.24209752
11
Frame=13 idx=004744 GeodesicLength=1.4051513771483866 rxn_smarts="[N:1]([C:2](=[O:3])[N:4](/[C:5](=[N:6]/[H:11])[H:10])[H:9])([H:7])[H:8]>>[C:5](#[N:6])[H:10].[N:1]([C+:2]([O:3][H:11])[N-:4][H:9])([H:7])[H:8]"
N       -1.97569313      -0.39078962       0.03347252
C       -0.64198886      -0.27044416      -0.20093775
O        0.02709247      -1.31093884      -0.54083099
N        0.05312401       0.75329857       0.28569219
C        1.99181885       0.81557949       0.13903151
N        2.63875200      -0.17473188       0.38048368
H       -2.46337199      -1.03296696      -0.56375746
H       -2.48159977       0.36921461       0.44804353
H       -0.36436530       1.26005247       1.05177867
H        1.68091294       1.25156665      -0.81041947
H        1.53531878      -1.26984032      -0.22255644
11
Frame=14 idx=004744 GeodesicLength=1.5146102757400839 rxn_smarts="[N:1]([C:2](=[O:3])[N:4](/[C:5](=[N:6]/[H:11])[H:10])[H:9])([H:7])[H:8]>>[C:5](#[N:6])[H:10].[N:1]([C+:2]([O:3][H:11])[N-:4][H:9])([H:7])[H:8]"
N       -1.98521722      -0.38335889       0.02580943
C       -0.65116310      -0.26901016      -0.21105319
O        0.01927839      -1.30929379      -0.54525927
N        0.04788321       0.75019586       0.28583446
C        1.99407870       0.83304077       0.12779701
N        2.65975439      -0.13744736       0.40531093
H       -2.48062475      -0.99639010      -0.59513330
H       -2.48086079       0.36469284       0.47325774
H       -0.35454114       1.22844782       1.07800022
H        1.65066685       1.19418057      -0.84255966
H        1.58074546      -1.27505756      -0.20200436
11
Frame=15 idx=004744 GeodesicLength=1.6240891175585102 rxn_smarts="[N:1]([C:2](=[O:3])[N:4](/[C:5](=[N:6]/[H:11])[H:10])[H:9])([H:7])[H:8]>>[C:5](#[N:6])[H:10].[N:1]([C+:2]([O:3][H:11])[N-:4][H:9])([H:7])[H:8]"
N       -1.99541564      -0.37568979       0.01852031
C       -0.66114586      -0.26790842      -0.22167221
O        0.00984114      -1.30808971      -0.55136072
N        0.04247942       0.74634028       0.28517063
C        1.99581569       0.85026881       0.11541108
N        2.68077432      -0.09795223       0.42863952
H       -2.49891475      -0.95838182      -0.62464798
H       -2.48012963       0.35932925       0.49841067
H       -0.34432413       1.19623126       1.10151232
H        1.62237855       1.13581463      -0.86981341
H        1.62864089      -1.27996227      -0.18017022
11
Frame=16 idx=004744 GeodesicLength=1.7335736370311128 rxn_smarts="[N:1]([C:2](=[O:3])[N:4](/[C:5](=[N:6]/[H:11])[H:10])[H:9])([H:7])[H:8]>>[C:5](#[N:6])[H:10].[N:1]([C+:2]([O:3][H:11])[N-:4][H:9])([H:7])[H:8]"
N       -2.00634162      -0.36771870       0.01158409
C       -0.67201721      -0.26710980      -0.23290945
O       -0.00139461      -1.30729933      -0.55948615
N        0.03695072       0.74156314       0.28378889
C        1.99701367       0.86718564       0.10185497
N        2.70179536      -0.05609545       0.45059737
H       -2.51836562      -0.91885335      -0.65226144
H       -2.47938492       0.35323457       0.52344258
H       -0.33366634       1.16313907       1.12260105
H        1.59604867       1.07640751      -0.89252528
H        1.67936190      -1.28445331      -0.15668662
