12
Frame=0 idx=000256 GeodesicLength=0.0 rxn_smarts="[C:1]([N:2]1[C:3]([H:10])([H:11])[C@:4]1([C:5]#[N:6])[H:12])([H:7])([H:8])[H:9]>>[C-:1]([N+:2]1=[C:4]([C:5]#[N:6])[C:3]1([H:10])[H:11])([H:7])[H:9].[H:8][H:12]"
C       -1.17583912       0.44847542       0.99297690
N       -0.11156525       0.61505078       0.23147183
C        0.05871992       0.57883822      -1.20590773
C        0.78258351      -0.28509457      -0.24140526
C        2.12542625      -0.53680621       0.08731994
N        3.21520827      -0.79901535       0.35129747
H       -1.01388646       0.14411933       2.01945715
H       -1.17377904      -1.29661582       0.38733598
H       -2.06906843       1.00920667       0.74618842
H        0.49752407       1.47312295      -1.63500532
H       -0.73943905       0.10638238      -1.77928229
H       -0.39588472      -1.45766380       0.04555290
12
Frame=1 idx=000256 GeodesicLength=0.05390601691521584 rxn_smarts="[C:1]([N:2]1[C:3]([H:10])([H:11])[C@:4]1([C:5]#[N:6])[H:12])([H:7])([H:8])[H:9]>>[C-:1]([N+:2]1=[C:4]([C:5]#[N:6])[C:3]1([H:10])[H:11])([H:7])[H:9].[H:8][H:12]"
C       -1.17952125       0.44148692       0.99140306
N       -0.10955798       0.61327457       0.23323656
C        0.06068777       0.57912964      -1.20415076
C        0.77834467      -0.29535676      -0.24425536
C        2.12462895      -0.53672677       0.08295654
N        3.21658872      -0.78783066       0.34843099
H       -1.01347220       0.15905619       2.02372681
H       -1.18199002      -1.30046188       0.39468880
H       -2.06876187       1.00874368       0.74487750
H        0.50679357       1.47196456      -1.62890577
H       -0.73893223       0.11413445      -1.78117250
H       -0.39480815      -1.46741393       0.03916413
12
Frame=2 idx=000256 GeodesicLength=0.10779964175821982 rxn_smarts="[C:1]([N:2]1[C:3]([H:10])([H:11])[C@:4]1([C:5]#[N:6])[H:12])([H:7])([H:8])[H:9]>>[C-:1]([N+:2]1=[C:4]([C:5]#[N:6])[C:3]1([H:10])[H:11])([H:7])[H:9].[H:8][H:12]"
C       -1.18308042       0.43454448       0.98996594
N       -0.10751869       0.61153096       0.23505324
C        0.06266411       0.57943680      -1.20233423
C        0.77417641      -0.30541982      -0.24708527
C        2.12380685      -0.53663832       0.07857246
N        3.21778303      -0.77687334       0.34550098
H       -1.01322091       0.17418638       2.02771679
H       -1.19028500      -1.30422351       0.40214841
H       -2.06843637       1.00800973       0.74352966
H        0.51590795       1.47080359      -1.62278299
H       -0.73834434       0.12185370      -1.78293708
H       -0.39345264      -1.47721065       0.03265209
12
Frame=3 idx=000256 GeodesicLength=0.16169863796893852 rxn_smarts="[C:1]([N:2]1[C:3]([H:10])([H:11])[C@:4]1([C:5]#[N:6])[H:12])([H:7])([H:8])[H:9]>>[C-:1]([N+:2]1=[C:4]([C:5]#[N:6])[C:3]1([H:10])[H:11])([H:7])[H:9].[H:8][H:12]"
C       -1.18653681       0.42764983       0.98867229
N       -0.10545002       0.60980905       0.23693651
C        0.06466364       0.57974966      -1.20044739
C        0.77007684      -0.31530562      -0.24987376
C        2.12296119      -0.53656397       0.07421253
N        3.21885808      -0.76608462       0.34240173
H       -1.01316113       0.18951402       2.03143658
H       -1.19872123      -1.30788914       0.40970286
H       -2.06810726       1.00702169       0.74213204
H        0.52490712       1.46962724      -1.61661782
H       -0.73766285       0.12953754      -1.78457874
H       -0.39182757      -1.48706568       0.02602317
12
Frame=4 idx=000256 GeodesicLength=0.2155737132941142 rxn_smarts="[C:1]([N:2]1[C:3]([H:10])([H:11])[C@:4]1([C:5]#[N:6])[H:12])([H:7])([H:8])[H:9]>>[C-:1]([N+:2]1=[C:4]([C:5]#[N:6])[C:3]1([H:10])[H:11])([H:7])[H:9].[H:8][H:12]"
C       -1.18987289       0.42081340       0.98752858
N       -0.10334832       0.60812460       0.23887448
C        0.06667148       0.58007241      -1.19850199
C        0.76605177      -0.32499552      -0.25263238
C        2.12210492      -0.53646026       0.06986210
N        3.21978882      -0.75552848       0.33920709
H       -1.01326645       0.20499883       2.03487963
H       -1.20730297      -1.31144323       0.41735096
H       -2.06777334       1.00577246       0.74069336
H        0.53376221       1.46844255      -1.61044050
H       -0.73690990       0.13717693      -1.78609281
H       -0.38990531      -1.49697370       0.01927147
12
Frame=5 idx=000256 GeodesicLength=0.26947600130285565 rxn_smarts="[C:1]([N:2]1[C:3]([H:10])([H:11])[C@:4]1([C:5]#[N:6])[H:12])([H:7])([H:8])[H:9]>>[C-:1]([N+:2]1=[C:4]([C:5]#[N:6])[C:3]1([H:10])[H:11])([H:7])[H:9].[H:8][H:12]"
C       -1.19306937       0.41404542       0.98653933
N       -0.10121149       0.60648817       0.24085345
C        0.06867068       0.58040875      -1.19651284
C        0.76210948      -0.33447723      -0.25538085
C        2.12125526      -0.53629038       0.06548954
N        3.22054734      -0.74526542       0.33601968
H       -1.01350940       0.22060652       2.03804444
H       -1.21603724      -1.31486904       0.42511288
H       -2.06743066       1.00426326       0.73922752
H        0.54243168       1.46726104      -1.60427902
H       -0.73610721       0.14476470      -1.78747810
H       -0.38764908      -1.50693580       0.01236396
12
Frame=6 idx=000256 GeodesicLength=0.3233626316138152 rxn_smarts="[C:1]([N:2]1[C:3]([H:10])([H:11])[C@:4]1([C:5]#[N:6])[H:12])([H:7])([H:8])[H:9]>>[C-:1]([N+:2]1=[C:4]([C:5]#[N:6])[C:3]1([H:10])[H:11])([H:7])[H:9].[H:8][H:12]"
C       -1.19614301       0.40734569       0.98571193
N       -0.09904198       0.60489084       0.24288669
C        0.07067166       0.58075150      -1.19447247
C        0.75824446      -0.34377401      -0.25809856
C        2.12040510      -0.53608418       0.06113683
N        3.22118907      -0.73523060       0.33275098
H       -1.01390851       0.23634171       2.04094489
H       -1.22497057      -1.31816263       0.43296913
H       -2.06708663       1.00251772       0.73772521
H        0.55095267       1.46607429      -1.59812045
H       -0.73524603       0.15230060      -1.78874109
H       -0.38506623      -1.51697094       0.00530690
12
Frame=7 idx=000256 GeodesicLength=0.3772423651122433 rxn_smarts="[C:1]([N:2]1[C:3]([H:10])([H:11])[C@:4]1([C:5]#[N:6])[H:12])([H:7])([H:8])[H:9]>>[C-:1]([N+:2]1=[C:4]([C:5]#[N:6])[C:3]1([H:10])[H:11])([H:7])[H:9].[H:8][H:12]"
C       -1.19909307       0.40070712       0.98504032
N       -0.09683518       0.60331367       0.24497625
C        0.07268140       0.58109329      -1.19236286
C        0.75445044      -0.35290075      -0.26078361
C        2.11955004      -0.53585886       0.05679659
N        3.22173021      -0.72537295       0.32937518
H       -1.01446971       0.25222707       2.04356803
H       -1.23413503      -1.32131058       0.44095811
H       -2.06673887       1.00052195       0.73617238
H        0.55935357       1.46486388      -1.59193485
H       -0.73432521       0.15979477      -1.78986222
H       -0.38216859      -1.52707862      -0.00194332
12
Frame=8 idx=000256 GeodesicLength=0.4311327600834509 rxn_smarts="[C:1]([N:2]1[C:3]([H:10])([H:11])[C@:4]1([C:5]#[N:6])[H:12])([H:7])([H:8])[H:9]>>[C-:1]([N+:2]1=[C:4]([C:5]#[N:6])[C:3]1([H:10])[H:11])([H:7])[H:9].[H:8][H:12]"
C       -1.20192362       0.39414323       0.98453753
N       -0.09459369       0.60176383       0.24712740
C        0.07469680       0.58143505      -1.19019908
C        0.75073108      -0.36186841      -0.26343082
C        2.11869716      -0.53561893       0.05249261
N        3.22219640      -0.71568614       0.32588819
H       -1.01519372       0.26823794       2.04594172
H       -1.24356642      -1.32431260       0.44907015
H       -2.06639113       0.99831150       0.73457593
H        0.56762730       1.46364434      -1.58574413
H       -0.73334863       0.16724044      -1.79086535
H       -0.37893153      -1.53729026      -0.00939416
12
Frame=9 idx=000256 GeodesicLength=0.48501348143938144 rxn_smarts="[C:1]([N:2]1[C:3]([H:10])([H:11])[C@:4]1([C:5]#[N:6])[H:12])([H:7])([H:8])[H:9]>>[C-:1]([N+:2]1=[C:4]([C:5]#[N:6])[C:3]1([H:10])[H:11])([H:7])[H:9].[H:8][H:12]"
C       -1.20463563       0.38765848       0.98419773
N       -0.09231430       0.60023072       0.24933872
C        0.07672127       0.58175956      -1.18796543
C        0.74708646      -0.37068259      -0.26603199
C        2.11784806      -0.53536302       0.04823438
N        3.22260745      -0.70613196       0.32226115
H       -1.01607983       0.28434151       2.04804423
H       -1.25331887      -1.32713112       0.45728960
H       -2.06603497       0.99590174       0.73293717
H        0.57578206       1.46238728      -1.57953260
H       -0.73231758       0.17462683      -1.79172350
H       -0.37534409      -1.54759743      -0.01704947
12
Frame=10 idx=000256 GeodesicLength=0.5389086355151009 rxn_smarts="[C:1]([N:2]1[C:3]([H:10])([H:11])[C@:4]1([C:5]#[N:6])[H:12])([H:7])([H:8])[H:9]>>[C-:1]([N+:2]1=[C:4]([C:5]#[N:6])[C:3]1([H:10])[H:11])([H:7])[H:9].[H:8][H:12]"
C       -1.20722061       0.38124457       0.98402997
N       -0.08999021       0.59870201       0.25161218
C        0.07875503       0.58207488      -1.18566848
C        0.74350883      -0.37936414      -0.26860162
C        2.11699726      -0.53512389       0.04399885
N        3.22295694      -0.69666548       0.31853780
H       -1.01711689       0.30058390       2.04989556
H       -1.26339800      -1.32978531       0.46569622
H       -2.06566738       0.99327740       0.73124593
H        0.58383872       1.46110419      -1.57329823
H       -0.73124303       0.18197799      -1.79244851
H       -0.37142068      -1.55802611      -0.02499966
12
Frame=11 idx=000256 GeodesicLength=0.5927899933309736 rxn_smarts="[C:1]([N:2]1[C:3]([H:10])([H:11])[C@:4]1([C:5]#[N:6])[H:12])([H:7])([H:8])[H:9]>>[C-:1]([N+:2]1=[C:4]([C:5]#[N:6])[C:3]1([H:10])[H:11])([H:7])[H:9].[H:8][H:12]"
C       -1.20967798       0.37491275       0.98403817
N       -0.08762824       0.59718990       0.25394123
C        0.08078706       0.58236626      -1.18331351
C        0.74000725      -0.38790090      -0.27112699
C        2.11615625      -0.53484833       0.03981439
N        3.22324994      -0.68731494       0.31472622
H       -1.01827719       0.31688761       2.05148811
H       -1.27387841      -1.33223253       0.47419994
H       -2.06527064       0.99048928       0.72953804
H        0.59176640       1.45978324      -1.56706885
H       -0.73013150       0.18925344      -1.79303410
H       -0.36710295      -1.56858579      -0.03320265
12
Frame=12 idx=000256 GeodesicLength=0.6466860229512995 rxn_smarts="[C:1]([N:2]1[C:3]([H:10])([H:11])[C@:4]1([C:5]#[N:6])[H:12])([H:7])([H:8])[H:9]>>[C-:1]([N+:2]1=[C:4]([C:5]#[N:6])[C:3]1([H:10])[H:11])([H:7])[H:9].[H:8][H:12]"
C       -1.21201351       0.36866397       0.98422391
N       -0.08522444       0.59567736       0.25633294
C        0.08282391       0.58263299      -1.18089514
C        0.73657889      -0.39631514      -0.27360988
C        2.11532721      -0.53457528       0.03567624
N        3.22351134      -0.67803004       0.31081066
H       -1.01958062       0.33328613       2.05283316
H       -1.28477451      -1.33447597       0.48288668
H       -2.06485473       0.98753339       0.72779480
H        0.59958794       1.45842227      -1.56082391
H       -0.72898287       0.19647128      -1.79348339
H       -0.36239862      -1.57929097      -0.04174607
12
Frame=13 idx=000256 GeodesicLength=0.7005831415786329 rxn_smarts="[C:1]([N:2]1[C:3]([H:10])([H:11])[C@:4]1([C:5]#[N:6])[H:12])([H:7])([H:8])[H:9]>>[C-:1]([N+:2]1=[C:4]([C:5]#[N:6])[C:3]1([H:10])[H:11])([H:7])[H:9].[H:8][H:12]"
C       -1.21422838       0.36250441       0.98459053
N       -0.08278294       0.59417159       0.25878220
C        0.08485854       0.58286352      -1.17841962
C        0.73323167      -0.40459786      -0.27604126
C        2.11452075      -0.53426159       0.03160322
N        3.22374633      -0.66882944       0.30680330
H       -1.02100790       0.34972227       2.05393054
H       -1.29615418      -1.33648279       0.49171106
H       -2.06440322       0.98445212       0.72604623
H        0.60728170       1.45701548      -1.55458683
H       -0.72780210       0.20359720      -1.79379471
H       -0.35726025      -1.59015491      -0.05062468
12
Frame=14 idx=000256 GeodesicLength=0.7544875603263621 rxn_smarts="[C:1]([N:2]1[C:3]([H:10])([H:11])[C@:4]1([C:5]#[N:6])[H:12])([H:7])([H:8])[H:9]>>[C-:1]([N+:2]1=[C:4]([C:5]#[N:6])[C:3]1([H:10])[H:11])([H:7])[H:9].[H:8][H:12]"
C       -1.21632657       0.35643188       0.98513863
N       -0.08030084       0.59265488       0.26129783
C        0.08690019       0.58305484      -1.17587408
C        0.72996051      -0.41276931      -0.27841460
C        2.11373178      -0.53393560       0.02760010
N        3.22397135      -0.65966392       0.30266588
H       -1.02256971       0.36624146       2.05478411
H       -1.30804674      -1.33825082       0.50074076
H       -2.06392296       0.98122808       0.72426705
H        0.61487506       1.45555828      -1.54832816
H       -0.72658370       0.21064531      -1.79396170
H       -0.35168838      -1.60119509      -0.05991581
12
Frame=15 idx=000256 GeodesicLength=0.8083923825017376 rxn_smarts="[C:1]([N:2]1[C:3]([H:10])([H:11])[C@:4]1([C:5]#[N:6])[H:12])([H:7])([H:8])[H:9]>>[C-:1]([N+:2]1=[C:4]([C:5]#[N:6])[C:3]1([H:10])[H:11])([H:7])[H:9].[H:8][H:12]"
C       -1.21831571       0.35045712       0.98586886
N       -0.07778353       0.59113234       0.26387724
C        0.08894280       0.58318802      -1.17326238
C        0.72677511      -0.42082443      -0.28071343
C        2.11297169      -0.53355694       0.02370132
N        3.22420678      -0.65053019       0.29838691
H       -1.02425403       0.38275869       2.05539446
H       -1.32054591      -1.33973431       0.50991575
H       -2.06338966       0.97793270       0.72249693
H        0.62234555       1.45403559      -1.54207293
H       -0.72532744       0.21756993      -1.79398318
H       -0.34562563      -1.61242852      -0.06960956
12
Frame=16 idx=000256 GeodesicLength=0.8623040074125579 rxn_smarts="[C:1]([N:2]1[C:3]([H:10])([H:11])[C@:4]1([C:5]#[N:6])[H:12])([H:7])([H:8])[H:9]>>[C-:1]([N+:2]1=[C:4]([C:5]#[N:6])[C:3]1([H:10])[H:11])([H:7])[H:9].[H:8][H:12]"
C       -1.22018926       0.34457789       0.98678732
N       -0.07522711       0.58958846       0.26652107
C        0.09098575       0.58326085      -1.17058455
C        0.72367127      -0.42878367      -0.28294504
C        2.11223790      -0.53315745       0.01989147
N        3.22444688      -0.64137819       0.29400185
H       -1.02604684       0.39931108       2.05577184
H       -1.33367837      -1.34092954       0.51930447
H       -2.06279989       0.97455854       0.72073127
H        0.62970421       1.45244440      -1.53581287
H       -0.72404323       0.22438597      -1.79385941
H       -0.33906132      -1.62387835      -0.07980742
