11
Frame=0 idx=000909 GeodesicLength=0.0 rxn_smarts="[N:1]([c:2]1[n:3][n:4]([H:9])[c:5]([H:10])[c:6]1[H:11])([H:7])[H:8]>>[N:1](=[c:2]1/[n:3]([H:8])[n:4]([H:9])[c:5]([H:10])[c:6]1[H:11])\[H:7]"
N       -2.02122806      -0.33618397       0.24067175
C       -0.78386760       0.04664820      -0.06935237
N       -0.07887993      -1.09339352      -0.16159418
N        1.23478459      -0.78877256       0.10303033
C        1.35605784       0.56478063       0.03261582
C        0.12638469       1.14889852      -0.07745396
H       -2.80461288       0.20406203      -0.09621770
H       -1.20114816      -1.54303775       0.20471274
H        1.93862341      -1.42660561      -0.22592130
H        2.33240668       1.02304029       0.09231097
H       -0.09852058       2.20056372      -0.04280212
11
Frame=1 idx=000909 GeodesicLength=0.03580517785720509 rxn_smarts="[N:1]([c:2]1[n:3][n:4]([H:9])[c:5]([H:10])[c:6]1[H:11])([H:7])[H:8]>>[N:1](=[c:2]1/[n:3]([H:8])[n:4]([H:9])[c:5]([H:10])[c:6]1[H:11])\[H:7]"
N       -2.02186625      -0.33935325       0.23209335
C       -0.78289723       0.04178092      -0.07536624
N       -0.07493819      -1.09932133      -0.15712852
N        1.23734899      -0.78699335       0.10521740
C        1.35607702       0.56645985       0.02758002
C        0.12443995       1.14616291      -0.07541836
H       -2.79466447       0.22669695      -0.08635326
H       -1.21090212      -1.55429154       0.19918345
H        1.94408139      -1.42509393      -0.21682068
H        2.33107511       1.02779905       0.08447405
H       -0.10775422       2.19615373      -0.03746121
11
Frame=2 idx=000909 GeodesicLength=0.07159624621315226 rxn_smarts="[N:1]([c:2]1[n:3][n:4]([H:9])[c:5]([H:10])[c:6]1[H:11])([H:7])[H:8]>>[N:1](=[c:2]1/[n:3]([H:8])[n:4]([H:9])[c:5]([H:10])[c:6]1[H:11])\[H:7]"
N       -2.02258507      -0.34241142       0.22277804
C       -0.78189892       0.03700626      -0.08167488
N       -0.07103040      -1.10514444      -0.15247850
N        1.23984320      -0.78515580       0.10758244
C        1.35607384       0.56814417       0.02253885
C        0.12252414       1.14346596      -0.07317450
H       -2.78438348       0.24883071      -0.07575960
H       -1.22089856      -1.56544023       0.19335288
H        1.94945920      -1.42353896      -0.20735449
H        2.32975518       1.03250045       0.07618290
H       -0.11685913       2.19174331      -0.03199315
11
Frame=3 idx=000909 GeodesicLength=0.10736104849624353 rxn_smarts="[N:1]([c:2]1[n:3][n:4]([H:9])[c:5]([H:10])[c:6]1[H:11])([H:7])[H:8]>>[N:1](=[c:2]1/[n:3]([H:8])[n:4]([H:9])[c:5]([H:10])[c:6]1[H:11])\[H:7]"
N       -2.02338362      -0.34529568       0.21284178
C       -0.78086995       0.03236486      -0.08816548
N       -0.06720546      -1.11083878      -0.14762118
N        1.24227075      -0.78328338       0.10995112
C        1.35605984       0.56982246       0.01752948
C        0.12066278       1.14082074      -0.07073594
H       -2.77378567       0.27025435      -0.06469062
H       -1.23111093      -1.57640612       0.18756828
H        1.95469903      -1.42192007      -0.19792001
H        2.32844358       1.03711673       0.06785522
H       -0.12578036       2.18736489      -0.02661265
11
Frame=4 idx=000909 GeodesicLength=0.14308152936214805 rxn_smarts="[N:1]([c:2]1[n:3][n:4]([H:9])[c:5]([H:10])[c:6]1[H:11])([H:7])[H:8]>>[N:1](=[c:2]1/[n:3]([H:8])[n:4]([H:9])[c:5]([H:10])[c:6]1[H:11])\[H:7]"
N       -2.02424095      -0.34792793       0.20252479
C       -0.77981036       0.02789460      -0.09471015
N       -0.06351959      -1.11638754      -0.14256696
N        1.24464575      -0.78141885       0.11202375
C        1.35604659       0.57147803       0.01258454
C        0.11888967       1.13823304      -0.06822045
H       -2.76291315       0.29075406      -0.05338608
H       -1.24149452      -1.58709944       0.18231800
H        1.95973801      -1.42021124      -0.18915584
H        2.32711098       1.04163144       0.06038531
H       -0.13445243       2.18305382      -0.02179690
11
Frame=5 idx=000909 GeodesicLength=0.1787377072792866 rxn_smarts="[N:1]([c:2]1[n:3][n:4]([H:9])[c:5]([H:10])[c:6]1[H:11])([H:7])[H:8]>>[N:1](=[c:2]1/[n:3]([H:8])[n:4]([H:9])[c:5]([H:10])[c:6]1[H:11])\[H:7]"
N       -2.02518042      -0.35025511       0.19187937
C       -0.77871360       0.02361652      -0.10115839
N       -0.06001462      -1.12177171      -0.13721514
N        1.24699226      -0.77958307       0.11360558
C        1.35605996       0.57309086       0.00767947
C        0.11722221       1.13571217      -0.06556172
H       -2.75179759       0.31014401      -0.04244740
H       -1.25202772      -1.59740790       0.17820161
H        1.96453147      -1.41839930      -0.18151162
H        2.32577550       1.04603093       0.05398632
H       -0.14284744       2.17882259      -0.01745808
11
Frame=6 idx=000909 GeodesicLength=0.21435250096144726 rxn_smarts="[N:1]([c:2]1[n:3][n:4]([H:9])[c:5]([H:10])[c:6]1[H:11])([H:7])[H:8]>>[N:1](=[c:2]1/[n:3]([H:8])[n:4]([H:9])[c:5]([H:10])[c:6]1[H:11])\[H:7]"
N       -2.02612016      -0.35237849       0.18095829
C       -0.77758250       0.01949265      -0.10768327
N       -0.05663002      -1.12700706      -0.13187576
N        1.24926989      -0.77777825       0.11486351
C        1.35605171       0.57469933       0.00306670
C        0.11565364       1.13322607      -0.06299154
H       -2.74045742       0.32872693      -0.03082419
H       -1.26273198      -1.60750394       0.17443002
H        1.96914797      -1.41649168      -0.17458482
H        2.32439807       1.05035262       0.04885640
H       -0.15099920       2.17466182      -0.01421534
11
Frame=7 idx=000909 GeodesicLength=0.24991696417418122 rxn_smarts="[N:1]([c:2]1[n:3][n:4]([H:9])[c:5]([H:10])[c:6]1[H:11])([H:7])[H:8]>>[N:1](=[c:2]1/[n:3]([H:8])[n:4]([H:9])[c:5]([H:10])[c:6]1[H:11])\[H:7]"
N       -2.02712097      -0.35423934       0.16968562
C       -0.77640515       0.01555500      -0.11407959
N       -0.05339434      -1.13206498      -0.12631580
N        1.25151315      -0.77600834       0.11579182
C        1.35606562       0.57628823      -0.00125730
C        0.11417666       1.13081533      -0.06010393
H       -2.72891119       0.34626223      -0.01956845
H       -1.27363950      -1.61726094       0.17151746
H        1.97356441      -1.41450886      -0.16852179
H        2.32306943       1.05456288       0.04419635
H       -0.15891813       2.17059881      -0.01134439
11
Frame=8 idx=000909 GeodesicLength=0.28545861175071335 rxn_smarts="[N:1]([c:2]1[n:3][n:4]([H:9])[c:5]([H:10])[c:6]1[H:11])([H:7])[H:8]>>[N:1](=[c:2]1/[n:3]([H:8])[n:4]([H:9])[c:5]([H:10])[c:6]1[H:11])\[H:7]"
N       -2.02814922      -0.35590863       0.15799394
C       -0.77518014       0.01177757      -0.12048214
N       -0.05025761      -1.13695895      -0.12070308
N        1.25370019      -0.77426713       0.11655845
C        1.35607636       0.57788155      -0.00514247
C        0.11277877       1.12846138      -0.05700972
H       -2.71716688       0.36295815      -0.00795156
H       -1.28477834      -1.62679272       0.16889472
H        1.97783862      -1.41246129      -0.16295189
H        2.32177758       1.05868414       0.03993448
H       -0.16663933       2.16662591      -0.00914072
11
Frame=9 idx=000909 GeodesicLength=0.32097355523770327 rxn_smarts="[N:1]([c:2]1[n:3][n:4]([H:9])[c:5]([H:10])[c:6]1[H:11])([H:7])[H:8]>>[N:1](=[c:2]1/[n:3]([H:8])[n:4]([H:9])[c:5]([H:10])[c:6]1[H:11])\[H:7]"
N       -2.02920671      -0.35739086       0.14575780
C       -0.77389593       0.00816137      -0.12690740
N       -0.04720922      -1.14167759      -0.11499464
N        1.25582092      -0.77252994       0.11732574
C        1.35608652       0.57949022      -0.00856782
C        0.11145133       1.12617496      -0.05367119
H       -2.70521618       0.37879477       0.00392418
H       -1.29619523      -1.63609377       0.16641176
H        1.98198722      -1.41036862      -0.15754844
H        2.32056310       1.06271142       0.03540183
H       -0.17418583       2.16272804      -0.00713183
11
Frame=10 idx=000909 GeodesicLength=0.35646708144483413 rxn_smarts="[N:1]([c:2]1[n:3][n:4]([H:9])[c:5]([H:10])[c:6]1[H:11])([H:7])[H:8]>>[N:1](=[c:2]1/[n:3]([H:8])[n:4]([H:9])[c:5]([H:10])[c:6]1[H:11])\[H:7]"
N       -2.03027609      -0.35869931       0.13294695
C       -0.77254661       0.00470717      -0.13338391
N       -0.04423808      -1.14621513      -0.10924638
N        1.25786201      -0.77079208       0.11819702
C        1.35609211       0.58112259      -0.01142804
C        0.11018852       1.12396053      -0.05011590
H       -2.69304593       0.39378810       0.01633840
H       -1.30792866      -1.64519127       0.16377862
H        1.98602774      -1.40823401      -0.15211962
H        2.31943612       1.06664331       0.03043452
H       -0.18157113       2.15891009      -0.00540166
11
Frame=11 idx=000909 GeodesicLength=0.3919922735120378 rxn_smarts="[N:1]([c:2]1[n:3][n:4]([H:9])[c:5]([H:10])[c:6]1[H:11])([H:7])[H:8]>>[N:1](=[c:2]1/[n:3]([H:8])[n:4]([H:9])[c:5]([H:10])[c:6]1[H:11])\[H:7]"
N       -2.03135860      -0.35986393       0.11930581
C       -0.77113582       0.00139353      -0.14013008
N       -0.04131773      -1.15060629      -0.10358737
N        1.25980109      -0.76903953       0.11930648
C        1.35608371       0.58279356      -0.01382078
C        0.10897569       1.12181912      -0.04669970
H       -2.68059394       0.40808242       0.03015387
H       -1.31998703      -1.65417220       0.16061655
H        1.99000152      -1.40609698      -0.14625014
H        2.31836743       1.07051464       0.02515093
H       -0.18883632       2.15517564      -0.00404559
11
Frame=12 idx=000909 GeodesicLength=0.4274476289722503 rxn_smarts="[N:1]([c:2]1[n:3][n:4]([H:9])[c:5]([H:10])[c:6]1[H:11])([H:7])[H:8]>>[N:1](=[c:2]1/[n:3]([H:8])[n:4]([H:9])[c:5]([H:10])[c:6]1[H:11])\[H:7]"
N       -2.03241629      -0.36080954       0.10499489
C       -0.76963990      -0.00175751      -0.14710715
N       -0.03849048      -1.15477510      -0.09787527
N        1.26162014      -0.76722426       0.12064080
C        1.35608601       0.58448745      -0.01588297
C        0.10784554       1.11975655      -0.04355110
H       -2.66785792       0.42136357       0.04473968
H       -1.33244623      -1.66284901       0.15716070
H        1.99385511      -1.40392685      -0.13994382
H        2.31738775       1.07428058       0.01924834
H       -0.19594373       2.15145413      -0.00242412
11
Frame=13 idx=000909 GeodesicLength=0.46287690283290067 rxn_smarts="[N:1]([c:2]1[n:3][n:4]([H:9])[c:5]([H:10])[c:6]1[H:11])([H:7])[H:8]>>[N:1](=[c:2]1/[n:3]([H:8])[n:4]([H:9])[c:5]([H:10])[c:6]1[H:11])\[H:7]"
N       -2.03337309      -0.36136420       0.09099149
C       -0.76807298      -0.00474218      -0.15391462
N       -0.03580722      -1.15879404      -0.09184566
N        1.26344050      -0.76545934       0.12148843
C        1.35613330       0.58618624      -0.01782543
C        0.10682966       1.11777675      -0.04065828
H       -2.65502273       0.43346182       0.05840452
H       -1.34520689      -1.67113361       0.15472183
H        1.99750125      -1.40173443      -0.13478789
H        2.31642247       1.07799927       0.01438271
H       -0.20284427       2.14780372      -0.00095711
11
Frame=14 idx=000909 GeodesicLength=0.4983242768039462 rxn_smarts="[N:1]([c:2]1[n:3][n:4]([H:9])[c:5]([H:10])[c:6]1[H:11])([H:7])[H:8]>>[N:1](=[c:2]1/[n:3]([H:8])[n:4]([H:9])[c:5]([H:10])[c:6]1[H:11])\[H:7]"
N       -2.03427796      -0.36165429       0.07674453
C       -0.76644489      -0.00758396      -0.16084771
N       -0.03323018      -1.16265707      -0.08583036
N        1.26520475      -0.76371186       0.12211640
C        1.35621961       0.58790375      -0.01953849
C        0.10591140       1.11587333      -0.03824226
H       -2.64199191       0.44456856       0.07287644
H       -1.35832581      -1.67914195       0.15248142
H        2.00101503      -1.39952461      -0.13007404
H        2.31548767       1.08168581       0.01060625
H       -0.20956768       2.14424228      -0.00029217
11
Frame=15 idx=000909 GeodesicLength=0.5337520350232923 rxn_smarts="[N:1]([c:2]1[n:3][n:4]([H:9])[c:5]([H:10])[c:6]1[H:11])([H:7])[H:8]>>[N:1](=[c:2]1/[n:3]([H:8])[n:4]([H:9])[c:5]([H:10])[c:6]1[H:11])\[H:7]"
N       -2.03506244      -0.36161926       0.06295759
C       -0.76474232      -0.01028274      -0.16757500
N       -0.03076147      -1.16635144      -0.07950254
N        1.26697332      -0.76198557       0.12244256
C        1.35636732       0.58963938      -0.02108691
C        0.10510255       1.11405840      -0.03597224
H       -2.62894298       0.45458186       0.08639909
H       -1.37182961      -1.68681252       0.15078793
H        2.00437589      -1.39730175      -0.12614093
H        2.31462722       1.08533148       0.00728220
H       -0.21610747       2.14074215       0.00040825
11
Frame=16 idx=000909 GeodesicLength=0.5691886891956991 rxn_smarts="[N:1]([c:2]1[n:3][n:4]([H:9])[c:5]([H:10])[c:6]1[H:11])([H:7])[H:8]>>[N:1](=[c:2]1/[n:3]([H:8])[n:4]([H:9])[c:5]([H:10])[c:6]1[H:11])\[H:7]"
N       -2.03574843      -0.36131643       0.04929749
C       -0.76297354      -0.01285541      -0.17429935
N       -0.02837871      -1.16988388      -0.07307950
N        1.26870303      -0.76026644       0.12260767
C        1.35655784       0.59139859      -0.02242115
C        0.10438436       1.11232570      -0.03405556
H       -2.61575026       0.46362855       0.10018295
H       -1.38573434      -1.69422907       0.14912900
H        2.00761623      -1.39506849      -0.12259227
H        2.31381567       1.08894843       0.00463569
H       -0.22249183       2.13731846       0.00059502
