19
Frame=0 idx=008084 GeodesicLength=0.0 rxn_smarts="[C:1]([C:2]([C@@:3]([O:4][H:14])([C@@:5]([C:6]([H:16])([H:17])[H:18])([O:7][H:19])[H:15])[H:13])([H:11])[H:12])([H:8])([H:9])[H:10]>>[C:1]([C:2]([H:11])([H:12])[H:19])([H:8])([H:9])[H:10].[C:3](=[O:4])([C@@:5]([C:6]([H:16])([H:17])[H:18])([O:7][H:14])[H:15])[H:13]"
C        1.74883450      -0.13400901       1.91968431
C        0.73012952       0.75684212       1.22695687
C        0.30528678       0.27141200      -0.85433559
O        0.94112070      -0.85668847      -0.96403889
C       -1.18374018       0.09418913      -0.62706415
C       -1.86625784      -0.32548137      -1.93064264
O       -1.20142399      -0.86414327       0.34569110
H        1.25631814      -0.84103581       2.58881325
H        2.31531064      -0.71553682       1.18770886
H        2.46757846       0.44503260       2.50298274
H        0.08813530       1.31035718       1.92179135
H        1.24422537       1.53597848       0.66037796
H        0.77623741       1.10255684      -1.37374611
H        0.31438010      -1.47344322      -0.48113307
H       -1.60440926       1.06271147      -0.30811330
H       -1.44041229      -1.25469189      -2.31191315
H       -2.92034811      -0.49965611      -1.71866268
H       -1.78901706       0.44558551      -2.70104336
H       -0.18194813      -0.05997939       0.91668648
19
Frame=1 idx=008084 GeodesicLength=0.14646732514262326 rxn_smarts="[C:1]([C:2]([C@@:3]([O:4][H:14])([C@@:5]([C:6]([H:16])([H:17])[H:18])([O:7][H:19])[H:15])[H:13])([H:11])[H:12])([H:8])([H:9])[H:10]>>[C:1]([C:2]([H:11])([H:12])[H:19])([H:8])([H:9])[H:10].[C:3](=[O:4])([C@@:5]([C:6]([H:16])([H:17])[H:18])([O:7][H:14])[H:15])[H:13]"
C        1.78261244      -0.11100011       1.90294345
C        0.71694967       0.75010991       1.24294681
C        0.31222342       0.23668525      -0.84304085
O        0.91571228      -0.91189749      -0.93375042
C       -1.18551270       0.09679588      -0.64116093
C       -1.86444931      -0.31034619      -1.94925830
O       -1.23672820      -0.86257552       0.33515954
H        1.33155764      -0.87685441       2.53544469
H        2.39839735      -0.61814283       1.15583956
H        2.46164661       0.48022623       2.52104677
H        0.08575425       1.26799609       1.97483205
H        1.19511214       1.56418287       0.69371611
H        0.79571610       1.04488807      -1.38745349
H        0.25342974      -1.50761283      -0.43594137
H       -1.58604625       1.07641893      -0.33112139
H       -1.45902385      -1.25195085      -2.32231908
H       -2.92538474      -0.45482840      -1.74836629
H       -1.75494268       0.45513327      -2.72126095
H       -0.23702390      -0.06722786       0.95174410
19
Frame=2 idx=008084 GeodesicLength=0.2922188959085753 rxn_smarts="[C:1]([C:2]([C@@:3]([O:4][H:14])([C@@:5]([C:6]([H:16])([H:17])[H:18])([O:7][H:19])[H:15])[H:13])([H:11])[H:12])([H:8])([H:9])[H:10]>>[C:1]([C:2]([H:11])([H:12])[H:19])([H:8])([H:9])[H:10].[C:3](=[O:4])([C@@:5]([C:6]([H:16])([H:17])[H:18])([O:7][H:14])[H:15])[H:13]"
C        1.81547577      -0.08729804       1.88388093
C        0.70352918       0.74266003       1.25994456
C        0.31905091       0.20156851      -0.83063973
O        0.88986499      -0.96613037      -0.90183957
C       -1.18603871       0.09914881      -0.65474540
C       -1.86062661      -0.29584614      -1.96749015
O       -1.27190928      -0.85988990       0.32519694
H        1.40913088      -0.90648467       2.47865978
H        2.47059801      -0.51777271       1.12241203
H        2.45809340       0.51017585       2.53446091
H        0.08576161       1.22303993       2.02856576
H        1.14370845       1.59031983       0.72942674
H        0.81514327       0.98625418      -1.39855759
H        0.19102313      -1.53962079      -0.39132321
H       -1.56610971       1.08945003      -0.35384764
H       -1.47587900      -1.24932966      -2.33216594
H       -2.92753360      -0.41045317      -1.77821948
H       -1.71879227       0.46292709      -2.74078376
H       -0.29449044      -0.07271879       0.98706483
19
Frame=3 idx=008084 GeodesicLength=0.43749957857235383 rxn_smarts="[C:1]([C:2]([C@@:3]([O:4][H:14])([C@@:5]([C:6]([H:16])([H:17])[H:18])([O:7][H:19])[H:15])[H:13])([H:11])[H:12])([H:8])([H:9])[H:10]>>[C:1]([C:2]([H:11])([H:12])[H:19])([H:8])([H:9])[H:10].[C:3](=[O:4])([C@@:5]([C:6]([H:16])([H:17])[H:18])([O:7][H:14])[H:15])[H:13]"
C        1.84737184      -0.06274559       1.86292301
C        0.69012843       0.73426379       1.27786603
C        0.32572328       0.16617123      -0.81729961
O        0.86359738      -1.01925644      -0.86880430
C       -1.18533379       0.10119633      -0.66784244
C       -1.85498223      -0.28194378      -1.98532615
O       -1.30672432      -0.85619616       0.31565222
H        1.48812812      -0.92960110       2.41916234
H        2.53230598      -0.41563753       1.08798271
H        2.45731238       0.53594775       2.54349826
H        0.08826100       1.17513549       2.08251811
H        1.09057545       1.61401447       0.76775921
H        0.83429284       0.92688557      -1.40733661
H        0.12734062      -1.56943622      -0.34775049
H       -1.54460991       1.10170979      -0.37614099
H       -1.49119054      -1.24676163      -2.34158793
H       -2.92695123      -0.36654849      -1.80809391
H       -1.68089902       0.46908288      -2.75953127
H       -0.35434628      -0.07628037       1.02235182
19
Frame=4 idx=008084 GeodesicLength=0.5823928770688296 rxn_smarts="[C:1]([C:2]([C@@:3]([O:4][H:14])([C@@:5]([C:6]([H:16])([H:17])[H:18])([O:7][H:19])[H:15])[H:13])([H:11])[H:12])([H:8])([H:9])[H:10]>>[C:1]([C:2]([H:11])([H:12])[H:19])([H:8])([H:9])[H:10].[C:3](=[O:4])([C@@:5]([C:6]([H:16])([H:17])[H:18])([O:7][H:14])[H:15])[H:13]"
C        1.87830605      -0.03718898       1.84038819
C        0.67697746       0.72467008       1.29661922
C        0.33223749       0.13049146      -0.80316317
O        0.83687053      -1.07130844      -0.83503654
C       -1.18341024       0.10293657      -0.68048000
C       -1.84769493      -0.26858692      -2.00273843
O       -1.34104465      -0.85146046       0.30644241
H        1.56787829      -0.94615706       2.35733363
H        2.58422167      -0.31244599       1.05295829
H        2.45938809       0.55854939       2.54855310
H        0.09323965       1.12381514       2.13618243
H        1.03615139       1.63495162       0.80903329
H        0.85308019       0.86678707      -1.41408084
H        0.06248027      -1.59707785      -0.30548786
H       -1.52149364       1.11319292      -0.39792765
H       -1.50515785      -1.24417307      -2.35067549
H       -2.92379833      -0.32310597      -1.83783572
H       -1.64155840       0.47369947      -2.77742561
H       -0.41667304      -0.07758899       1.05734076
19
Frame=5 idx=008084 GeodesicLength=0.7270435429357438 rxn_smarts="[C:1]([C:2]([C@@:3]([O:4][H:14])([C@@:5]([C:6]([H:16])([H:17])[H:18])([O:7][H:19])[H:15])[H:13])([H:11])[H:12])([H:8])([H:9])[H:10]>>[C:1]([C:2]([H:11])([H:12])[H:19])([H:8])([H:9])[H:10].[C:3](=[O:4])([C@@:5]([C:6]([H:16])([H:17])[H:18])([O:7][H:14])[H:15])[H:13]"
C        1.90831909      -0.01038160       1.81643921
C        0.66422496       0.71354196       1.31613895
C        0.33856047       0.09438885      -0.78831455
O        0.80942852      -1.12253258      -0.80066402
C       -1.18022452       0.10439425      -0.69271087
C       -1.83880723      -0.25564354      -2.01969141
O       -1.37489055      -0.84557547       0.29752461
H        1.64839753      -0.95624511       2.29351783
H        2.62698629      -0.20839430       1.01747971
H        2.46422729       0.57918070       2.54971247
H        0.10061308       1.06810126       2.18930216
H        0.98042942       1.65286610       0.85361963
H        0.87150346       0.80576320      -1.41901349
H       -0.00376945      -1.62262777      -0.26454441
H       -1.49648546       1.12396714      -0.41930230
H       -1.51806957      -1.24149882      -2.35931120
H       -2.91805774      -0.27978289      -1.86738376
H       -1.60070882       0.47685276      -2.79447248
H       -0.48167676      -0.07637414       1.09167390
19
Frame=6 idx=008084 GeodesicLength=0.8714717503243407 rxn_smarts="[C:1]([C:2]([C@@:3]([O:4][H:14])([C@@:5]([C:6]([H:16])([H:17])[H:18])([O:7][H:19])[H:15])[H:13])([H:11])[H:12])([H:8])([H:9])[H:10]>>[C:1]([C:2]([H:11])([H:12])[H:19])([H:8])([H:9])[H:10].[C:3](=[O:4])([C@@:5]([C:6]([H:16])([H:17])[H:18])([O:7][H:14])[H:15])[H:13]"
C        1.93747877       0.01788010       1.79122392
C        0.65207193       0.70064731       1.33638858
C        0.34475303       0.05767102      -0.77284237
O        0.78114320      -1.17319474      -0.76584081
C       -1.17576630       0.10562664      -0.70455965
C       -1.82847639      -0.24309504      -2.03619456
O       -1.40828654      -0.83825922       0.28895656
H        1.72942063      -0.96002299       2.22737116
H        2.66134638      -0.10330131       0.98172070
H        2.47163622       0.59855195       2.54755555
H        0.11030755       1.00723330       2.24139703
H        0.92365431       1.66748859       0.90208880
H        0.88968558       0.74347054      -1.42236899
H       -0.07147820      -1.64612371      -0.22489680
H       -1.46939863       1.13414544      -0.44029396
H       -1.53013534      -1.23873955      -2.36756673
H       -2.90990339      -0.23653078      -1.89663647
H       -1.55854408       0.47850071      -2.81070051
H       -0.54950870      -0.07194826       1.12519854
19
Frame=7 idx=008084 GeodesicLength=1.01583280974248 rxn_smarts="[C:1]([C:2]([C@@:3]([O:4][H:14])([C@@:5]([C:6]([H:16])([H:17])[H:18])([O:7][H:19])[H:15])[H:13])([H:11])[H:12])([H:8])([H:9])[H:10]>>[C:1]([C:2]([H:11])([H:12])[H:19])([H:8])([H:9])[H:10].[C:3](=[O:4])([C@@:5]([C:6]([H:16])([H:17])[H:18])([O:7][H:14])[H:15])[H:13]"
C        1.96585338       0.04796410       1.76471649
C        0.64065575       0.68565576       1.35733957
C        0.35082724       0.01999590      -0.75675820
O        0.75165472      -1.22374676      -0.73041410
C       -1.16993680       0.10669729      -0.71606541
C       -1.81668593      -0.23083386      -2.05221585
O       -1.44136421      -0.82915725       0.28079498
H        1.81135127      -0.95746634       2.15851563
H        2.68770761       0.00344396       0.94564723
H        2.48131292       0.61756236       2.54225057
H        0.12224115       0.93973413       2.29218800
H        0.86560428       1.67848623       0.95511544
H        0.90779677       0.67935225      -1.42425576
H       -0.14107152      -1.66761624      -0.18635011
H       -1.43975857       1.14387278      -0.46108290
H       -1.54168588      -1.23589406      -2.37524420
H       -2.89925821      -0.19289463      -1.92558275
H       -1.51485391       0.47855186      -2.82616301
H       -0.62039007      -0.06370749       1.15756439
19
Frame=8 idx=008084 GeodesicLength=1.1600483924371485 rxn_smarts="[C:1]([C:2]([C@@:3]([O:4][H:14])([C@@:5]([C:6]([H:16])([H:17])[H:18])([O:7][H:19])[H:15])[H:13])([H:11])[H:12])([H:8])([H:9])[H:10]>>[C:1]([C:2]([H:11])([H:12])[H:19])([H:8])([H:9])[H:10].[C:3](=[O:4])([C@@:5]([C:6]([H:16])([H:17])[H:18])([O:7][H:14])[H:15])[H:13]"
C        1.99333447       0.08019152       1.73689564
C        0.63014748       0.66837421       1.37885132
C        0.35684643      -0.01895988      -0.74011911
O        0.72070443      -1.27451617      -0.69427246
C       -1.16257257       0.10765432      -0.72719579
C       -1.80344543      -0.21883692      -2.06766033
O       -1.47405313      -0.81783653       0.27323412
H        1.89410467      -0.94844443       2.08611016
H        2.70618841       0.11253215       0.90943124
H        2.49282155       0.63666175       2.53418571
H        0.13635709       0.86423578       2.34091887
H        0.80634841       1.68547981       1.01345529
H        0.92598301       0.61282864      -1.42485737
H       -0.21278455      -1.68701579      -0.14872386
H       -1.40706633       1.15322043      -0.48174363
H       -1.55293635      -1.23295311      -2.38219616
H       -2.88605749      -0.14869129      -1.95403375
H       -1.46963470       0.47685005      -2.84084902
H       -0.69428540      -0.05077452       1.18856913
19
Frame=9 idx=008084 GeodesicLength=1.304308931537677 rxn_smarts="[C:1]([C:2]([C@@:3]([O:4][H:14])([C@@:5]([C:6]([H:16])([H:17])[H:18])([O:7][H:19])[H:15])[H:13])([H:11])[H:12])([H:8])([H:9])[H:10]>>[C:1]([C:2]([H:11])([H:12])[H:19])([H:8])([H:9])[H:10].[C:3](=[O:4])([C@@:5]([C:6]([H:16])([H:17])[H:18])([O:7][H:14])[H:15])[H:13]"
C        2.01976957       0.11503944       1.70770077
C        0.62075222       0.64867387       1.40075010
C        0.36287187      -0.05962983      -0.72295271
O        0.68794273      -1.32594870      -0.65715010
C       -1.15346034       0.10853020      -0.73790957
C       -1.78870710      -0.20704666      -2.08239008
O       -1.50633740      -0.80382110       0.26643423
H        1.97780199      -0.93244038       2.00932429
H        2.71656539       0.22482599       0.87323758
H        2.50567578       0.65636492       2.52360360
H        0.15266468       0.77889112       2.38667767
H        0.74585211       1.68800317       1.07802077
H        0.94444386       0.54315515      -1.42426714
H       -0.28704453      -1.70423092      -0.11185718
H       -1.37063739       1.16225636      -0.50236647
H       -1.56423863      -1.22991868      -2.38813584
H       -2.87013891      -0.10350918      -1.98183057
H       -1.42272007       0.47318958      -2.85470665
H       -0.77105583      -0.03238436       1.21781731
19
Frame=10 idx=008084 GeodesicLength=1.4484593179714385 rxn_smarts="[C:1]([C:2]([C@@:3]([O:4][H:14])([C@@:5]([C:6]([H:16])([H:17])[H:18])([O:7][H:19])[H:15])[H:13])([H:11])[H:12])([H:8])([H:9])[H:10]>>[C:1]([C:2]([H:11])([H:12])[H:19])([H:8])([H:9])[H:10].[C:3](=[O:4])([C@@:5]([C:6]([H:16])([H:17])[H:18])([O:7][H:14])[H:15])[H:13]"
C        2.04463205       0.15274475       1.67721086
C        0.61267359       0.62687194       1.42262598
C        0.36900269      -0.10226477      -0.70542636
O        0.65329800      -1.37813486      -0.61896338
C       -1.14231643       0.10927046      -0.74806051
C       -1.77249890      -0.19551458      -2.09616681
O       -1.53772412      -0.78675763       0.26073399
H        2.06145547      -0.90900565       1.92716504
H        2.71827467       0.34071607       0.83768695
H        2.51922140       0.67651494       2.51102648
H        0.17121131       0.68268194       2.42767310
H        0.68470349       1.68573950       1.14954457
H        0.96316949       0.46986155      -1.42277289
H       -0.36373383      -1.71896771      -0.07565521
H       -1.32991812       1.17081445      -0.52284095
H       -1.57574381      -1.22674471      -2.39285559
H       -2.85138878      -0.05739238      -2.00851362
H       -1.37436166       0.46739176      -2.86760967
H       -0.84995652      -0.00782506       1.24519802
19
Frame=11 idx=008084 GeodesicLength=1.5927343676381875 rxn_smarts="[C:1]([C:2]([C@@:3]([O:4][H:14])([C@@:5]([C:6]([H:16])([H:17])[H:18])([O:7][H:19])[H:15])[H:13])([H:11])[H:12])([H:8])([H:9])[H:10]>>[C:1]([C:2]([H:11])([H:12])[H:19])([H:8])([H:9])[H:10].[C:3](=[O:4])([C@@:5]([C:6]([H:16])([H:17])[H:18])([O:7][H:14])[H:15])[H:13]"
C        2.06728243       0.19353795       1.64554174
C        0.60610702       0.60362554       1.44401790
C        0.37534679      -0.14707540      -0.68768636
O        0.61679771      -1.43109751      -0.57958742
C       -1.12888431       0.10974829      -0.75744996
C       -1.75482217      -0.18427131      -2.10868765
O       -1.56776558      -0.76648099       0.25635746
H        2.14376913      -0.87741090       1.83907305
H        2.71056978       0.46019038       0.80345212
H        2.53286041       0.69692117       2.49675265
H        0.19212712       0.57496758       2.46167782
H        0.62368309       1.67841299       1.22863746
H        0.98217998       0.39259863      -1.42051803
H       -0.44270617      -1.73095959      -0.04017399
H       -1.28440937       1.17861625      -0.54289546
H       -1.58767297      -1.22336982      -2.39606741
H       -2.82967158      -0.01028041      -2.03363013
H       -1.32471812       0.45932659      -2.87930791
H       -0.93007319       0.02300055       1.27049411
19
Frame=12 idx=008084 GeodesicLength=1.7370314163876288 rxn_smarts="[C:1]([C:2]([C@@:3]([O:4][H:14])([C@@:5]([C:6]([H:16])([H:17])[H:18])([O:7][H:19])[H:15])[H:13])([H:11])[H:12])([H:8])([H:9])[H:10]>>[C:1]([C:2]([H:11])([H:12])[H:19])([H:8])([H:9])[H:10].[C:3](=[O:4])([C@@:5]([C:6]([H:16])([H:17])[H:18])([O:7][H:14])[H:15])[H:13]"
C        2.08684003       0.23699770       1.61313194
C        0.60111273       0.58024253       1.46437266
C        0.38198469      -0.19381131      -0.67001130
O        0.57911088      -1.48427650      -0.53924228
C       -1.11305913       0.10969549      -0.76583158
C       -1.73587272      -0.17344214      -2.11968467
O       -1.59549851      -0.74337028       0.25351016
H        2.22212331      -0.83762380       1.74528806
H        2.69291172       0.58177501       0.77168998
H        2.54618419       0.71666114       2.48121849
H        0.21555572       0.45773272       2.48588021
H        0.56436664       1.66614192       1.31511460
H        1.00107876       0.31190230      -1.41772407
H       -0.52281063      -1.73989081      -0.00564636
H       -1.23437496       1.18507790      -0.56198078
H       -1.59985978      -1.21966658      -2.39779124
H       -2.80512316       0.03724603      -2.05661488
H       -1.27460649       0.44915021      -2.88953825
H       -1.01006328       0.05945846       1.29385933
19
Frame=13 idx=008084 GeodesicLength=1.881694176404676 rxn_smarts="[C:1]([C:2]([C@@:3]([O:4][H:14])([C@@:5]([C:6]([H:16])([H:17])[H:18])([O:7][H:19])[H:15])[H:13])([H:11])[H:12])([H:8])([H:9])[H:10]>>[C:1]([C:2]([H:11])([H:12])[H:19])([H:8])([H:9])[H:10].[C:3](=[O:4])([C@@:5]([C:6]([H:16])([H:17])[H:18])([O:7][H:14])[H:15])[H:13]"
C        2.10237105       0.28265502       1.57981162
C        0.59741161       0.55774659       1.48327947
C        0.38902384      -0.24206676      -0.65231077
O        0.54084034      -1.53674943      -0.49782416
C       -1.09476799       0.10881829      -0.77280242
C       -1.71534167      -0.16306670      -2.12852862
O       -1.62054963      -0.71790003       0.25209248
H        2.29403190      -0.78947859       1.64625282
H        2.66481842       0.70363073       0.74261688
H        2.55881018       0.73512258       2.46357721
H        0.24158780       0.33345841       2.49775700
H        0.50782088       1.64842370       1.40839587
H        1.01987642       0.22856527      -1.41389520
H       -0.60330468      -1.74525663       0.02765949
H       -1.18009666       1.18941283      -0.57936817
H       -1.61194809      -1.21530510      -2.39743211
H       -2.77736976       0.08496543      -2.07686656
H       -1.22374909       0.43687020      -2.89746536
H       -1.08946486       0.10015419       1.31505053
19
Frame=14 idx=008084 GeodesicLength=2.026911388223947 rxn_smarts="[C:1]([C:2]([C@@:3]([O:4][H:14])([C@@:5]([C:6]([H:16])([H:17])[H:18])([O:7][H:19])[H:15])[H:13])([H:11])[H:12])([H:8])([H:9])[H:10]>>[C:1]([C:2]([H:11])([H:12])[H:19])([H:8])([H:9])[H:10].[C:3](=[O:4])([C@@:5]([C:6]([H:16])([H:17])[H:18])([O:7][H:14])[H:15])[H:13]"
C        2.11353389       0.32919019       1.54645672
C        0.59478398       0.53734456       1.50092118
C        0.39638721      -0.29092395      -0.63497372
O        0.50332025      -1.58767838      -0.45619098
C       -1.07444144       0.10686341      -0.77830278
C       -1.69373977      -0.15330106      -2.13554929
O       -1.64202300      -0.69138474       0.25214355
H        2.35676069      -0.73462327       1.54441395
H        2.62716570       0.82241721       0.71718858
H        2.57135717       0.75162820       2.44399359
H        0.27033956       0.20804948       2.49642701
H        0.45603703       1.62565689       1.50700806
H        1.03777860       0.14459206      -1.40941173
H       -0.68223720      -1.74739699       0.05925901
H       -1.12321092       1.19129688      -0.59435180
H       -1.62339035      -1.21035960      -2.39592339
H       -2.74712779       0.13169036      -2.09440468
H       -1.17351645       0.42327132      -2.90341265
H       -1.16777716       0.14366742       1.33470938
19
Frame=15 idx=008084 GeodesicLength=2.1730194748966647 rxn_smarts="[C:1]([C:2]([C@@:3]([O:4][H:14])([C@@:5]([C:6]([H:16])([H:17])[H:18])([O:7][H:19])[H:15])[H:13])([H:11])[H:12])([H:8])([H:9])[H:10]>>[C:1]([C:2]([H:11])([H:12])[H:19])([H:8])([H:9])[H:10].[C:3](=[O:4])([C@@:5]([C:6]([H:16])([H:17])[H:18])([O:7][H:14])[H:15])[H:13]"
C        2.12024254       0.37578186       1.51309957
C        0.59282436       0.51891638       1.51787947
C        0.40404910      -0.33979549      -0.61795396
O        0.46720984      -1.63649365      -0.41467480
C       -1.05237744       0.10371174      -0.78227020
C       -1.67103303      -0.14413167      -2.14078468
O       -1.65987265      -0.66457954       0.25349030
H        2.40918844      -0.67424469       1.44138527
H        2.58075948       0.93618424       0.69513004
H        2.58422373       0.76643122       2.42153330
H        0.30185216       0.08561961       2.48267462
H        0.40976018       1.59701714       1.60964715
H        1.05464821       0.06130777      -1.40406330
H       -0.75885002      -1.74646913       0.08891179
H       -1.06466478       1.19051045      -0.60654374
H       -1.63376776      -1.20472759      -2.39346352
H       -2.71450857       0.17704214      -2.10928814
H       -1.12392488       0.40876742      -2.90730320
H       -1.24575890       0.18915179       1.35259402
19
Frame=16 idx=008084 GeodesicLength=2.3201979278857987 rxn_smarts="[C:1]([C:2]([C@@:3]([O:4][H:14])([C@@:5]([C:6]([H:16])([H:17])[H:18])([O:7][H:19])[H:15])[H:13])([H:11])[H:12])([H:8])([H:9])[H:10]>>[C:1]([C:2]([H:11])([H:12])[H:19])([H:8])([H:9])[H:10].[C:3](=[O:4])([C@@:5]([C:6]([H:16])([H:17])[H:18])([O:7][H:14])[H:15])[H:13]"
C        2.12262080       0.42198791       1.47962306
C        0.59124249       0.50153364       1.53499239
C        0.41199512      -0.38844149      -0.60111554
O        0.43278748      -1.68308164      -0.37343413
C       -1.02878262       0.09938059      -0.78476836
C       -1.64718027      -0.13546766      -2.14436796
O       -1.67422001      -0.63775191       0.25598686
H        2.45126943      -0.60930881       1.33822859
H        2.52615085       1.04401156       0.67591220
H        2.59772317       0.78040019       2.39527895
H        0.33636194      -0.03137640       2.45844194
H        0.36916338       1.56120462       1.71539422
H        1.07049493      -0.02061930      -1.39765955
H       -0.83286497      -1.74261450       0.11661244
H       -1.00497680       1.18708481      -0.61592962
H       -1.64286926      -1.19831914      -2.39018865
H       -2.67957647       0.22101486      -2.12173583
H       -1.07483348       0.39358448      -2.90922545
H       -1.32450572       0.23677819       1.36795443
