12
Frame=0 idx=005846 GeodesicLength=0.0 rxn_smarts="[O:1]([C@@:2]1([H:8])[C:3]([H:9])([H:10])[C@:4]1([C:5]#[C:6][H:12])[H:11])[H:7]>>[O:1]([C@@:2]([C:3]([H:9])([H:10])[H:11])([C-:4]=[C:5]=[C+:6][H:12])[H:8])[H:7]"
O       -1.26169179       1.24830392      -0.31090724
C       -1.02007524       0.19121877       0.55832908
C       -0.77692987      -1.17530068      -0.07487227
C        0.36154561      -0.17673291       0.94681582
C        1.35999927       0.39160861       0.10594943
C        2.22149277       0.95355398      -0.52200751
H       -0.41927274       1.55062659      -0.67052006
H       -1.76400231       0.20198962       1.34803096
H       -0.66610351      -1.14601472      -1.15215247
H       -1.34171745      -2.00103023       0.34602235
H        0.28116590      -1.46414539       0.46042589
H        3.02558931       1.42592243      -1.03511397
12
Frame=1 idx=005846 GeodesicLength=0.05539512898780918 rxn_smarts="[O:1]([C@@:2]1([H:8])[C:3]([H:9])([H:10])[C@:4]1([C:5]#[C:6][H:12])[H:11])[H:7]>>[O:1]([C@@:2]([C:3]([H:9])([H:10])[H:11])([C-:4]=[C:5]=[C+:6][H:12])[H:8])[H:7]"
O       -1.26827580       1.24155346      -0.31631005
C       -1.01675138       0.18916646       0.55603423
C       -0.77999214      -1.17886508      -0.07426211
C        0.36780675      -0.17651340       0.93552414
C        1.36602597       0.39611070       0.10076794
C        2.22881863       0.95885577      -0.52518377
H       -0.42953025       1.55951657      -0.67013005
H       -1.75034365       0.20166444       1.35567123
H       -0.66162241      -1.15318742      -1.15101420
H       -1.36744831      -1.99324838       0.33716266
H        0.27757284      -1.48326278       0.48226627
H        3.03373975       1.43820964      -1.03052629
12
Frame=2 idx=005846 GeodesicLength=0.11080984160653984 rxn_smarts="[O:1]([C@@:2]1([H:8])[C:3]([H:9])([H:10])[C@:4]1([C:5]#[C:6][H:12])[H:11])[H:7]>>[O:1]([C@@:2]([C:3]([H:9])([H:10])[H:11])([C-:4]=[C:5]=[C+:6][H:12])[H:8])[H:7]"
O       -1.27478364       1.23473559      -0.32157951
C       -1.01332757       0.18700966       0.55370139
C       -0.78305010      -1.18255426      -0.07371238
C        0.37415627      -0.17662978       0.92391053
C        1.37213389       0.40083351       0.09566545
C        2.23624847       0.96436721      -0.52826877
H       -0.44004182       1.56848994      -0.66943981
H       -1.73644211       0.20122375       1.36315879
H       -0.65691035      -1.16049101      -1.14985822
H       -1.39304046      -1.98512777       0.32759716
H        0.27328608      -1.50215824       0.50521678
H        3.04177134       1.45030139      -1.02639141
12
Frame=3 idx=005846 GeodesicLength=0.16613174150922017 rxn_smarts="[O:1]([C@@:2]1([H:8])[C:3]([H:9])([H:10])[C@:4]1([C:5]#[C:6][H:12])[H:11])[H:7]>>[O:1]([C@@:2]([C:3]([H:9])([H:10])[H:11])([C-:4]=[C:5]=[C+:6][H:12])[H:8])[H:7]"
O       -1.28125051       1.22782710      -0.32663955
C       -1.00985139       0.18470559       0.55132121
C       -0.78597836      -1.18630113      -0.07331099
C        0.38051563      -0.17701584       0.91210466
C        1.37826681       0.40602768       0.09101850
C        2.24372476       0.97037980      -0.53078036
H       -0.45085919       1.57760029      -0.66823788
H       -1.72242570       0.20047723       1.37036876
H       -0.65173923      -1.16776467      -1.14872550
H       -1.41829427      -1.97667092       0.31706165
H        0.26834027      -1.52062159       0.52932874
H        3.04955118       1.46135648      -1.02350924
12
Frame=4 idx=005846 GeodesicLength=0.221504259845949 rxn_smarts="[O:1]([C@@:2]1([H:8])[C:3]([H:9])([H:10])[C@:4]1([C:5]#[C:6][H:12])[H:11])[H:7]>>[O:1]([C@@:2]([C:3]([H:9])([H:10])[H:11])([C-:4]=[C:5]=[C+:6][H:12])[H:8])[H:7]"
O       -1.28752801       1.22081003      -0.33165598
C       -1.00612334       0.18231637       0.54887866
C       -0.78914559      -1.19027691      -0.07286675
C        0.38713309      -0.17793474       0.89965103
C        1.38454601       0.41106796       0.08590257
C        2.25141026       0.97637554      -0.53356385
H       -0.46185917       1.58655776      -0.66704483
H       -1.70781401       0.19985449       1.37757155
H       -0.64685710      -1.17543960      -1.14750125
H       -1.44362576      -1.96780492       0.30618948
H        0.26249816      -1.53891469       0.55448155
H        3.05736546       1.47338871      -1.02004219
12
Frame=5 idx=005846 GeodesicLength=0.2768699242545935 rxn_smarts="[O:1]([C@@:2]1([H:8])[C:3]([H:9])([H:10])[C@:4]1([C:5]#[C:6][H:12])[H:11])[H:7]>>[O:1]([C@@:2]([C:3]([H:9])([H:10])[H:11])([C-:4]=[C:5]=[C+:6][H:12])[H:8])[H:7]"
O       -1.29373819       1.21371696      -0.33649869
C       -1.00229619       0.17978098       0.54638104
C       -0.79229401      -1.19438427      -0.07253664
C        0.39382327      -0.17924409       0.88684593
C        1.39087873       0.41645906       0.08103283
C        2.25919703       0.98277371      -0.53597933
H       -0.47315385       1.59559764      -0.66544543
H       -1.69297275       0.19900848       1.38457415
H       -0.64175719      -1.18321710      -1.14629553
H       -1.46866913      -1.95861618       0.29454048
H        0.25589585      -1.55674641       0.58076346
H        3.06508644       1.48487124      -1.01738226
12
Frame=6 idx=005846 GeodesicLength=0.33222738662410356 rxn_smarts="[O:1]([C@@:2]1([H:8])[C:3]([H:9])([H:10])[C@:4]1([C:5]#[C:6][H:12])[H:11])[H:7]>>[O:1]([C@@:2]([C:3]([H:9])([H:10])[H:11])([C-:4]=[C:5]=[C+:6][H:12])[H:8])[H:7]"
O       -1.29983211       1.20652105      -0.34121009
C       -0.99829036       0.17710661       0.54381253
C       -0.79553713      -1.19867463      -0.07226928
C        0.40067210      -0.18103671       0.87351418
C        1.39729485       0.42202153       0.07612827
C        2.26711014       0.98944426      -0.53823606
H       -0.48471356       1.60460829      -0.66358397
H       -1.67770625       0.19805241       1.39145067
H       -0.63669959      -1.19124091      -1.14507559
H       -1.49353255      -1.94906379       0.28229349
H        0.24844422      -1.57410741       0.60814542
H        3.07279024       1.49636928      -1.01496957
12
Frame=7 idx=005846 GeodesicLength=0.3875717422631616 rxn_smarts="[O:1]([C@@:2]1([H:8])[C:3]([H:9])([H:10])[C@:4]1([C:5]#[C:6][H:12])[H:11])[H:7]>>[O:1]([C@@:2]([C:3]([H:9])([H:10])[H:11])([C-:4]=[C:5]=[C+:6][H:12])[H:8])[H:7]"
O       -1.30582340       1.19925073      -0.34575089
C       -0.99417073       0.17426406       0.54116725
C       -0.79877343      -1.20310756      -0.07214579
C        0.40758574      -0.18328773       0.85980172
C        1.40375836       0.42796297       0.07159307
C        2.27515361       0.99657324      -0.53992498
H       -0.49654870       1.61368638      -0.66126010
H       -1.66220227       0.19684012       1.39808989
H       -0.63146807      -1.19936998      -1.14390123
H       -1.51803255      -1.93919417       0.26928051
H        0.24019496      -1.59085445       0.63662326
H        3.08032649       1.50723639      -1.01357271
12
Frame=8 idx=005846 GeodesicLength=0.4429350015273767 rxn_smarts="[O:1]([C@@:2]1([H:8])[C:3]([H:9])([H:10])[C@:4]1([C:5]#[C:6][H:12])[H:11])[H:7]>>[O:1]([C@@:2]([C:3]([H:9])([H:10])[H:11])([C-:4]=[C:5]=[C+:6][H:12])[H:8])[H:7]"
O       -1.31164334       1.19186899      -0.35019888
C       -0.98980064       0.17127813       0.53842188
C       -0.80224313      -1.20778666      -0.07204470
C        0.41472638      -0.18616245       0.84536388
C        1.41033252       0.43390100       0.06680011
C        2.28341755       1.00392572      -0.54148752
H       -0.50860794       1.62262273      -0.65880788
H       -1.64609740       0.19561671       1.40464546
H       -0.62659455      -1.20789035      -1.14269700
H       -1.54241348      -1.92895143       0.25591079
H        0.23102793      -1.60703954       0.66609927
H        3.08789609       1.51861714      -1.01200542
12
Frame=9 idx=005846 GeodesicLength=0.49836846305695526 rxn_smarts="[O:1]([C@@:2]1([H:8])[C:3]([H:9])([H:10])[C@:4]1([C:5]#[C:6][H:12])[H:11])[H:7]>>[O:1]([C@@:2]([C:3]([H:9])([H:10])[H:11])([C-:4]=[C:5]=[C+:6][H:12])[H:8])[H:7]"
O       -1.31723619       1.18432448      -0.35463697
C       -0.98505404       0.16815548       0.53553427
C       -0.80616663      -1.21280510      -0.07187338
C        0.42221688      -0.18983075       0.82985836
C        1.41704520       0.43948692       0.06118424
C        2.29199255       1.01161067      -0.54294536
H       -0.52084537       1.63123109      -0.65649648
H       -1.62903615       0.19459174       1.41122167
H       -0.62258348      -1.21705605      -1.14142815
H       -1.56688499      -1.91827781       0.24259000
H        0.22089373      -1.62268958       0.69644322
H        3.09565850       1.53125892      -1.00945141
12
Frame=10 idx=005846 GeodesicLength=0.5538288387643998 rxn_smarts="[O:1]([C@@:2]1([H:8])[C:3]([H:9])([H:10])[C@:4]1([C:5]#[C:6][H:12])[H:11])[H:7]>>[O:1]([C@@:2]([C:3]([H:9])([H:10])[H:11])([C-:4]=[C:5]=[C+:6][H:12])[H:8])[H:7]"
O       -1.32263325       1.17660072      -0.35902467
C       -0.97996944       0.16485994       0.53248196
C       -0.81049739      -1.21812364      -0.07167408
C        0.42999465      -0.19427601       0.81332268
C        1.42386662       0.44484904       0.05497046
C        2.30086075       1.01977310      -0.54402148
H       -0.53328692       1.63953274      -0.65420107
H       -1.61109508       0.19365416       1.41771383
H       -0.61937916      -1.22677432      -1.14011625
H       -1.59132298      -1.90718222       0.22926716
H        0.20989943      -1.63761650       0.72758959
H        3.10356277       1.54470301      -1.00630814
12
Frame=11 idx=005846 GeodesicLength=0.6093661287222287 rxn_smarts="[O:1]([C@@:2]1([H:8])[C:3]([H:9])([H:10])[C@:4]1([C:5]#[C:6][H:12])[H:11])[H:7]>>[O:1]([C@@:2]([C:3]([H:9])([H:10])[H:11])([C-:4]=[C:5]=[C+:6][H:12])[H:8])[H:7]"
O       -1.32788696       1.16875855      -0.36333439
C       -0.97460434       0.16137878       0.52926583
C       -0.81518994      -1.22375066      -0.07149399
C        0.43798724      -0.19949834       0.79579668
C        1.43076314       0.45011264       0.04833589
C        2.31003152       1.02868684      -0.54430355
H       -0.54597531       1.64762607      -0.65184322
H       -1.59238071       0.19272088       1.42410096
H       -0.61691117      -1.23699989      -1.13884069
H       -1.61561676      -1.89576229       0.21590055
H        0.19815649      -1.65170341       0.75948315
H        3.11162680       1.55843082      -1.00306722
12
Frame=12 idx=005846 GeodesicLength=0.6649682049533868 rxn_smarts="[O:1]([C@@:2]1([H:8])[C:3]([H:9])([H:10])[C@:4]1([C:5]#[C:6][H:12])[H:11])[H:7]>>[O:1]([C@@:2]([C:3]([H:9])([H:10])[H:11])([C-:4]=[C:5]=[C+:6][H:12])[H:8])[H:7]"
O       -1.33297342       1.16076128      -0.36760472
C       -0.96888494       0.15771059       0.52584370
C       -0.82039059      -1.22972526      -0.07127165
C        0.44624570      -0.20559968       0.77704129
C        1.43774116       0.45505687       0.04094512
C        2.31954663       1.03837865      -0.54373658
H       -0.55888471       1.65537263      -0.64959865
H       -1.57265676       0.19190873       1.43040569
H       -0.61554685      -1.24787592      -1.13757747
H       -1.63987460      -1.88398201       0.20278969
H        0.18573861      -1.66487775       0.79197463
H        3.11993979       1.57287187      -0.99921104
12
Frame=13 idx=005846 GeodesicLength=0.7205420351622172 rxn_smarts="[O:1]([C@@:2]1([H:8])[C:3]([H:9])([H:10])[C@:4]1([C:5]#[C:6][H:12])[H:11])[H:7]>>[O:1]([C@@:2]([C:3]([H:9])([H:10])[H:11])([C-:4]=[C:5]=[C+:6][H:12])[H:8])[H:7]"
O       -1.33802457       1.15265851      -0.37168739
C       -0.96305306       0.15378539       0.52223250
C       -0.82571263      -1.23589177      -0.07124385
C        0.45449603      -0.21230169       0.75756238
C        1.44467677       0.46042664       0.03400309
C        2.32926471       1.04946660      -0.54119074
H       -0.57215583       1.66310147      -0.64683049
H       -1.55254539       0.19074123       1.43635794
H       -0.61449404      -1.25892323      -1.13647458
H       -1.66359166      -1.87202060       0.18926197
H        0.17291932      -1.67679244       0.82504770
H        3.12822035       1.58574990      -0.99703854
12
Frame=14 idx=005846 GeodesicLength=0.7762901578675543 rxn_smarts="[O:1]([C@@:2]1([H:8])[C:3]([H:9])([H:10])[C@:4]1([C:5]#[C:6][H:12])[H:11])[H:7]>>[O:1]([C@@:2]([C:3]([H:9])([H:10])[H:11])([C-:4]=[C:5]=[C+:6][H:12])[H:8])[H:7]"
O       -1.34289786       1.14439414      -0.37580216
C       -0.95681167       0.14964948       0.51832793
C       -0.83175012      -1.24249110      -0.07113421
C        0.46301956      -0.22005058       0.73649316
C        1.45170425       0.46516778       0.02587856
C        2.33955899       1.06228774      -0.53635430
H       -0.58560775       1.67036316      -0.64438751
H       -1.53116842       0.18981064       1.44222626
H       -0.61505211      -1.27082033      -1.13542967
H       -1.68743228      -1.85973487       0.17640536
H        0.15967786      -1.68770734       0.85839054
H        3.13675954       1.59913128      -0.99461396
12
Frame=15 idx=005846 GeodesicLength=0.8322351217627345 rxn_smarts="[O:1]([C@@:2]1([H:8])[C:3]([H:9])([H:10])[C@:4]1([C:5]#[C:6][H:12])[H:11])[H:7]>>[O:1]([C@@:2]([C:3]([H:9])([H:10])[H:11])([C-:4]=[C:5]=[C+:6][H:12])[H:8])[H:7]"
O       -1.34748564       1.13583075      -0.38013165
C       -0.94982006       0.14535759       0.51399169
C       -0.83904601      -1.24964744      -0.07061014
C        0.47209699      -0.22920746       0.71289443
C        1.45892303       0.46829707       0.01491917
C        2.35050678       1.07598918      -0.53039972
H       -0.59909582       1.67664776      -0.64307204
H       -1.50751420       0.18969685       1.44815330
H       -0.61852311      -1.28415375      -1.13423049
H       -1.71197901      -1.84683973       0.16538251
H        0.14613567      -1.69765532       0.89175517
H        3.14580137       1.61568451      -0.98865223
12
Frame=16 idx=005846 GeodesicLength=0.8883350411755497 rxn_smarts="[O:1]([C@@:2]1([H:8])[C:3]([H:9])([H:10])[C@:4]1([C:5]#[C:6][H:12])[H:11])[H:7]>>[O:1]([C@@:2]([C:3]([H:9])([H:10])[H:11])([C-:4]=[C:5]=[C+:6][H:12])[H:8])[H:7]"
O       -1.35196473       1.12711635      -0.38448491
C       -0.94241756       0.14083224       0.50925441
C       -0.84706028      -1.25717573      -0.07001442
C        0.48133340      -0.23941067       0.68745958
C        1.46619039       0.47080960       0.00269845
C        2.36199854       1.09170867      -0.52101593
H       -0.61279322       1.68246699      -0.64209680
H       -1.48244215       0.18976851       1.45381472
H       -0.62379567      -1.29828380      -1.13313535
H       -1.73657000      -1.83362025       0.15523564
H        0.13272044      -1.70627941       0.92511807
H        3.15480083       1.63206752      -0.98283346
