14
Frame=0 idx=011713 GeodesicLength=0.0 rxn_smarts="[C:1]([c:2]1[c:3]([H:11])[o:4][c:5]([H:12])[c:6]1[N:7]([H:13])[H:14])([H:8])([H:9])[H:10]>>[C:1]([C-:2]1[C:6](=[C:5]([O+:4]=[C-:3][H:11])[H:12])[N+:7]1([H:13])[H:14])([H:8])([H:9])[H:10]"
C       -1.68254533       0.68208256       0.62960598
C       -0.29308397       0.26925061       0.94147382
C       -0.26532721      -2.28582387      -0.39039248
O        0.88171850      -1.98721156      -0.91531936
C        1.33709982      -0.67188715      -0.81306851
C        0.70662230       0.17804124      -0.00824957
N        0.97965783       1.54684349       0.29728562
H       -2.22856183      -0.26605993       0.61864644
H       -1.82724813       1.15950975      -0.34614735
H       -2.11232239       1.29529229       1.42103600
H       -0.32456029      -3.38438022      -0.54468114
H        2.24433749      -0.48804395      -1.36352917
H        0.84158224       2.21052797      -0.44789660
H        1.74263094       1.74185878       0.92123630
14
Frame=1 idx=011713 GeodesicLength=0.07390869576261763 rxn_smarts="[C:1]([c:2]1[c:3]([H:11])[o:4][c:5]([H:12])[c:6]1[N:7]([H:13])[H:14])([H:8])([H:9])[H:10]>>[C:1]([C-:2]1[C:6](=[C:5]([O+:4]=[C-:3][H:11])[H:12])[N+:7]1([H:13])[H:14])([H:8])([H:9])[H:10]"
C       -1.68737658       0.67707991       0.62205959
C       -0.29859856       0.23878840       0.90287582
C       -0.24197643      -2.27150173      -0.34155712
O        0.88554167      -1.98485377      -0.91816778
C        1.33994559      -0.66765606      -0.84324266
C        0.69924075       0.18830372      -0.05253502
N        0.97702195       1.54158762       0.30578789
H       -2.24907258      -0.26115183       0.58995490
H       -1.83879045       1.18548173      -0.33691111
H       -2.09774032       1.27443476       1.43575742
H       -0.33583013      -3.36485187      -0.50866245
H        2.26960634      -0.49926773      -1.35989523
H        0.82237699       2.23081308      -0.41282192
H        1.75565177       1.71279377       0.91735766
14
Frame=2 idx=011713 GeodesicLength=0.14812171661609785 rxn_smarts="[C:1]([c:2]1[c:3]([H:11])[o:4][c:5]([H:12])[c:6]1[N:7]([H:13])[H:14])([H:8])([H:9])[H:10]>>[C:1]([C-:2]1[C:6](=[C:5]([O+:4]=[C-:3][H:11])[H:12])[N+:7]1([H:13])[H:14])([H:8])([H:9])[H:10]"
C       -1.69113048       0.67002378       0.61548773
C       -0.30278302       0.21076093       0.86559888
C       -0.22059346      -2.25374454      -0.29859874
O        0.88958387      -1.98208988      -0.91936772
C        1.34598933      -0.66474846      -0.86748747
C        0.69364873       0.19838148      -0.09343970
N        0.97395062       1.53635222       0.31211220
H       -2.26720197      -0.25853189       0.56760755
H       -1.85003593       1.20437280      -0.32805911
H       -2.08231021       1.25390411       1.44834016
H       -0.35388793      -3.33989277      -0.47942495
H        2.29554769      -0.51089971      -1.35125873
H        0.80177526       2.24751491      -0.38103268
H        1.76744748       1.68859701       0.90952258
14
Frame=3 idx=011713 GeodesicLength=0.222630236486693 rxn_smarts="[C:1]([c:2]1[c:3]([H:11])[o:4][c:5]([H:12])[c:6]1[N:7]([H:13])[H:14])([H:8])([H:9])[H:10]>>[C:1]([C-:2]1[C:6](=[C:5]([O+:4]=[C-:3][H:11])[H:12])[N+:7]1([H:13])[H:14])([H:8])([H:9])[H:10]"
C       -1.69408141       0.66167172       0.60920239
C       -0.30622869       0.18455816       0.82955409
C       -0.20158271      -2.23364114      -0.26156423
O        0.89382247      -1.97906817      -0.91945593
C        1.35404608      -0.66272317      -0.88730158
C        0.68974692       0.20782283      -0.13082508
N        0.97089839       1.53069935       0.31766536
H       -2.28372536      -0.25738135       0.54955862
H       -1.86051757       1.21812536      -0.32018205
H       -2.06638535       1.23413634       1.45861158
H       -0.37508931      -3.31145386      -0.45253098
H        2.31983779      -0.52155061      -1.34180079
H        0.78085321       2.26101258      -0.35082501
H        1.77840553       1.66779197       0.89989360
14
Frame=4 idx=011713 GeodesicLength=0.2974375090261078 rxn_smarts="[C:1]([c:2]1[c:3]([H:11])[o:4][c:5]([H:12])[c:6]1[N:7]([H:13])[H:14])([H:8])([H:9])[H:10]>>[C:1]([C-:2]1[C:6](=[C:5]([O+:4]=[C-:3][H:11])[H:12])[N+:7]1([H:13])[H:14])([H:8])([H:9])[H:10]"
C       -1.69616556       0.65191751       0.60354179
C       -0.30862309       0.16032887       0.79536747
C       -0.18318327      -2.21264932      -0.22651279
O        0.89948231      -1.97645995      -0.91640819
C        1.36398035      -0.66166716      -0.90267094
C        0.68769869       0.21649374      -0.16448106
N        0.96767419       1.52525543       0.32189309
H       -2.29827990      -0.25824722       0.53635676
H       -1.87048379       1.22639390      -0.31337651
H       -2.05005143       1.21540049       1.46687642
H       -0.40277765      -3.27818335      -0.43395350
H        2.34312736      -0.53160844      -1.33106020
H        0.75910823       2.27152619      -0.32344970
H        1.78849357       1.65149932       0.88787738
14
Frame=5 idx=011713 GeodesicLength=0.3723999593806434 rxn_smarts="[C:1]([c:2]1[c:3]([H:11])[o:4][c:5]([H:12])[c:6]1[N:7]([H:13])[H:14])([H:8])([H:9])[H:10]>>[C:1]([C-:2]1[C:6](=[C:5]([O+:4]=[C-:3][H:11])[H:12])[N+:7]1([H:13])[H:14])([H:8])([H:9])[H:10]"
C       -1.69813823       0.64244949       0.59728508
C       -0.31156706       0.13692423       0.76132959
C       -0.16945979      -2.18975768      -0.20074442
O        0.90440627      -1.97343691      -0.91435213
C        1.37350405      -0.66049711      -0.91714804
C        0.68638315       0.22439862      -0.19570474
N        0.96499379       1.51844327       0.32741220
H       -2.31290132      -0.25842817       0.52370191
H       -1.87939040       1.23388721      -0.30745229
H       -2.03365425       1.19752096       1.47343055
H       -0.42446015      -3.24663088      -0.40694139
H        2.36322794      -0.53971189      -1.32338918
H        0.73869004       2.27968142      -0.29444918
H        1.79836596       1.63515745       0.87702204
14
Frame=6 idx=011713 GeodesicLength=0.44761458024954354 rxn_smarts="[C:1]([c:2]1[c:3]([H:11])[o:4][c:5]([H:12])[c:6]1[N:7]([H:13])[H:14])([H:8])([H:9])[H:10]>>[C:1]([C-:2]1[C:6](=[C:5]([O+:4]=[C-:3][H:11])[H:12])[N+:7]1([H:13])[H:14])([H:8])([H:9])[H:10]"
C       -1.69940343       0.63195943       0.59183321
C       -0.31357513       0.11521225       0.72922062
C       -0.15592042      -2.16706542      -0.17520484
O        0.91097839      -1.97096705      -0.90886213
C        1.38429364      -0.66024354      -0.92805990
C        0.68657811       0.23145521      -0.22370966
N        0.96207415       1.51206120       0.33161417
H       -2.32580144      -0.26034963       0.51539278
H       -1.88804180       1.23701118      -0.30236042
H       -2.01691985       1.18084119       1.47866518
H       -0.45201707      -3.21065907      -0.38953756
H        2.38283484      -0.54770520      -1.31446186
H        0.71746052       2.28535236      -0.26849777
H        1.80745950       1.62309709       0.86396819
14
Frame=7 idx=011713 GeodesicLength=0.5228638011014747 rxn_smarts="[C:1]([c:2]1[c:3]([H:11])[o:4][c:5]([H:12])[c:6]1[N:7]([H:13])[H:14])([H:8])([H:9])[H:10]>>[C:1]([C-:2]1[C:6](=[C:5]([O+:4]=[C-:3][H:11])[H:12])[N+:7]1([H:13])[H:14])([H:8])([H:9])[H:10]"
C       -1.70057678       0.62175959       0.58628993
C       -0.31586362       0.09452932       0.69765193
C       -0.14538551      -2.14374195      -0.15489826
O        0.91748992      -1.96851923      -0.90297758
C        1.39480881      -0.66012379      -0.93786096
C        0.68740978       0.23786907      -0.24957310
N        0.95942158       1.50503624       0.33630772
H       -2.33850800      -0.26190947       0.50820827
H       -1.89611003       1.23936156      -0.29782080
H       -2.00019623       1.16512233       1.48283369
H       -0.47631184      -3.17581201      -0.36991008
H        2.40059884      -0.55471574      -1.30701296
H        0.69698468       2.28909911      -0.24237490
H        1.81623839       1.61204497       0.85113712
14
Frame=8 idx=011713 GeodesicLength=0.598192559505559 rxn_smarts="[C:1]([c:2]1[c:3]([H:11])[o:4][c:5]([H:12])[c:6]1[N:7]([H:13])[H:14])([H:8])([H:9])[H:10]>>[C:1]([C-:2]1[C:6](=[C:5]([O+:4]=[C-:3][H:11])[H:12])[N+:7]1([H:13])[H:14])([H:8])([H:9])[H:10]"
C       -1.70155724       0.61162382       0.58096237
C       -0.31814908       0.07496908       0.66688110
C       -0.13681153      -2.12030336      -0.13776865
O        0.92421327      -1.96621662      -0.89616689
C        1.40536319      -0.66031644      -0.94616556
C        0.68892380       0.24368142      -0.27339199
N        0.95686797       1.49776553       0.34095339
H       -2.35069334      -0.26354138       0.50271814
H       -1.90381973       1.24048987      -0.29368366
H       -1.98341074       1.15029926       1.48619569
H       -0.49962881      -3.14101891      -0.35146423
H        2.41728204      -0.56125179      -1.29993757
H        0.67683359       2.29106754      -0.21700611
H        1.82458662       1.60275198       0.83787396
14
Frame=9 idx=011713 GeodesicLength=0.6735757395625559 rxn_smarts="[C:1]([c:2]1[c:3]([H:11])[o:4][c:5]([H:12])[c:6]1[N:7]([H:13])[H:14])([H:8])([H:9])[H:10]>>[C:1]([C-:2]1[C:6](=[C:5]([O+:4]=[C-:3][H:11])[H:12])[N+:7]1([H:13])[H:14])([H:8])([H:9])[H:10]"
C       -1.70244364       0.60176674       0.57575801
C       -0.32058592       0.05644740       0.63665143
C       -0.13034918      -2.09681616      -0.12393601
O        0.93074828      -1.96379679      -0.88931573
C        1.41577186      -0.66068960      -0.95336975
C        0.69094637       0.24902229      -0.29549637
N        0.95445455       1.49020125       0.34573265
H       -2.36255824      -0.26492601       0.49840435
H       -1.91119841       1.24104724      -0.28980617
H       -1.96661897       1.13627135       1.48889836
H       -0.52086062      -3.10737952      -0.33279551
H        2.43297226      -0.56744740      -1.29315359
H        0.65718158       2.29149613      -0.19204127
H        1.83254008       1.59480308       0.82446958
14
Frame=10 idx=011713 GeodesicLength=0.7489752938965125 rxn_smarts="[C:1]([c:2]1[c:3]([H:11])[o:4][c:5]([H:12])[c:6]1[N:7]([H:13])[H:14])([H:8])([H:9])[H:10]>>[C:1]([C-:2]1[C:6](=[C:5]([O+:4]=[C-:3][H:11])[H:12])[N+:7]1([H:13])[H:14])([H:8])([H:9])[H:10]"
C       -1.70324485       0.59218324       0.57072754
C       -0.32315239       0.03894630       0.60691055
C       -0.12562999      -2.07339571      -0.11281782
O        0.93703787      -1.96139270      -0.88232205
C        1.42607189      -0.66125371      -0.95950718
C        0.69340965       0.25395756      -0.31608589
N        0.95215212       1.48244006       0.35054931
H       -2.37408118      -0.26609165       0.49516592
H       -1.91832202       1.24118493      -0.28605530
H       -1.94982562       1.12289411       1.49111226
H       -0.54038307      -3.07484456      -0.31445000
H        2.44791311      -0.57341118      -1.28644959
H        0.63797544       2.29055077      -0.16760912
H        1.84007905       1.58823255       0.81083137
14
Frame=11 idx=011713 GeodesicLength=0.8243926617914032 rxn_smarts="[C:1]([c:2]1[c:3]([H:11])[o:4][c:5]([H:12])[c:6]1[N:7]([H:13])[H:14])([H:8])([H:9])[H:10]>>[C:1]([C-:2]1[C:6](=[C:5]([O+:4]=[C-:3][H:11])[H:12])[N+:7]1([H:13])[H:14])([H:8])([H:9])[H:10]"
C       -1.70395659       0.58285078       0.56590285
C       -0.32581918       0.02242690       0.57759178
C       -0.12241079      -2.05014520      -0.10403196
O        0.94297269      -1.95894159      -0.87544393
C        1.43631150      -0.66199852      -0.96462354
C        0.69627120       0.25854986      -0.33534272
N        0.94993907       1.47456023       0.35533638
H       -2.38523582      -0.26707648       0.49295185
H       -1.92525551       1.24098453      -0.28233576
H       -1.93300606       1.11006312       1.49294455
H       -0.55847830      -3.04340530      -0.29658156
H        2.46232942      -0.57930860      -1.27949334
H        0.61916751       2.28838145      -0.14379366
H        1.84717088       1.58305882       0.79691906
14
Frame=12 idx=011713 GeodesicLength=0.8998226136433433 rxn_smarts="[C:1]([c:2]1[c:3]([H:11])[o:4][c:5]([H:12])[c:6]1[N:7]([H:13])[H:14])([H:8])([H:9])[H:10]>>[C:1]([C-:2]1[C:6](=[C:5]([O+:4]=[C-:3][H:11])[H:12])[N+:7]1([H:13])[H:14])([H:8])([H:9])[H:10]"
C       -1.70457808       0.57375390       0.56129058
C       -0.32857513       0.00684640       0.54861307
C       -0.12050278      -2.02711984      -0.09733511
O        0.94846393      -1.95641854      -0.86886707
C        1.44651946      -0.66290463      -0.96877969
C        0.69949263       0.26285401      -0.35342804
N        0.94780470       1.46660881       0.36006569
H       -2.39601305      -0.26789989       0.49168172
H       -1.93204317       1.24053341      -0.27857522
H       -1.91613757       1.09768141       1.49447139
H       -0.57532508      -3.01306739      -0.27916690
H        2.47636971      -0.58523440      -1.27209578
H        0.60073943       2.28511814      -0.12061746
H        1.85378501       1.57924861       0.78274282
14
Frame=13 idx=011713 GeodesicLength=0.975270801442492 rxn_smarts="[C:1]([c:2]1[c:3]([H:11])[o:4][c:5]([H:12])[c:6]1[N:7]([H:13])[H:14])([H:8])([H:9])[H:10]>>[C:1]([C-:2]1[C:6](=[C:5]([O+:4]=[C-:3][H:11])[H:12])[N+:7]1([H:13])[H:14])([H:8])([H:9])[H:10]"
C       -1.70509166       0.56484118       0.55691933
C       -0.33138432      -0.00783671       0.51993370
C       -0.11969161      -2.00436697      -0.09244210
O        0.95350768      -1.95386374      -0.86259645
C        1.45675021      -0.66398053      -0.97197424
C        0.70305615       0.26689913      -0.37046367
N        0.94573129       1.45864468       0.36467704
H       -2.40637245      -0.26863651       0.49136516
H       -1.93873110       1.23981817      -0.27471924
H       -1.89918088       1.08567265       1.49575579
H       -0.59128490      -2.98362288      -0.26245856
H        2.49016605      -0.59126045      -1.26409642
H        0.58264434       2.28086640      -0.09816796
H        1.85988119       1.57682559       0.76826765
14
Frame=14 idx=011713 GeodesicLength=1.0507441108423747 rxn_smarts="[C:1]([c:2]1[c:3]([H:11])[o:4][c:5]([H:12])[c:6]1[N:7]([H:13])[H:14])([H:8])([H:9])[H:10]>>[C:1]([C-:2]1[C:6](=[C:5]([O+:4]=[C-:3][H:11])[H:12])[N+:7]1([H:13])[H:14])([H:8])([H:9])[H:10]"
C       -1.70547929       0.55607386       0.55280337
C       -0.33422146      -0.02166742       0.49150370
C       -0.11985017      -1.98191658      -0.08919692
O        0.95807965      -1.95125717      -0.85673795
C        1.46704554      -0.66522333      -0.97421629
C        0.70695072       0.27071352      -0.38655311
N        0.94370525       1.45071120       0.36914027
H       -2.41628384      -0.26933894       0.49203510
H       -1.94535801       1.23881164      -0.27074401
H       -1.88208220       1.07401107       1.49682215
H       -0.60658590      -2.95496260      -0.24652273
H        2.50381478      -0.59745721      -1.25535069
H        0.56485318       2.27572076      -0.07649468
H        1.86541175       1.57578120       0.75351181
14
Frame=15 idx=011713 GeodesicLength=1.126252170947211 rxn_smarts="[C:1]([c:2]1[c:3]([H:11])[o:4][c:5]([H:12])[c:6]1[N:7]([H:13])[H:14])([H:8])([H:9])[H:10]>>[C:1]([C-:2]1[C:6](=[C:5]([O+:4]=[C-:3][H:11])[H:12])[N+:7]1([H:13])[H:14])([H:8])([H:9])[H:10]"
C       -1.70571845       0.54740498       0.54896694
C       -0.33705765      -0.03468726       0.46328836
C       -0.12085370      -1.95978486      -0.08744626
O        0.96218959      -1.94862582      -0.85128513
C        1.47744798      -0.66664287      -0.97549058
C        0.71116892       0.27431252      -0.40178250
N        0.94171167       1.44285328       0.37341273
H       -2.42570869      -0.27007289       0.49374861
H       -1.95196195       1.23746418      -0.26662534
H       -1.86478418       1.06267422       1.49769667
H       -0.62148997      -2.92690494      -0.23154037
H        2.51739659      -0.60387394      -1.24574597
H        0.54733064       2.26976462      -0.05566977
H        1.87032918       1.57611879       0.73847261
14
Frame=16 idx=011713 GeodesicLength=1.201806062178704 rxn_smarts="[C:1]([c:2]1[c:3]([H:11])[o:4][c:5]([H:12])[c:6]1[N:7]([H:13])[H:14])([H:8])([H:9])[H:10]>>[C:1]([C-:2]1[C:6](=[C:5]([O+:4]=[C-:3][H:11])[H:12])[N+:7]1([H:13])[H:14])([H:8])([H:9])[H:10]"
C       -1.70578429       0.53879282       0.54543381
C       -0.33986764      -0.04693526       0.43525159
C       -0.12261995      -1.93797687      -0.08709806
O        0.96583401      -1.94597549      -0.84627062
C        1.48799431      -0.66824672      -0.97577824
C        0.71570599       0.27770975      -0.41622823
N        0.93973555       1.43511308       0.37745627
H       -2.43460737      -0.27089584       0.49658186
H       -1.95857979       1.23571869      -0.26234669
H       -1.84722038       1.05166212       1.49839306
H       -0.63619866      -2.89931052      -0.21763961
H        2.53098030      -0.61056332      -1.23515546
H        0.53004615       2.26307620      -0.03576184
H        1.87458177       1.57783137       0.72316218
