8
Frame=0 idx=001672 GeodesicLength=0.0 rxn_smarts="[O:1]([C:2]([C:3](=[O:4])[H:8])([H:6])[H:7])[H:5]>>[O:1]([O:4][C:3](=[C:2]([H:6])[H:7])[H:8])[H:5]"
O       -1.47738504       0.93951684       0.35463599
C       -0.03670905      -1.00197180      -0.18682832
C        0.86906090       0.05182913      -0.19363109
O        0.60395150       1.24164219      -0.03378171
H       -1.26932698       1.87802050       0.38527232
H       -0.81093006      -0.93520968       0.56620916
H        0.18504971      -1.94505728      -0.67180088
H        1.93628903      -0.22876990      -0.22007544
8
Frame=1 idx=001672 GeodesicLength=0.06293459551518418 rxn_smarts="[O:1]([C:2]([C:3](=[O:4])[H:8])([H:6])[H:7])[H:5]>>[O:1]([O:4][C:3](=[C:2]([H:6])[H:7])[H:8])[H:5]"
O       -1.46977946       0.92513398       0.28328791
C       -0.05149210      -0.98575808      -0.18032108
C        0.87210668       0.05384799      -0.17460599
O        0.60452253       1.24964414      -0.04253884
H       -1.25916766       1.85389159       0.41797528
H       -0.79707896      -0.94496462       0.60321615
H        0.16418164      -1.92278985      -0.68033756
H        1.93670733      -0.22900514      -0.22667588
8
Frame=2 idx=001672 GeodesicLength=0.12624842289785004 rxn_smarts="[O:1]([C:2]([C:3](=[O:4])[H:8])([H:6])[H:7])[H:5]>>[O:1]([O:4][C:3](=[C:2]([H:6])[H:7])[H:8])[H:5]"
O       -1.45846031       0.91331024       0.21924527
C       -0.06571022      -0.96924202      -0.17283366
C        0.87528266       0.05602979      -0.15404693
O        0.60529345       1.25766407      -0.05448383
H       -1.25025995       1.82406381       0.44823473
H       -0.78739846      -0.95255243       0.63395581
H        0.14461723      -1.90029082      -0.68683324
H        1.93663561      -0.22898263      -0.23323815
8
Frame=3 idx=001672 GeodesicLength=0.18990333265439763 rxn_smarts="[O:1]([C:2]([C:3](=[O:4])[H:8])([H:6])[H:7])[H:5]>>[O:1]([O:4][C:3](=[C:2]([H:6])[H:7])[H:8])[H:5]"
O       -1.44426631       0.90294984       0.16363377
C       -0.07932284      -0.95260980      -0.16458420
C        0.87849469       0.05838706      -0.13240442
O        0.60646810       1.26526384      -0.06661333
H       -1.24283406       1.79153399       0.47240971
H       -0.78004752      -0.95959902       0.66095352
H        0.12565286      -1.87710960      -0.69309522
H        1.93585508      -0.22881631      -0.24029984
8
Frame=4 idx=001672 GeodesicLength=0.2539935904526877 rxn_smarts="[O:1]([C:2]([C:3](=[O:4])[H:8])([H:6])[H:7])[H:5]>>[O:1]([O:4][C:3](=[C:2]([H:6])[H:7])[H:8])[H:5]"
O       -1.42807974       0.89355525       0.11452157
C       -0.09242869      -0.93600784      -0.15609327
C        0.88139409       0.06104890      -0.11226336
O        0.60796301       1.27238311      -0.07772737
H       -1.23650009       1.75769417       0.49178552
H       -0.77365359      -0.96630992       0.68542757
H        0.10709399      -1.85378277      -0.69888708
H        1.93421104      -0.22858090      -0.24676356
8
Frame=5 idx=001672 GeodesicLength=0.31826611708900476 rxn_smarts="[O:1]([C:2]([C:3](=[O:4])[H:8])([H:6])[H:7])[H:5]>>[O:1]([O:4][C:3](=[C:2]([H:6])[H:7])[H:8])[H:5]"
O       -1.41072944       0.88489753       0.07082171
C       -0.10519961      -0.91958451      -0.14769686
C        0.88385552       0.06395487      -0.09441743
O        0.60964959       1.27915782      -0.08727722
H       -1.23092107       1.72359631       0.50712690
H       -0.76760487      -0.97292792       0.70793357
H        0.08900216      -1.83077059      -0.70406437
H        1.93194772      -0.22832352      -0.25242630
8
Frame=6 idx=001672 GeodesicLength=0.3827938234234559 rxn_smarts="[O:1]([C:2]([C:3](=[O:4])[H:8])([H:6])[H:7])[H:5]>>[O:1]([O:4][C:3](=[C:2]([H:6])[H:7])[H:8])[H:5]"
O       -1.39271058       0.87688607       0.03153457
C       -0.11772649      -0.90335055      -0.13949516
C        0.88580294       0.06707439      -0.07872661
O        0.61123729       1.28567291      -0.09636467
H       -1.22547215       1.68935836       0.51975555
H       -0.76177096      -0.97955138       0.72865466
H        0.07141485      -1.80806820      -0.70865510
H        1.92922510      -0.22802161      -0.25670325
8
Frame=7 idx=001672 GeodesicLength=0.4474389170709283 rxn_smarts="[O:1]([C:2]([C:3](=[O:4])[H:8])([H:6])[H:7])[H:5]>>[O:1]([O:4][C:3](=[C:2]([H:6])[H:7])[H:8])[H:5]"
O       -1.37420828       0.86936973      -0.00424871
C       -0.12991638      -0.88745488      -0.13121477
C        0.88746360       0.07025034      -0.06470960
O        0.61284345       1.29196455      -0.10407605
H       -1.22052163       1.65559605       0.52965922
H       -0.75603917      -0.98632133       0.74803007
H        0.05415138      -1.78573305      -0.71278661
H        1.92622703      -0.22767141      -0.26065356
8
Frame=8 idx=001672 GeodesicLength=0.5122960555960006 rxn_smarts="[O:1]([C:2]([C:3](=[O:4])[H:8])([H:6])[H:7])[H:5]>>[O:1]([O:4][C:3](=[C:2]([H:6])[H:7])[H:8])[H:5]"
O       -1.35525197       0.86216831      -0.03703354
C       -0.14174365      -0.87194350      -0.12274845
C        0.88892055       0.07335415      -0.05193536
O        0.61446407       1.29802391      -0.11008455
H       -1.21615075       1.62274348       0.53687461
H       -0.75034368      -0.99340930       0.76626094
H        0.03718856      -1.76370052      -0.71648535
H        1.92291688      -0.22723653      -0.26484829
8
Frame=9 idx=001672 GeodesicLength=0.5773140269636861 rxn_smarts="[O:1]([C:2]([C:3](=[O:4])[H:8])([H:6])[H:7])[H:5]>>[O:1]([O:4][C:3](=[C:2]([H:6])[H:7])[H:8])[H:5]"
O       -1.33613990       0.85542824      -0.06746622
C       -0.15331850      -0.85672619      -0.11420245
C        0.89013044       0.07646936      -0.04024438
O        0.61595769       1.30393304      -0.11557785
H       -1.21190680       1.59032071       0.54253273
H       -0.74472145      -1.00071673       0.78335522
H        0.02055310      -1.74195452      -0.71974738
H        1.91944541      -0.22675391      -0.26864966
8
Frame=10 idx=001672 GeodesicLength=0.6424350756769327 rxn_smarts="[O:1]([C:2]([C:3](=[O:4])[H:8])([H:6])[H:7])[H:5]>>[O:1]([O:4][C:3](=[C:2]([H:6])[H:7])[H:8])[H:5]"
O       -1.31693050       0.84894249      -0.09549506
C       -0.16462045      -0.84188857      -0.10555166
C        0.89114276       0.07948961      -0.02940355
O        0.61729969       1.30968019      -0.12036028
H       -1.20787943       1.55895515       0.54638335
H       -0.73905731      -1.00849230       0.79944158
H        0.00423900      -1.72048437      -0.72272834
H        1.91580623      -0.22620220      -0.27228602
8
Frame=11 idx=001672 GeodesicLength=0.7077296586573416 rxn_smarts="[O:1]([C:2]([C:3](=[O:4])[H:8])([H:6])[H:7])[H:5]>>[O:1]([O:4][C:3](=[C:2]([H:6])[H:7])[H:8])[H:5]"
O       -1.29761422       0.84283298      -0.12187806
C       -0.17569146      -0.82733232      -0.09674825
C        0.89201710       0.08243505      -0.01926086
O        0.61857036       1.31529787      -0.12429124
H       -1.20408177       1.52823323       0.54889481
H       -0.73342740      -1.01656007       0.81459119
H       -0.01175320      -1.69931640      -0.72518703
H        1.91198060      -0.22559033      -0.27612055
8
Frame=12 idx=001672 GeodesicLength=0.7730710351510061 rxn_smarts="[O:1]([C:2]([C:3](=[O:4])[H:8])([H:6])[H:7])[H:5]>>[O:1]([O:4][C:3](=[C:2]([H:6])[H:7])[H:8])[H:5]"
O       -1.27847606       0.83679082      -0.14596276
C       -0.18654410      -0.81315622      -0.08788585
C        0.89265032       0.08528859      -0.00966176
O        0.61954169       1.32072212      -0.12834367
H       -1.20019856       1.49891444       0.54999524
H       -0.72759617      -1.02534968       0.82880632
H       -0.02743258      -1.67825960      -0.72763182
H        1.90805545      -0.22495047      -0.27931569
8
Frame=13 idx=001672 GeodesicLength=0.8384634915067071 rxn_smarts="[O:1]([C:2]([C:3](=[O:4])[H:8])([H:6])[H:7])[H:5]>>[O:1]([O:4][C:3](=[C:2]([H:6])[H:7])[H:8])[H:5]"
O       -1.25950659       0.83087539      -0.16820209
C       -0.19721499      -0.79931979      -0.07896410
C        0.89308464       0.08805589      -0.00057045
O        0.62028677       1.32598670      -0.13230015
H       -1.19629554       1.47087673       0.54995048
H       -0.72161677      -1.03477388       0.84210240
H       -0.04276536      -1.65742127      -0.72985991
H        1.90402784      -0.22427977      -0.28215618
8
Frame=14 idx=001672 GeodesicLength=0.9039054981263501 rxn_smarts="[O:1]([C:2]([C:3](=[O:4])[H:8])([H:6])[H:7])[H:5]>>[O:1]([O:4][C:3](=[C:2]([H:6])[H:7])[H:8])[H:5]"
O       -1.24075318       0.82509863      -0.18879817
C       -0.20773881      -0.78579205      -0.07000253
C        0.89331330       0.09074524       0.00804762
O        0.62080379       1.33110173      -0.13627210
H       -1.19233053       1.44407739       0.54898127
H       -0.71546802      -1.04481935       0.85447590
H       -0.05774217      -1.63681649      -0.73182663
H        1.89991562      -0.22359510      -0.28460536
8
Frame=15 idx=001672 GeodesicLength=0.9693720902249439 rxn_smarts="[O:1]([C:2]([C:3](=[O:4])[H:8])([H:6])[H:7])[H:5]>>[O:1]([O:4][C:3](=[C:2]([H:6])[H:7])[H:8])[H:5]"
O       -1.22226373       0.81943866      -0.20785983
C       -0.21813912      -0.77256032      -0.06101551
C        0.89333447       0.09335807       0.01623542
O        0.62108970       1.33606598      -0.14034846
H       -1.18827929       1.41856327       0.54722786
H       -0.70913316      -1.05549608       0.86591453
H       -0.07234521      -1.61646111      -0.73351703
H        1.89573633      -0.22290847      -0.28663698
8
Frame=16 idx=001672 GeodesicLength=1.034850905955964 rxn_smarts="[O:1]([C:2]([C:3](=[O:4])[H:8])([H:6])[H:7])[H:5]>>[O:1]([O:4][C:3](=[C:2]([H:6])[H:7])[H:8])[H:5]"
O       -1.20405767       0.81388700      -0.22553686
C       -0.22843152      -0.75960809      -0.05199541
C        0.89315799       0.09589666       0.02404198
O        0.62115864       1.34088320      -0.14454839
H       -1.18414054       1.39431711       0.54481332
H       -0.70261512      -1.06678022       0.87641623
H       -0.08656845      -1.59636976      -0.73489889
H        1.89149668      -0.22222590      -0.28829198
