10
Frame=0 idx=001798 GeodesicLength=0.0 rxn_smarts="[O:1]([c:2]1[c:3]([H:8])[c:4]([H:9])[n:5][n:6]1[H:10])[H:7]>>[C:4](#[N+:5][N-:6][H:10])[H:9].[O:1]([C:2]#[C:3][H:8])[H:7]"
O       -2.18978060       0.16691505       0.24755528
C       -0.92783355       0.54234328       0.33476384
C        0.08267829       1.17939373       0.57582121
C        1.80340681      -0.22322536      -0.24741691
N        1.02334730      -1.04079697      -0.63195645
N       -0.18803740      -1.27935541      -0.80704824
H       -2.74150800       0.88186039       0.57988611
H        0.76451490       1.91803336       0.92196616
H        2.80499709       0.05644842      -0.52375165
H       -0.43178484      -2.20161650      -0.44981935
10
Frame=1 idx=001798 GeodesicLength=0.05056760512312446 rxn_smarts="[O:1]([c:2]1[c:3]([H:8])[c:4]([H:9])[n:5][n:6]1[H:10])[H:7]>>[C:4](#[N+:5][N-:6][H:10])[H:9].[O:1]([C:2]#[C:3][H:8])[H:7]"
O       -2.19929764       0.16464010       0.26761651
C       -0.93048264       0.52284195       0.32794139
C        0.08762823       1.14478208       0.59485611
C        1.80245714      -0.21318034      -0.25555249
N        1.03650383      -1.04307918      -0.65256014
N       -0.18080395      -1.27217223      -0.81608908
H       -2.73856098       0.90043265       0.57348253
H        0.74806862       1.92083196       0.89931830
H        2.81414200       0.05390694      -0.50652785
H       -0.43965461      -2.17900394      -0.43248528
10
Frame=2 idx=001798 GeodesicLength=0.10102892199067874 rxn_smarts="[O:1]([c:2]1[c:3]([H:8])[c:4]([H:9])[n:5][n:6]1[H:10])[H:7]>>[C:4](#[N+:5][N-:6][H:10])[H:9].[O:1]([C:2]#[C:3][H:8])[H:7]"
O       -2.20772845       0.16270522       0.28900939
C       -0.93292888       0.50418837       0.32123195
C        0.09204861       1.11408114       0.60758111
C        1.80136771      -0.20338455      -0.26245257
N        1.04931541      -1.04515486      -0.67134588
N       -0.17355487      -1.26418837      -0.82550414
H       -2.73475811       0.91629662       0.57151327
H        0.73029320       1.92247676       0.87461577
H        2.82336933       0.04896671      -0.48546116
H       -0.44742395      -2.15598704      -0.41918774
10
Frame=3 idx=001798 GeodesicLength=0.15124259668462803 rxn_smarts="[O:1]([c:2]1[c:3]([H:8])[c:4]([H:9])[n:5][n:6]1[H:10])[H:7]>>[C:4](#[N+:5][N-:6][H:10])[H:9].[O:1]([C:2]#[C:3][H:8])[H:7]"
O       -2.21468839       0.15869391       0.31694338
C       -0.93506358       0.48477041       0.31791998
C        0.09595312       1.08960100       0.61092886
C        1.79998047      -0.19399591      -0.26820077
N        1.06136440      -1.04613008      -0.69021902
N       -0.16687754      -1.25449160      -0.83626175
H       -2.73059862       0.92960195       0.57138749
H        0.71171611       1.92545198       0.84646848
H        2.83343788       0.03922416      -0.45681670
H       -0.45522385      -2.13272582      -0.41214995
10
Frame=4 idx=001798 GeodesicLength=0.20125909260864633 rxn_smarts="[O:1]([c:2]1[c:3]([H:8])[c:4]([H:9])[n:5][n:6]1[H:10])[H:7]>>[C:4](#[N+:5][N-:6][H:10])[H:9].[O:1]([C:2]#[C:3][H:8])[H:7]"
O       -2.22028028       0.15368823       0.34870524
C       -0.93690476       0.46476142       0.31713523
C        0.09959762       1.06957166       0.60837320
C        1.79854973      -0.18503466      -0.27280082
N        1.07289322      -1.04617431      -0.70892437
N       -0.16052978      -1.24311972      -0.84836936
H       -2.72602708       0.93988610       0.57467264
H        0.69242484       1.93044644       0.81306250
H        2.84351890       0.02518465      -0.42106466
H       -0.46324240      -2.10920979      -0.41078960
10
Frame=5 idx=001798 GeodesicLength=0.2512213280077526 rxn_smarts="[O:1]([c:2]1[c:3]([H:8])[c:4]([H:9])[n:5][n:6]1[H:10])[H:7]>>[C:4](#[N+:5][N-:6][H:10])[H:9].[O:1]([C:2]#[C:3][H:8])[H:7]"
O       -2.22481960       0.15004942       0.37960270
C       -0.93857386       0.44571489       0.31535981
C        0.10348760       1.05010909       0.60556470
C        1.79706894      -0.17537767      -0.27907632
N        1.08423660      -1.04672548      -0.72586525
N       -0.15416250      -1.23263600      -0.85882178
H       -2.72121353       0.94997156       0.57558339
H        0.67348086       1.93263055       0.78415691
H        2.85112847       0.01265877      -0.38831792
H       -0.47063298      -2.08639514      -0.40818623
10
Frame=6 idx=001798 GeodesicLength=0.30120379772864786 rxn_smarts="[O:1]([c:2]1[c:3]([H:8])[c:4]([H:9])[n:5][n:6]1[H:10])[H:7]>>[C:4](#[N+:5][N-:6][H:10])[H:9].[O:1]([C:2]#[C:3][H:8])[H:7]"
O       -2.22868783       0.14829399       0.40811235
C       -0.94034057       0.42777887       0.31171953
C        0.10741736       1.03093699       0.60227535
C        1.79531544      -0.16411379      -0.28871787
N        1.09540628      -1.04778329      -0.74153551
N       -0.14776219      -1.22368086      -0.86739828
H       -2.71620719       0.95997405       0.57525874
H        0.65512546       1.93182653       0.76118999
H        2.85664583       0.00127096      -0.35796236
H       -0.47691259      -2.06450346      -0.40294193
10
Frame=7 idx=001798 GeodesicLength=0.35118735982980487 rxn_smarts="[O:1]([c:2]1[c:3]([H:8])[c:4]([H:9])[n:5][n:6]1[H:10])[H:7]>>[C:4](#[N+:5][N-:6][H:10])[H:9].[O:1]([C:2]#[C:3][H:8])[H:7]"
O       -2.23167970       0.14786399       0.43568922
C       -0.94206986       0.41056954       0.30714157
C        0.11149027       1.01217180       0.59847116
C        1.79345330      -0.15236625      -0.29985688
N        1.10637158      -1.04931682      -0.75604631
N       -0.14139003      -1.21569520      -0.87477181
H       -2.71100553       0.96970397       0.57359546
H        0.63746251       1.92914622       0.74188198
H        2.85993041      -0.00871121      -0.32936940
H       -0.48256294      -2.04336603      -0.39673499
10
Frame=8 idx=001798 GeodesicLength=0.40115244329112987 rxn_smarts="[O:1]([c:2]1[c:3]([H:8])[c:4]([H:9])[n:5][n:6]1[H:10])[H:7]>>[C:4](#[N+:5][N-:6][H:10])[H:9].[O:1]([C:2]#[C:3][H:8])[H:7]"
O       -2.23367468       0.14832615       0.46299260
C       -0.94370552       0.39380471       0.30221904
C        0.11562890       0.99427931       0.59367874
C        1.79176080      -0.14150641      -0.30985284
N        1.11724546      -1.05135179      -0.76916585
N       -0.13494249      -1.20793513      -0.88179612
H       -2.70556823       0.97859109       0.57221015
H        0.62028296       1.92584743       0.72322921
H        2.86123925      -0.01735522      -0.30181612
H       -0.48826645      -2.02270014      -0.39169881
10
Frame=9 idx=001798 GeodesicLength=0.45107375749411605 rxn_smarts="[O:1]([c:2]1[c:3]([H:8])[c:4]([H:9])[n:5][n:6]1[H:10])[H:7]>>[C:4](#[N+:5][N-:6][H:10])[H:9].[O:1]([C:2]#[C:3][H:8])[H:7]"
O       -2.23446738       0.14914788       0.49136408
C       -0.94512906       0.37708872       0.29806204
C        0.11981050       0.97766060       0.58787177
C        1.79042848      -0.13244214      -0.31674032
N        1.12801680      -1.05369576      -0.78086713
N       -0.12845841      -1.19958189      -0.88907920
H       -2.70000335       0.98618271       0.57114107
H        0.60327661       1.92294513       0.70276422
H        2.86113771      -0.02508936      -0.27494371
H       -0.49461189      -2.00221589      -0.38957282
10
Frame=10 idx=001798 GeodesicLength=0.5009614578566304 rxn_smarts="[O:1]([c:2]1[c:3]([H:8])[c:4]([H:9])[n:5][n:6]1[H:10])[H:7]>>[C:4](#[N+:5][N-:6][H:10])[H:9].[O:1]([C:2]#[C:3][H:8])[H:7]"
O       -2.23404235       0.15023325       0.52088681
C       -0.94637781       0.36039780       0.29473811
C        0.12394281       0.96242833       0.58102214
C        1.78943581      -0.12503410      -0.32055314
N        1.13867594      -1.05615761      -0.79138369
N       -0.12195180      -1.19045470      -0.89674588
H       -2.69441835       0.99228375       0.57079423
H        0.58623866       1.92067259       0.67991678
H        2.86011741      -0.03255919      -0.24821986
H       -0.50162032      -1.98181012      -0.39045550
10
Frame=11 idx=001798 GeodesicLength=0.5508350310765414 rxn_smarts="[O:1]([c:2]1[c:3]([H:8])[c:4]([H:9])[n:5][n:6]1[H:10])[H:7]>>[C:4](#[N+:5][N-:6][H:10])[H:9].[O:1]([C:2]#[C:3][H:8])[H:7]"
O       -2.23242160       0.15156080       0.55121004
C       -0.94752450       0.34381079       0.29192103
C        0.12792112       0.94862582       0.57293380
C        1.78869833      -0.11878690      -0.32209948
N        1.14923003      -1.05854053      -0.80110998
N       -0.11540721      -1.18061673      -0.90482247
H       -2.68882366       0.99685577       0.57199517
H        0.56902301       1.91905031       0.65455638
H        2.85836145      -0.04050069      -0.22061945
H       -0.50905697      -1.96145863      -0.39396504
10
Frame=12 idx=001798 GeodesicLength=0.600672834958528 rxn_smarts="[O:1]([c:2]1[c:3]([H:8])[c:4]([H:9])[n:5][n:6]1[H:10])[H:7]>>[C:4](#[N+:5][N-:6][H:10])[H:9].[O:1]([C:2]#[C:3][H:8])[H:7]"
O       -2.22905076       0.15242562       0.58424757
C       -0.94827323       0.32702252       0.29082224
C        0.13182097       0.93694905       0.56331870
C        1.78838188      -0.11425860      -0.32004017
N        1.15959325      -1.06038136      -0.81035424
N       -0.10891981      -1.16894625      -0.91406739
H       -2.68335965       0.99892238       0.57508894
H        0.55112840       1.91917775       0.62324790
H        2.85614853      -0.05028670      -0.19023091
H       -0.51746958      -1.94062441      -0.40203264
10
Frame=13 idx=001798 GeodesicLength=0.650531829104326 rxn_smarts="[O:1]([c:2]1[c:3]([H:8])[c:4]([H:9])[n:5][n:6]1[H:10])[H:7]>>[C:4](#[N+:5][N-:6][H:10])[H:9].[O:1]([C:2]#[C:3][H:8])[H:7]"
O       -2.22371484       0.15265740       0.61991056
C       -0.94862787       0.31022578       0.29099199
C        0.13551267       0.92763550       0.55176707
C        1.78846754      -0.11129341      -0.31448939
N        1.16983034      -1.06145545      -0.81938288
N       -0.10238969      -1.15526610      -0.92468225
H       -2.67802743       0.99819528       0.58135195
H        0.53235631       1.92102394       0.58505315
H        2.85335569      -0.06268658      -0.15581425
H       -0.52676272      -1.91903635      -0.41470594
10
Frame=14 idx=001798 GeodesicLength=0.7004744332072277 rxn_smarts="[O:1]([c:2]1[c:3]([H:8])[c:4]([H:9])[n:5][n:6]1[H:10])[H:7]>>[C:4](#[N+:5][N-:6][H:10])[H:9].[O:1]([C:2]#[C:3][H:8])[H:7]"
O       -2.21643248       0.15259626       0.65738151
C       -0.94859332       0.29360686       0.29197171
C        0.13902479       0.92019443       0.53877418
C        1.78874892      -0.10917347      -0.30682693
N        1.17993649      -1.06176126      -0.82832823
N       -0.09580096      -1.14003760      -0.93617351
H       -2.67281152       0.99509661       0.59013618
H        0.51289906       1.92361455       0.54157840
H        2.84954278      -0.07737777      -0.11790232
H       -0.53651377      -1.89675861      -0.43061097
10
Frame=15 idx=001798 GeodesicLength=0.750505770517273 rxn_smarts="[O:1]([c:2]1[c:3]([H:8])[c:4]([H:9])[n:5][n:6]1[H:10])[H:7]>>[C:4](#[N+:5][N-:6][H:10])[H:9].[O:1]([C:2]#[C:3][H:8])[H:7]"
O       -2.20772641       0.15281838       0.69452680
C       -0.94849264       0.27755734       0.29245445
C        0.14223627       0.91374533       0.52503829
C        1.78901146      -0.10743148      -0.29801171
N        1.19004528      -1.06178765      -0.83670157
N       -0.08898675      -1.12429532      -0.94776105
H       -2.66761314       0.99078418       0.60114295
H        0.49319889       1.92560202       0.49607282
H        2.84458517      -0.09279354      -0.07893156
H       -0.54625814      -1.87419926      -0.44782942
10
Frame=16 idx=001798 GeodesicLength=0.8006113527234583 rxn_smarts="[O:1]([c:2]1[c:3]([H:8])[c:4]([H:9])[n:5][n:6]1[H:10])[H:7]>>[C:4](#[N+:5][N-:6][H:10])[H:9].[O:1]([C:2]#[C:3][H:8])[H:7]"
O       -2.19790742       0.15357230       0.73057857
C       -0.94838222       0.26203389       0.29242307
C        0.14521108       0.90780414       0.51115334
C        1.78912466      -0.10581895      -0.28860645
N        1.20011987      -1.06163828      -0.84450843
N       -0.08199741      -1.10847081      -0.95901773
H       -2.66236545       0.98589276       0.61345621
H        0.47344394       1.92644506       0.45011120
H        2.83848959      -0.10820073      -0.04015434
H       -0.55573664      -1.85161938      -0.46543544
