13
Frame=0 idx=001192 GeodesicLength=0.0 rxn_smarts="[C:1]([C:2](=[O:3])[N:4]1[C:5]([H:10])([H:11])[C:6]1([H:12])[H:13])([H:7])([H:8])[H:9]>>[C:1]([C:2]([O:3][H:13])=[N+:4]1[C:5]([H:10])([H:11])[C-:6]1[H:12])([H:7])([H:8])[H:9]"
C        1.88413006      -0.04535783      -0.33074715
C        0.59523157       0.49121707       0.16233316
O        0.49189678       1.76920743       0.40864835
N       -0.46581041      -0.20370623       0.38871158
C       -1.47515262      -0.96788916      -0.28998996
C       -1.80779917       0.35131673       0.40468794
H        2.18224582       0.49609014      -1.22947551
H        2.66094499       0.10652672       0.42031122
H        1.79133591      -1.10789209      -0.54454523
H       -1.68969634      -1.92647798       0.17377161
H       -1.40416195      -0.99622016      -1.37460953
H       -2.25202341       0.13990197       1.38275292
H       -0.51114123       1.89328333       0.42815065
13
Frame=1 idx=001192 GeodesicLength=0.0851288319099576 rxn_smarts="[C:1]([C:2](=[O:3])[N:4]1[C:5]([H:10])([H:11])[C:6]1([H:12])[H:13])([H:7])([H:8])[H:9]>>[C:1]([C:2]([O:3][H:13])=[N+:4]1[C:5]([H:10])([H:11])[C-:6]1[H:12])([H:7])([H:8])[H:9]"
C        1.88415266      -0.04859526      -0.33135492
C        0.60222155       0.49126929       0.17733673
O        0.48679399       1.77291759       0.39021009
N       -0.46141684      -0.20637320       0.40090843
C       -1.46820172      -0.96381844      -0.28866286
C       -1.80151666       0.35261933       0.40820315
H        2.18152389       0.49746503      -1.22742019
H        2.66461472       0.09372562       0.41787799
H        1.78449065      -1.10895835      -0.55313074
H       -1.68751460      -1.92397930       0.16965728
H       -1.39139979      -0.98666496      -1.37294114
H       -2.25575975       0.14628798       1.38227280
H       -0.53798809       1.88410467       0.42704338
13
Frame=2 idx=001192 GeodesicLength=0.17043336653333077 rxn_smarts="[C:1]([C:2](=[O:3])[N:4]1[C:5]([H:10])([H:11])[C:6]1([H:12])[H:13])([H:7])([H:8])[H:9]>>[C:1]([C:2]([O:3][H:13])=[N+:4]1[C:5]([H:10])([H:11])[C-:6]1[H:12])([H:7])([H:8])[H:9]"
C        1.88396459      -0.05172359      -0.33199348
C        0.60897506       0.49199194       0.19130116
O        0.48205209       1.77619847       0.37272269
N       -0.45708331      -0.20854259       0.41261976
C       -1.46114950      -0.95992624      -0.28709466
C       -1.79547727       0.35373994       0.41179684
H        2.18193661       0.49947498      -1.22463532
H        2.66750958       0.07968731       0.41615840
H        1.77684092      -1.10954695      -0.56270538
H       -1.68447612      -1.92164380       0.16609214
H       -1.37910768      -0.97748868      -1.37101706
H       -2.25912156       0.15258346       1.38204666
H       -0.56486342       1.87519573       0.42470826
13
Frame=3 idx=001192 GeodesicLength=0.2557576898343803 rxn_smarts="[C:1]([C:2](=[O:3])[N:4]1[C:5]([H:10])([H:11])[C:6]1([H:12])[H:13])([H:7])([H:8])[H:9]>>[C:1]([C:2]([O:3][H:13])=[N+:4]1[C:5]([H:10])([H:11])[C-:6]1[H:12])([H:7])([H:8])[H:9]"
C        1.88359308      -0.05474098      -0.33268509
C        0.61550266       0.49332454       0.20425548
O        0.47776302       1.77912325       0.35633215
N       -0.45280525      -0.21023397       0.42388801
C       -1.45400415      -0.95622064      -0.28527734
C       -1.78967919       0.35468097       0.41544895
H        2.18346380       0.50210095      -1.22112365
H        2.66962982       0.06443331       0.41507014
H        1.76844414      -1.10961390      -0.57328253
H       -1.68064461      -1.91946751       0.16309263
H       -1.36727369      -0.96871261      -1.36883533
H       -2.26215229       0.15881404       1.38205071
H       -0.59183734       1.86651255       0.42106588
13
Frame=4 idx=001192 GeodesicLength=0.34100466104618926 rxn_smarts="[C:1]([C:2](=[O:3])[N:4]1[C:5]([H:10])([H:11])[C:6]1([H:12])[H:13])([H:7])([H:8])[H:9]>>[C:1]([C:2]([O:3][H:13])=[N+:4]1[C:5]([H:10])([H:11])[C-:6]1[H:12])([H:7])([H:8])[H:9]"
C        1.88306042      -0.05764664      -0.33344496
C        0.62180729       0.49523309       0.21621652
O        0.47400244       1.78174910       0.34108633
N       -0.44857791      -0.21145870       0.43474128
C       -1.44677174      -0.95270441      -0.28321657
C       -1.78412297       0.35544712       0.41914020
H        2.18608406       0.50528512      -1.21691340
H        2.67098171       0.04801373       0.41453500
H        1.75934997      -1.10913593      -0.58481548
H       -1.67606597      -1.91745174       0.16065634
H       -1.35588904      -0.96034655      -1.36640892
H       -2.26488620       0.16499335       1.38226457
H       -0.61897206       1.85802246       0.41615909
13
Frame=5 idx=001192 GeodesicLength=0.4261169018702827 rxn_smarts="[C:1]([C:2](=[O:3])[N:4]1[C:5]([H:10])([H:11])[C:6]1([H:12])[H:13])([H:7])([H:8])[H:9]>>[C:1]([C:2]([O:3][H:13])=[N+:4]1[C:5]([H:10])([H:11])[C-:6]1[H:12])([H:7])([H:8])[H:9]"
C        1.88238459      -0.06044847      -0.33428748
C        0.62790967       0.49765680       0.22724619
O        0.47084492       1.78416648       0.32705618
N       -0.44440193      -0.21223050       0.44522246
C       -1.43945245      -0.94937728      -0.28091734
C       -1.77880632       0.35604528       0.42284740
H        2.18972943       0.50894832      -1.21202242
H        2.67156748       0.03048765       0.41442941
H        1.74962932      -1.10807528      -0.59725956
H       -1.67079240      -1.91559074       0.15877646
H       -1.34491901      -0.95239486      -1.36374782
H       -2.26737212       0.17114160       1.38265223
H       -0.64632119       1.84967100       0.41000428
13
Frame=6 idx=001192 GeodesicLength=0.5110847271130949 rxn_smarts="[C:1]([C:2](=[O:3])[N:4]1[C:5]([H:10])([H:11])[C:6]1([H:12])[H:13])([H:7])([H:8])[H:9]>>[C:1]([C:2]([O:3][H:13])=[N+:4]1[C:5]([H:10])([H:11])[C-:6]1[H:12])([H:7])([H:8])[H:9]"
C        1.88158233      -0.06315312      -0.33521936
C        0.63381889       0.50056269       0.23738032
O        0.46834168       1.78643561       0.31421997
N       -0.44027635      -0.21255842       0.45535793
C       -1.43204767      -0.94623466      -0.27839284
C       -1.77372944       0.35647867       0.42655691
H        2.19435978       0.51302068      -1.20650041
H        2.67140962       0.01192474       0.41468693
H        1.73932170      -1.10643459      -0.61054269
H       -1.66485804      -1.91388302       0.15743277
H       -1.33434558      -0.94484935      -1.36087045
H       -2.26964170       0.17726328       1.38319410
H       -0.67393521       1.84142749       0.40269683
13
Frame=7 idx=001192 GeodesicLength=0.5959538846944256 rxn_smarts="[C:1]([C:2](=[O:3])[N:4]1[C:5]([H:10])([H:11])[C:6]1([H:12])[H:13])([H:7])([H:8])[H:9]>>[C:1]([C:2]([O:3][H:13])=[N+:4]1[C:5]([H:10])([H:11])[C-:6]1[H:12])([H:7])([H:8])[H:9]"
C        1.88066700      -0.06577137      -0.33624552
C        0.63955237       0.50391307       0.24667174
O        0.46654429       1.78863095       0.30254682
N       -0.43620180      -0.21244408       0.46517310
C       -1.42455352      -0.94326757      -0.27565830
C       -1.76889136       0.35675225       0.43025764
H        2.19991300       0.51739795      -1.20038326
H        2.67050710      -0.00760277       0.41521603
H        1.72848310      -1.10419951      -0.62458434
H       -1.65828727      -1.91232201       0.15659872
H       -1.32414108      -0.93769191      -1.35779694
H       -2.27172802       0.18335771       1.38386917
H       -0.70186381       1.83324729       0.39433514
13
Frame=8 idx=001192 GeodesicLength=0.6807655962752479 rxn_smarts="[C:1]([C:2](=[O:3])[N:4]1[C:5]([H:10])([H:11])[C:6]1([H:12])[H:13])([H:7])([H:8])[H:9]>>[C:1]([C:2]([O:3][H:13])=[N+:4]1[C:5]([H:10])([H:11])[C-:6]1[H:12])([H:7])([H:8])[H:9]"
C        1.87964804      -0.06831442      -0.33737217
C        0.64512579       0.50766423       0.25518445
O        0.46549733       1.79082100       0.29200642
N       -0.43218110      -0.21189773       0.47469881
C       -1.41696728      -0.94046472      -0.27273088
C       -1.76429157       0.35686947       0.43393965
H        2.20631765       0.52199879      -1.19372731
H        2.66889387      -0.02800969       0.41593466
H        1.71715813      -1.10138610      -0.63929146
H       -1.65111123      -1.91090081       0.15623931
H       -1.31427325      -0.93090105      -1.35454544
H       -2.27366640       0.18942388       1.38465385
H       -0.73014999       1.82509716       0.38501010
13
Frame=9 idx=001192 GeodesicLength=0.7655688443930164 rxn_smarts="[C:1]([C:2](=[O:3])[N:4]1[C:5]([H:10])([H:11])[C:6]1([H:12])[H:13])([H:7])([H:8])[H:9]>>[C:1]([C:2]([O:3][H:13])=[N+:4]1[C:5]([H:10])([H:11])[C-:6]1[H:12])([H:7])([H:8])[H:9]"
C        1.87853533      -0.07079308      -0.33860213
C        0.65056912       0.51177432       0.26297999
O        0.46525227       1.79308307       0.28263923
N       -0.42821552      -0.21091786       0.48395758
C       -1.40928248      -0.93781984      -0.26961905
C       -1.75992556       0.35683295       0.43759013
H        2.21349410       0.52672624      -1.18653206
H        2.66654394      -0.04924768       0.41673108
H        1.70541319      -1.09796431      -0.65461911
H       -1.64334887      -1.90961575       0.15634492
H       -1.30471312      -0.92446946      -1.35113267
H       -2.27548422       0.19546562       1.38552970
H       -0.75883818       1.81694578       0.37473238
13
Frame=10 idx=001192 GeodesicLength=0.8504099237363166 rxn_smarts="[C:1]([C:2](=[O:3])[N:4]1[C:5]([H:10])([H:11])[C:6]1([H:12])[H:13])([H:7])([H:8])[H:9]>>[C:1]([C:2]([O:3][H:13])=[N+:4]1[C:5]([H:10])([H:11])[C-:6]1[H:12])([H:7])([H:8])[H:9]"
C        1.87733625      -0.07322434      -0.33993322
C        0.65589064       0.51621958       0.27010701
O        0.46581977       1.79545580       0.27428535
N       -0.42430747      -0.20951000       0.49296534
C       -1.40149981      -0.93530819      -0.26635088
C       -1.75579430       0.35664848       0.44121966
H        2.22139956       0.53149295      -1.17888584
H        2.66350746      -0.07121381       0.41758239
H        1.69327758      -1.09397977      -0.67043542
H       -1.63501337      -1.90845297       0.15685222
H       -1.29544158      -0.91834077      -1.34758364
H       -2.27720029       0.20146104       1.38649469
H       -0.78797442       1.80875201       0.36368234
13
Frame=11 idx=001192 GeodesicLength=0.9352962017663158 rxn_smarts="[C:1]([C:2](=[O:3])[N:4]1[C:5]([H:10])([H:11])[C:6]1([H:12])[H:13])([H:7])([H:8])[H:9]>>[C:1]([C:2]([O:3][H:13])=[N+:4]1[C:5]([H:10])([H:11])[C-:6]1[H:12])([H:7])([H:8])[H:9]"
C        1.87605983      -0.07562127      -0.34136205
C        0.66111739       0.52096799       0.27662535
O        0.46722295       1.79799217       0.26690647
N       -0.42046011      -0.20767459       0.50174163
C       -1.39361563      -0.93291366      -0.26294115
C       -1.75189501       0.35631885       0.44483052
H        2.22997152       0.53621229      -1.17081370
H        2.65979015      -0.09384380       0.41841745
H        1.68079643      -1.08943331      -0.68667374
H       -1.62611770      -1.90740467       0.15773102
H       -1.28643456      -0.91248376      -1.34391693
H       -2.27883532       0.20740228       1.38754251
H       -0.81759994       1.80048149       0.35191262
13
Frame=12 idx=001192 GeodesicLength=1.0202372163713898 rxn_smarts="[C:1]([C:2](=[O:3])[N:4]1[C:5]([H:10])([H:11])[C:6]1([H:12])[H:13])([H:7])([H:8])[H:9]>>[C:1]([C:2]([O:3][H:13])=[N+:4]1[C:5]([H:10])([H:11])[C-:6]1[H:12])([H:7])([H:8])[H:9]"
C        1.87470967      -0.07799630      -0.34288590
C        0.66626652       0.52598943       0.28258846
O        0.46949159       1.80073747       0.26046630
N       -0.41667620      -0.20541124       0.51030007
C       -1.38562777      -0.93062002      -0.25940392
C       -1.74822621       0.35584688       0.44842534
H        2.23915573       0.54081861      -1.16235497
H        2.65541096      -0.11707704       0.41918743
H        1.66800522      -1.08433898      -0.70326595
H       -1.61667157      -1.90646026       0.15895072
H       -1.27767369      -0.90686879      -1.34014687
H       -2.28040642       0.21327726       1.38867002
H       -0.84775783       1.79210296       0.33946927
13
Frame=13 idx=001192 GeodesicLength=1.105226570959112 rxn_smarts="[C:1]([C:2](=[O:3])[N:4]1[C:5]([H:10])([H:11])[C:6]1([H:12])[H:13])([H:7])([H:8])[H:9]>>[C:1]([C:2]([O:3][H:13])=[N+:4]1[C:5]([H:10])([H:11])[C-:6]1[H:12])([H:7])([H:8])[H:9]"
C        1.87329083      -0.08035810      -0.34450381
C        0.67136412       0.53125914       0.28805436
O        0.47264970       1.80373510       0.25493802
N       -0.41295985      -0.20271557       0.51865626
C       -1.37753092      -0.92841222      -0.25575038
C       -1.74478584       0.35523880       0.45200590
H        2.24889763       0.54523298      -1.15352282
H        2.65036693      -0.14086986       0.41982245
H        1.65494450      -1.07868814      -0.72015765
H       -1.60667736      -1.90561205       0.16048834
H       -1.26913537      -0.90147047      -1.33628758
H       -2.28193114       0.21908173       1.38987247
H       -0.87849324       1.78357865       0.32638444
13
Frame=14 idx=001192 GeodesicLength=1.1902803615052873 rxn_smarts="[C:1]([C:2](=[O:3])[N:4]1[C:5]([H:10])([H:11])[C:6]1([H:12])[H:13])([H:7])([H:8])[H:9]>>[C:1]([C:2]([O:3][H:13])=[N+:4]1[C:5]([H:10])([H:11])[C-:6]1[H:12])([H:7])([H:8])[H:9]"
C        1.87180599      -0.08271890      -0.34621432
C        0.67642240       0.53675689       0.29305125
O        0.47673338       1.80701723       0.25029200
N       -0.40931261      -0.19957864       0.52681111
C       -1.36932327      -0.92627361      -0.25199038
C       -1.74157411       0.35449626       0.45557974
H        2.25917168       0.54941680      -1.14435342
H        2.64466524      -0.16517793       0.42031014
H        1.64163252      -1.07250534      -0.73730390
H       -1.59612897      -1.90484618       0.16232264
H       -1.26081403      -0.89626182      -1.33234768
H       -2.28341551       0.22480384       1.39115531
H       -0.90986270       1.77487138       0.31268751
13
Frame=15 idx=001192 GeodesicLength=1.2753754575391694 rxn_smarts="[C:1]([C:2](=[O:3])[N:4]1[C:5]([H:10])([H:11])[C:6]1([H:12])[H:13])([H:7])([H:8])[H:9]>>[C:1]([C:2]([O:3][H:13])=[N+:4]1[C:5]([H:10])([H:11])[C-:6]1[H:12])([H:7])([H:8])[H:9]"
C        1.87025745      -0.08508819      -0.34801837
C        0.68146577       0.54246079       0.29762757
O        0.48177328       1.81062227       0.24651885
N       -0.40573811      -0.19599127       0.53477388
C       -1.36100031      -0.92419097      -0.24812978
C       -1.73858926       0.35362498       0.45914921
H        2.26994098       0.55331521      -1.13485386
H        2.63829850      -0.18997638       0.42060315
H        1.62809850      -1.06577943      -0.75467698
H       -1.58502226      -1.90415402       0.16444259
H       -1.25269380      -0.89122508      -1.32833548
H       -2.28487107       0.23044074       1.39251890
H       -0.94191967       1.76594135       0.29838033
13
Frame=16 idx=001192 GeodesicLength=1.3604820484839364 rxn_smarts="[C:1]([C:2](=[O:3])[N:4]1[C:5]([H:10])([H:11])[C:6]1([H:12])[H:13])([H:7])([H:8])[H:9]>>[C:1]([C:2]([O:3][H:13])=[N+:4]1[C:5]([H:10])([H:11])[C-:6]1[H:12])([H:7])([H:8])[H:9]"
C        1.86864527      -0.08747593      -0.34991561
C        0.68651288       0.54835157       0.30182186
O        0.48780605       1.81458180       0.24361363
N       -0.40224069      -0.19194085       0.54254791
C       -1.35255819      -0.92214908      -0.24417546
C       -1.73583200       0.35262971       0.46271675
H        2.28117188       0.55688265      -1.12504623
H        2.63126738      -0.21523370       0.42066519
H        1.61436550      -1.05851529      -0.77223998
H       -1.57334827      -1.90352326       0.16683560
H       -1.24476180      -0.88634156      -1.32425781
H       -2.28630855       0.23598937       1.39396183
H       -0.97471946       1.75674456       0.28347232
