19
Frame=0 idx=010181 GeodesicLength=0.0 rxn_smarts="[C:1]([C:2]([C@@:3]1([C:4]([H:13])([H:14])[H:15])[C:5]([H:16])([H:17])[C@:6]1([O:7][H:19])[H:18])([H:11])[H:12])([H:8])([H:9])[H:10]>>[C:1](=[C:2]([H:11])[H:12])([H:9])[H:10].[C:3]1([C:4]([H:13])([H:14])[H:15])=[C:5]([H:17])[C@:6]1([O:7][H:19])[H:18].[H:8][H:16]"
C        2.09184741       0.50000591       0.64948087
C        1.53512156      -0.29974821      -0.29721403
C       -0.78331360      -0.45113315      -0.12425200
C       -0.92467675      -1.80453355      -0.72439310
C       -1.20506012       0.24024542       0.94561272
C       -1.34543558       0.90074517      -0.35967722
O       -0.53303569       2.01932394      -0.64284700
H        0.85651047       0.96368710       1.63091789
H        2.29794997       1.54271350       0.44012358
H        2.59659835       0.06894296       1.50653374
H        1.58265394      -1.37566939      -0.19329877
H        1.32227985       0.08350670      -1.28532506
H       -0.30069676      -1.92917538      -1.61069007
H       -0.66493233      -2.58458265      -0.00688181
H       -1.96407588      -1.96161740      -1.02775538
H        0.02349441       0.90400381       1.66813840
H       -1.79875209       0.09656432       1.83512341
H       -2.33896304       0.99890614      -0.80810276
H       -0.44751407       2.08781471      -1.59549338
19
Frame=1 idx=010181 GeodesicLength=0.1090092056816559 rxn_smarts="[C:1]([C:2]([C@@:3]1([C:4]([H:13])([H:14])[H:15])[C:5]([H:16])([H:17])[C@:6]1([O:7][H:19])[H:18])([H:11])[H:12])([H:8])([H:9])[H:10]>>[C:1](=[C:2]([H:11])[H:12])([H:9])[H:10].[C:3]1([C:4]([H:13])([H:14])[H:15])=[C:5]([H:17])[C@:6]1([O:7][H:19])[H:18].[H:8][H:16]"
C        2.09484741       0.51363200       0.64124008
C        1.53996368      -0.31656271      -0.28512117
C       -0.77736996      -0.45112701      -0.12104050
C       -0.93421133      -1.79842701      -0.73143165
C       -1.21490310       0.23620979       0.94982678
C       -1.34788281       0.89770513      -0.35668534
O       -0.54459559       2.02555266      -0.62515797
H        0.86776149       0.97084807       1.63389729
H        2.29127161       1.55028106       0.39478512
H        2.63440154       0.10704141       1.48921761
H        1.60748920      -1.38808602      -0.14730117
H        1.36038724       0.03141473      -1.29305096
H       -0.30375728      -1.92017952      -1.61357283
H       -0.69306633      -2.58827008      -0.01810157
H       -1.97141963      -1.94354724      -1.04740079
H        0.01408694       0.89076268       1.69492058
H       -1.83081792       0.08424011       1.82274037
H       -2.33859802       0.99335231      -0.81142712
H       -0.45358713       2.10515964      -1.57633672
19
Frame=2 idx=010181 GeodesicLength=0.21802297127785464 rxn_smarts="[C:1]([C:2]([C@@:3]1([C:4]([H:13])([H:14])[H:15])[C:5]([H:16])([H:17])[C@:6]1([O:7][H:19])[H:18])([H:11])[H:12])([H:8])([H:9])[H:10]>>[C:1](=[C:2]([H:11])[H:12])([H:9])[H:10].[C:3]1([C:4]([H:13])([H:14])[H:15])=[C:5]([H:17])[C@:6]1([O:7][H:19])[H:18].[H:8][H:16]"
C        2.09760235       0.52706143       0.63220132
C        1.54517265      -0.33449136      -0.27198538
C       -0.77134962      -0.45072872      -0.11815196
C       -0.94348616      -1.79160713      -0.73907413
C       -1.22462728       0.23197893       0.95395474
C       -1.35060060       0.89496971      -0.35346667
O       -0.55738494       2.03253722      -0.60673113
H        0.87934970       0.97890270       1.63618110
H        2.28340879       1.55603923       0.34742212
H        2.67156200       0.14666541       1.46992530
H        1.63223976      -1.39987751      -0.09819923
H        1.40030107      -0.02466872      -1.29816772
H       -0.30649917      -1.91044766      -1.61694441
H       -0.72090719      -2.59105712      -0.03036922
H       -1.97823098      -1.92482533      -1.06754462
H        0.00477042       0.87682340       1.72167538
H       -1.86212056       0.07124065       1.80970485
H       -2.33861266       0.98808449      -0.81419412
H       -0.46058759       2.12340037      -1.55623622
19
Frame=3 idx=010181 GeodesicLength=0.3270555267994473 rxn_smarts="[C:1]([C:2]([C@@:3]1([C:4]([H:13])([H:14])[H:15])[C:5]([H:16])([H:17])[C@:6]1([O:7][H:19])[H:18])([H:11])[H:12])([H:8])([H:9])[H:10]>>[C:1](=[C:2]([H:11])[H:12])([H:9])[H:10].[C:3]1([C:4]([H:13])([H:14])[H:15])=[C:5]([H:17])[C@:6]1([O:7][H:19])[H:18].[H:8][H:16]"
C        2.10011476       0.54021741       0.62222587
C        1.55076891      -0.35365576      -0.25767164
C       -0.76522118      -0.44987145      -0.11564816
C       -0.95241813      -1.78400076      -0.74739927
C       -1.23420015       0.22754239       0.95797853
C       -1.35361435       0.89258649      -0.35001033
O       -0.57149488       2.04032555      -0.58750588
H        0.89135996       0.98790364       1.63767225
H        2.27419450       1.55972218       0.29785356
H        2.70801934       0.18778802       1.44842681
H        1.65680514      -1.41092958      -0.04569858
H        1.44207697      -0.08505840      -1.30021585
H       -0.30883566      -1.89985459      -1.62088434
H       -0.74832088      -2.59287709      -0.04378436
H       -1.98443084      -1.90541191      -1.08825246
H       -0.00445237       0.86221632       1.74837205
H       -1.89256664       0.05752133       1.79603893
H       -2.33904923       0.98312469      -0.81637737
H       -0.46873529       2.14271150      -1.53511977
19
Frame=4 idx=010181 GeodesicLength=0.4361265728057082 rxn_smarts="[C:1]([C:2]([C@@:3]1([C:4]([H:13])([H:14])[H:15])[C:5]([H:16])([H:17])[C@:6]1([O:7][H:19])[H:18])([H:11])[H:12])([H:8])([H:9])[H:10]>>[C:1](=[C:2]([H:11])[H:12])([H:9])[H:10].[C:3]1([C:4]([H:13])([H:14])[H:15])=[C:5]([H:17])[C@:6]1([O:7][H:19])[H:18].[H:8][H:16]"
C        2.10238344       0.55301159       0.61114432
C        1.55676406      -0.37418667      -0.24202120
C       -0.75895103      -0.44848516      -0.11359002
C       -0.96090894      -1.77552747      -0.75650156
C       -1.24358584       0.22288379       0.96188619
C       -1.35694618       0.89060698      -0.34629570
O       -0.58700783       2.04896099      -0.56740720
H        0.90389243       0.99793677       1.63824382
H        2.26343678       1.56101728       0.24586494
H        2.74371203       0.23037843       1.42444319
H        1.68105551      -1.42109069       0.01053289
H        1.48573402      -0.15008382      -1.29865810
H       -0.31065248      -1.88825106      -1.62548155
H       -0.77515699      -2.59366475      -0.05846804
H       -1.98992389      -1.88525908      -1.10961480
H       -0.01357449       0.84695438       1.77499694
H       -1.92206913       0.04302742       1.78176780
H       -2.33994535       0.97850007      -0.81794282
H       -0.47825613       2.16327097      -1.51289908
19
Frame=5 idx=010181 GeodesicLength=0.5452437785459974 rxn_smarts="[C:1]([C:2]([C@@:3]1([C:4]([H:13])([H:14])[H:15])[C:5]([H:16])([H:17])[C@:6]1([O:7][H:19])[H:18])([H:11])[H:12])([H:8])([H:9])[H:10]>>[C:1](=[C:2]([H:11])[H:12])([H:9])[H:10].[C:3]1([C:4]([H:13])([H:14])[H:15])=[C:5]([H:17])[C@:6]1([O:7][H:19])[H:18].[H:8][H:16]"
C        2.10439750       0.56531977       0.59876304
C        1.56315370      -0.39622779      -0.22484202
C       -0.75250088      -0.44648377      -0.11203322
C       -0.96883629      -1.76608464      -0.76648982
C       -1.25273847       0.21799240       0.96566760
C       -1.36062150       0.88908803      -0.34229304
O       -0.60400481       2.05846577      -0.54636660
H        0.91706734       1.00909457       1.63774167
H        2.25086956       1.55953742       0.19122456
H        2.77856731       0.27436743       1.39764496
H        1.70485429      -1.43016700       0.07083752
H        1.53125737      -0.22005814      -1.29285083
H       -0.31180194      -1.87544297      -1.63083272
H       -0.80123201      -2.59334003      -0.07456586
H       -1.99459088      -1.86430026      -1.13174325
H       -0.02258802       0.83106869       1.80153619
H       -1.95051131       0.02769659       1.76693247
H       -2.34134489       0.97424402      -0.81884224
H       -0.48939608       2.18522991      -1.48948842
19
Frame=6 idx=010181 GeodesicLength=0.6544316951770206 rxn_smarts="[C:1]([C:2]([C@@:3]1([C:4]([H:13])([H:14])[H:15])[C:5]([H:16])([H:17])[C@:6]1([O:7][H:19])[H:18])([H:11])[H:12])([H:8])([H:9])[H:10]>>[C:1](=[C:2]([H:11])[H:12])([H:9])[H:10].[C:3]1([C:4]([H:13])([H:14])[H:15])=[C:5]([H:17])[C@:6]1([O:7][H:19])[H:18].[H:8][H:16]"
C        2.10614083       0.57701264       0.58484474
C        1.56991655      -0.41991688      -0.20590528
C       -0.74583621      -0.44378732      -0.11103037
C       -0.97605482      -1.75556600      -0.77749207
C       -1.26161492       0.21284153       0.96932384
C       -1.36465934       0.88808621      -0.33795695
O       -0.62254925       2.06886514      -0.52427800
H        0.93102021       1.02152205       1.63597026
H        2.23622650       1.55483048       0.13366404
H        2.81253043       0.31967393       1.36760406
H        1.72800650      -1.43788738       0.13561464
H        1.57853483      -0.29531609      -1.28205711
H       -0.31208459      -1.86121015      -1.63703158
H       -0.82634367      -2.59183129      -0.09225274
H       -1.99827951      -1.84245899      -1.15479163
H       -0.03147651       0.81455121       1.82799785
H       -1.97781172       0.01145243       1.75156244
H       -2.34327821       0.97038855      -0.81902124
H       -0.50238712       2.20874994      -1.46476492
19
Frame=7 idx=010181 GeodesicLength=0.7637043547435716 rxn_smarts="[C:1]([C:2]([C@@:3]1([C:4]([H:13])([H:14])[H:15])[C:5]([H:16])([H:17])[C@:6]1([O:7][H:19])[H:18])([H:11])[H:12])([H:8])([H:9])[H:10]>>[C:1](=[C:2]([H:11])[H:12])([H:9])[H:10].[C:3]1([C:4]([H:13])([H:14])[H:15])=[C:5]([H:17])[C@:6]1([O:7][H:19])[H:18].[H:8][H:16]"
C        2.10758167       0.58791267       0.56911901
C        1.57700442      -0.44538698      -0.18494116
C       -0.73891824      -0.44030448      -0.11062085
C       -0.98238530      -1.74384488      -0.78964713
C       -1.27016243       0.20740846       0.97286321
C       -1.36907915       0.88766053      -0.33322990
O       -0.64269924       2.08016327      -0.50103579
H        0.94591139       1.03537366       1.63269497
H        2.21915564       1.54634028       0.07291575
H        2.84552165       0.36614766       1.33381495
H        1.75031754      -1.44389998       0.20523903
H        1.62736341      -0.37613158      -1.26541981
H       -0.31124445      -1.84529156      -1.64416072
H       -0.85025799      -2.58905525      -0.11172473
H       -2.00079493      -1.81963433      -1.17894702
H       -0.04022025       0.79740915       1.85439454
H       -2.00386403      -0.00578754       1.73570078
H       -2.34577516       0.96696895      -0.81841463
H       -0.51745454       2.23395196      -1.43860049
19
Frame=8 idx=010181 GeodesicLength=0.8731097129274495 rxn_smarts="[C:1]([C:2]([C@@:3]1([C:4]([H:13])([H:14])[H:15])[C:5]([H:16])([H:17])[C@:6]1([O:7][H:19])[H:18])([H:11])[H:12])([H:8])([H:9])[H:10]>>[C:1](=[C:2]([H:11])[H:12])([H:9])[H:10].[C:3]1([C:4]([H:13])([H:14])[H:15])=[C:5]([H:17])[C@:6]1([O:7][H:19])[H:18].[H:8][H:16]"
C        2.10867993       0.59781010       0.55127804
C        1.58433536      -0.47273931      -0.16164720
C       -0.73171578      -0.43594615      -0.11082609
C       -0.98762250      -1.73079034      -0.80310135
C       -1.27833845       0.20166650       0.97631027
C       -1.37389580       0.88786563      -0.32804057
O       -0.66448762       2.09234987      -0.47651418
H        0.96192870       1.05083148       1.62764687
H        2.19925405       1.53341679       0.00873441
H        2.87746997       0.41356468       1.29566250
H        1.77158635      -1.44773899       0.28004229
H        1.67741890      -0.46269300      -1.24198989
H       -0.30896019      -1.82740579      -1.65227882
H       -0.87272954      -2.58493167      -0.13319078
H       -2.00190455      -1.79571590      -1.20443517
H       -0.04880353       0.77964167       1.88076494
H       -2.02859044      -0.02411876       1.71939101
H       -2.34885365       0.96401413      -0.81695958
H       -0.53477122       2.26091907      -1.41084668
19
Frame=9 idx=010181 GeodesicLength=0.9826433573174583 rxn_smarts="[C:1]([C:2]([C@@:3]1([C:4]([H:13])([H:14])[H:15])[C:5]([H:16])([H:17])[C@:6]1([O:7][H:19])[H:18])([H:11])[H:12])([H:8])([H:9])[H:10]>>[C:1](=[C:2]([H:11])[H:12])([H:9])[H:10].[C:3]1([C:4]([H:13])([H:14])[H:15])=[C:5]([H:17])[C@:6]1([O:7][H:19])[H:18].[H:8][H:16]"
C        2.10933740       0.60638497       0.53098431
C        1.59178040      -0.50207202      -0.13568521
C       -0.72416983      -0.43060883      -0.11162879
C       -0.99148102      -1.71624434      -0.81799762
C       -1.28608410       0.19560696       0.97970110
C       -1.37912709       0.88876000      -0.32229940
O       -0.68795570       2.10537899      -0.45060131
H        0.97926885       1.06808868       1.62045365
H        2.17601796       1.51522980      -0.05907480
H        2.90821175       0.46155534       1.25243952
H        1.79161161      -1.44887060       0.36023869
H        1.72820467      -0.55493310      -1.21069399
H       -0.30479414      -1.80723766      -1.66140272
H       -0.89343465      -2.57935804      -0.15686886
H       -2.00128784      -1.77055496      -1.23150907
H       -0.05721715       0.76125790       1.90716321
H       -2.05187440      -0.04358632       1.70271089
H       -2.35253389       0.96156555      -0.81458171
H       -0.55447283       2.28963767      -1.38134790
19
Frame=10 idx=010181 GeodesicLength=1.0924038577904105 rxn_smarts="[C:1]([C:2]([C@@:3]1([C:4]([H:13])([H:14])[H:15])[C:5]([H:16])([H:17])[C@:6]1([O:7][H:19])[H:18])([H:11])[H:12])([H:8])([H:9])[H:10]>>[C:1](=[C:2]([H:11])[H:12])([H:9])[H:10].[C:3]1([C:4]([H:13])([H:14])[H:15])=[C:5]([H:17])[C@:6]1([O:7][H:19])[H:18].[H:8][H:16]"
C        2.10948289       0.61334290       0.50789412
C        1.59915087      -0.53331276      -0.10673267
C       -0.71628796      -0.42422508      -0.11297006
C       -0.99369841      -1.70007946      -0.83442568
C       -1.29341394       0.18920516       0.98308445
C       -1.38475758       0.89036484      -0.31591827
O       -0.71303177       2.11916671      -0.42314969
H        0.99817520       1.08732804       1.61078129
H        2.14891566       1.49097555      -0.13049653
H        2.93768570       0.50956926       1.20328525
H        1.81029929      -1.44654102       0.44581042
H        1.77900329      -0.65262184      -1.17053372
H       -0.29827527      -1.78450474      -1.67142232
H       -0.91212507      -2.57225508      -0.18291750
H       -1.99859803      -1.74402762      -1.26042688
H       -0.06551322       0.74225406       1.93367747
H       -2.07374350      -0.06429001       1.68566018
H       -2.35675684       0.95961590      -0.81127047
H       -0.57651133       2.32003518      -1.34992938
19
Frame=11 idx=010181 GeodesicLength=1.202463164602613 rxn_smarts="[C:1]([C:2]([C@@:3]1([C:4]([H:13])([H:14])[H:15])[C:5]([H:16])([H:17])[C@:6]1([O:7][H:19])[H:18])([H:11])[H:12])([H:8])([H:9])[H:10]>>[C:1](=[C:2]([H:11])[H:12])([H:9])[H:10].[C:3]1([C:4]([H:13])([H:14])[H:15])=[C:5]([H:17])[C@:6]1([O:7][H:19])[H:18].[H:8][H:16]"
C        2.10898228       0.61829673       0.48167200
C        1.60619552      -0.56629274      -0.07448287
C       -0.70806464      -0.41674876      -0.11471970
C       -0.99396094      -1.68217943      -0.85241580
C       -1.30035146       0.18244726       0.98651979
C       -1.39074327       0.89268204      -0.30880312
O       -0.73959573       2.13357196      -0.39404010
H        1.01890599       1.10872245       1.59819656
H        2.11732335       1.45976995      -0.20530050
H        2.96572068       0.55683760       1.14728285
H        1.82766222      -1.43992025       0.53643089
H        1.82885702      -0.75506921      -1.12056162
H       -0.28883868      -1.75898121      -1.68209308
H       -0.92856915      -2.56355066      -0.21143626
H       -1.99339786      -1.71597866      -1.29145230
H       -0.07379210       0.72259823       1.96043343
H       -2.09423586      -0.08627075       1.66823424
H       -2.36140991       0.95815756      -0.80704569
H       -0.60068745       2.35190788      -1.31641873
19
Frame=12 idx=010181 GeodesicLength=1.31311067084481 rxn_smarts="[C:1]([C:2]([C@@:3]1([C:4]([H:13])([H:14])[H:15])[C:5]([H:16])([H:17])[C@:6]1([O:7][H:19])[H:18])([H:11])[H:12])([H:8])([H:9])[H:10]>>[C:1](=[C:2]([H:11])[H:12])([H:9])[H:10].[C:3]1([C:4]([H:13])([H:14])[H:15])=[C:5]([H:17])[C@:6]1([O:7][H:19])[H:18].[H:8][H:16]"
C        2.10774030       0.62084386       0.45202536
C        1.61266456      -0.60068898      -0.03868674
C       -0.69953568      -0.40818537      -0.11668328
C       -0.99197895      -1.66248990      -0.87195561
C       -1.30702179       0.17533357       0.99011777
C       -1.39704843       0.89568022      -0.30086425
O       -0.76747266       2.14840975      -0.36314840
H        1.04176127       1.13248337       1.58226070
H        2.08066063       1.42076841      -0.28297860
H        2.99221627       0.60240457       1.08349503
H        1.84391047      -1.42808034       0.63146370
H        1.87669668      -0.86120821      -1.06008704
H       -0.27586755      -1.73059425      -1.69307564
H       -0.94266087      -2.55321302      -0.24245419
H       -1.98525709      -1.68626425      -1.32489030
H       -0.08224420       0.70222214       1.98769220
H       -2.11356772      -0.10952862       1.65043190
H       -2.36638319       0.95716410      -0.80200312
H       -0.62661204       2.38494296      -1.28065948
19
Frame=13 idx=010181 GeodesicLength=1.4243497762868178 rxn_smarts="[C:1]([C:2]([C@@:3]1([C:4]([H:13])([H:14])[H:15])[C:5]([H:16])([H:17])[C@:6]1([O:7][H:19])[H:18])([H:11])[H:12])([H:8])([H:9])[H:10]>>[C:1](=[C:2]([H:11])[H:12])([H:9])[H:10].[C:3]1([C:4]([H:13])([H:14])[H:15])=[C:5]([H:17])[C@:6]1([O:7][H:19])[H:18].[H:8][H:16]"
C        2.10539886       0.62047405       0.41885591
C        1.61822000      -0.63600108       0.00068946
C       -0.69069582      -0.39863349      -0.11850678
C       -0.98737747      -1.64105602      -0.89277504
C       -1.31354285       0.16791565       0.99395604
C       -1.40352532       0.89932880      -0.29206711
O       -0.79637239       2.16342876      -0.33050227
H        1.06688697       1.15869165       1.56244062
H        2.03837533       1.37327183      -0.36246499
H        3.01662946       0.64497699       1.01120409
H        1.85952697      -1.41035736       0.72941133
H        1.92115207      -0.96892247      -0.98900513
H       -0.25877722      -1.69951545      -1.70372499
H       -0.95423412      -2.54129032      -0.27570649
H       -1.97360085      -1.65476919      -1.36077432
H       -0.09119629       0.68086402       2.01576975
H       -2.13192609      -0.13375312       1.63219730
H       -2.37135624       0.95671664      -0.79638924
H       -0.65358502       2.41863011      -1.24260812
19
Frame=14 idx=010181 GeodesicLength=1.5367523707735782 rxn_smarts="[C:1]([C:2]([C@@:3]1([C:4]([H:13])([H:14])[H:15])[C:5]([H:16])([H:17])[C@:6]1([O:7][H:19])[H:18])([H:11])[H:12])([H:8])([H:9])[H:10]>>[C:1](=[C:2]([H:11])[H:12])([H:9])[H:10].[C:3]1([C:4]([H:13])([H:14])[H:15])=[C:5]([H:17])[C@:6]1([O:7][H:19])[H:18].[H:8][H:16]"
C        2.10199724       0.61692137       0.38213817
C        1.62263580      -0.67137608       0.04354300
C       -0.68172272      -0.38823647      -0.11985000
C       -0.98007383      -1.61797937      -0.91453739
C       -1.32033233       0.16020188       0.99811135
C       -1.41004853       0.90345796      -0.28242110
O       -0.82584620       2.17826809      -0.29607037
H        1.09458804       1.18752562       1.53826032
H        1.99017078       1.31714869      -0.44228503
H        3.03894709       0.68305595       0.92984411
H        1.87532572      -1.38581857       0.82865902
H        1.96113725      -1.07624029      -0.90776410
H       -0.23725277      -1.66596885      -1.71336623
H       -0.96346851      -2.52781022      -0.31086394
H       -1.95816725      -1.62151001      -1.39899646
H       -0.10124257       0.65819031       2.04508911
H       -2.14999409      -0.15889492       1.61329319
H       -2.37600895       0.95667086      -0.79057610
H       -0.68064416       2.45239405      -1.20220754
19
Frame=15 idx=010181 GeodesicLength=1.6507044466840655 rxn_smarts="[C:1]([C:2]([C@@:3]1([C:4]([H:13])([H:14])[H:15])[C:5]([H:16])([H:17])[C@:6]1([O:7][H:19])[H:18])([H:11])[H:12])([H:8])([H:9])[H:10]>>[C:1](=[C:2]([H:11])[H:12])([H:9])[H:10].[C:3]1([C:4]([H:13])([H:14])[H:15])=[C:5]([H:17])[C@:6]1([O:7][H:19])[H:18].[H:8][H:16]"
C        2.09732381       0.60991365       0.34193825
C        1.62562969      -0.70593849       0.08975688
C       -0.67272359      -0.37720489      -0.12030890
C       -0.96995628      -1.59338010      -0.93680321
C       -1.32770121       0.15216339       1.00257755
C       -1.41639544       0.90790150      -0.27193187
O       -0.85539840       2.19254554      -0.25988141
H        1.12511562       1.21914602       1.50896959
H        1.93570595       1.25249241      -0.52073802
H        3.05876392       0.71519976       0.83900450
H        1.89215101      -1.35382513       0.92739880
H        1.99566925      -1.18091149      -0.81703251
H       -0.21112537      -1.63025434      -1.72118544
H       -0.97054385      -2.51284272      -0.34757998
H       -1.93859989      -1.58642336      -1.43931570
H       -0.11304385       0.63356924       2.07604437
H       -2.16825560      -0.18475733       1.59338689
H       -2.37987241       0.95698791      -0.78492298
H       -0.70674335       2.48561842      -1.15937681
19
Frame=16 idx=010181 GeodesicLength=1.7670812799761182 rxn_smarts="[C:1]([C:2]([C@@:3]1([C:4]([H:13])([H:14])[H:15])[C:5]([H:16])([H:17])[C@:6]1([O:7][H:19])[H:18])([H:11])[H:12])([H:8])([H:9])[H:10]>>[C:1](=[C:2]([H:11])[H:12])([H:9])[H:10].[C:3]1([C:4]([H:13])([H:14])[H:15])=[C:5]([H:17])[C@:6]1([O:7][H:19])[H:18].[H:8][H:16]"
C        2.09120172       0.59926723       0.29838366
C        1.62715083      -0.73887162       0.13918399
C       -0.66382864      -0.36580246      -0.11947336
C       -0.95692287      -1.56751021      -0.95918811
C       -1.33611429       0.14380447       1.00748912
C       -1.42244217       0.91262637      -0.26063044
O       -0.88471794       2.20613207      -0.22191125
H        1.15866144       1.25390249       1.47380253
H        1.87494173       1.17961300      -0.59631709
H        3.07571052       0.74004671       0.73846393
H        1.91103271      -1.31403127       1.02401034
H        2.02418382      -1.28101851      -0.71792228
H       -0.18030028      -1.59287852      -1.72660536
H       -0.97556497      -2.49664217      -0.38548396
H       -1.91461182      -1.54952393      -1.48149876
H       -0.12747372       0.60609458       2.10941097
H       -2.18741594      -0.21106244       1.57228203
H       -2.38258570       0.95785704      -0.77991175
H       -0.73090445       2.51799717      -1.11408422
