17
Frame=0 idx=010320 GeodesicLength=0.0 rxn_smarts="[C:1]([C@@:2]1([H:11])[C@:3]([O:4][H:13])([H:12])[C:5]([H:14])([H:15])[C@:6]1([O:7][H:17])[H:16])([H:8])([H:9])[H:10]>>[C:1](=[C:2]([C@:6]1([O:7][H:17])[C@:3]([O:4][H:13])([H:12])[C:5]1([H:14])[H:15])[H:11])([H:9])[H:10].[H:8][H:16]"
C       -1.79177682      -0.29259740      -0.11319337
C       -0.59685468      -0.04127559       0.58950996
C        0.78312734      -0.90848660       0.74471976
O        0.95747035      -1.92947096      -0.17194109
C        1.65310269       0.33988404       0.53359683
C        0.41615856       0.80689363      -0.20131995
O        0.52467739       0.51595767      -1.51719741
H       -1.60478049       1.50167715      -0.52829975
H       -2.73080566      -0.37553642       0.41612546
H       -1.76096752      -0.79248613      -1.07729476
H       -0.75384841       0.40694468       1.57030774
H        0.79686950      -1.33907881       1.74178875
H        0.94668037      -1.55310957      -1.05941374
H        1.84622918       0.88892371       1.45113372
H        2.55259991       0.20968196      -0.06061255
H       -0.87602349       1.95475413      -0.41571028
H       -0.36185824       0.60732449      -1.90219928
17
Frame=1 idx=010320 GeodesicLength=0.10668143793676427 rxn_smarts="[C:1]([C@@:2]1([H:11])[C@:3]([O:4][H:13])([H:12])[C:5]([H:14])([H:15])[C@:6]1([O:7][H:17])[H:16])([H:8])([H:9])[H:10]>>[C:1](=[C:2]([C@:6]1([O:7][H:17])[C@:3]([O:4][H:13])([H:12])[C:5]1([H:14])[H:15])[H:11])([H:9])[H:10].[H:8][H:16]"
C       -1.80522298      -0.27940436      -0.11787614
C       -0.60872338      -0.04450583       0.58985459
C        0.78929329      -0.90910907       0.74302838
O        0.96224086      -1.94576231      -0.15675294
C        1.65372078       0.34034700       0.53056281
C        0.41114388       0.79242579      -0.20094680
O        0.51978176       0.50960520      -1.52217531
H       -1.61747744       1.50956984      -0.51702128
H       -2.73749986      -0.39223738       0.41827828
H       -1.76909691      -0.78052946      -1.08125418
H       -0.76787907       0.39899989       1.57275154
H        0.80391153      -1.32623301       1.74631078
H        0.98196590      -1.58531358      -1.05023218
H        1.85317901       0.89477709       1.44338877
H        2.54787821       0.20925758      -0.07155623
H       -0.86193436       1.96326882      -0.40870282
H       -0.35528122       0.64484379      -1.91765726
17
Frame=2 idx=010320 GeodesicLength=0.2132486858512993 rxn_smarts="[C:1]([C@@:2]1([H:11])[C@:3]([O:4][H:13])([H:12])[C:5]([H:14])([H:15])[C@:6]1([O:7][H:17])[H:16])([H:8])([H:9])[H:10]>>[C:1](=[C:2]([C@:6]1([O:7][H:17])[C@:3]([O:4][H:13])([H:12])[C:5]1([H:14])[H:15])[H:11])([H:9])[H:10].[H:8][H:16]"
C       -1.81898744      -0.26611911      -0.12224605
C       -0.62085036      -0.04789624       0.59015665
C        0.79545845      -0.90985223       0.74117724
O        0.96710375      -1.96207844      -0.14126082
C        1.65412517       0.34079458       0.52697946
C        0.40576788       0.77761790      -0.20078947
O        0.51396009       0.50296623      -1.52740519
H       -1.63063126       1.51735764      -0.50567987
H       -2.74409793      -0.40892158       0.41967266
H       -1.77773244      -0.76818379      -1.08505719
H       -0.78201497       0.39078068       1.57519619
H        0.81089623      -1.31322692       1.75057110
H        1.01873979      -1.61829568      -1.03960697
H        1.86009303       0.90078261       1.43484977
H        2.54273993       0.20883117      -0.08320309
H       -0.84728014       1.97176389      -0.40099558
H       -0.34728978       0.68367929      -1.93235884
17
Frame=3 idx=010320 GeodesicLength=0.3196859890045921 rxn_smarts="[C:1]([C@@:2]1([H:11])[C@:3]([O:4][H:13])([H:12])[C:5]([H:14])([H:15])[C@:6]1([O:7][H:17])[H:16])([H:8])([H:9])[H:10]>>[C:1](=[C:2]([C@:6]1([O:7][H:17])[C@:3]([O:4][H:13])([H:12])[C:5]1([H:14])[H:15])[H:11])([H:9])[H:10].[H:8][H:16]"
C       -1.83308011      -0.25276962      -0.12626833
C       -0.63324560      -0.05143692       0.59042211
C        0.80161841      -0.91071848       0.73912388
O        0.97208304      -1.97837411      -0.12553839
C        1.65430126       0.34122791       0.52282163
C        0.40001216       0.76248655      -0.20083319
O        0.50717142       0.49612371      -1.53288558
H       -1.64431075       1.52498603      -0.49434950
H       -2.75064220      -0.42548957       0.42033305
H       -1.78690871      -0.75546875      -1.08867701
H       -0.79625505       0.38227420       1.57765769
H        0.81782551      -1.30008883       1.75450757
H        1.05701863      -1.65201293      -1.02744174
H        1.86696733       0.90691577       1.42549407
H        2.53715390       0.20841432      -0.09559306
H       -0.83201627       1.98023140      -0.39257281
H       -0.33769300       0.72369931      -1.94620038
17
Frame=4 idx=010320 GeodesicLength=0.4259795201038181 rxn_smarts="[C:1]([C@@:2]1([H:11])[C@:3]([O:4][H:13])([H:12])[C:5]([H:14])([H:15])[C@:6]1([O:7][H:17])[H:16])([H:8])([H:9])[H:10]>>[C:1](=[C:2]([C@:6]1([O:7][H:17])[C@:3]([O:4][H:13])([H:12])[C:5]1([H:14])[H:15])[H:11])([H:9])[H:10].[H:8][H:16]"
C       -1.84751028      -0.23938619      -0.12991163
C       -0.64591955      -0.05511469       0.59065617
C        0.80776588      -0.91170987       0.73682350
O        0.97719697      -1.99460564      -0.10966442
C        1.65423424       0.34164716       0.51806272
C        0.39385977       0.74705043      -0.20106456
O        0.49937559       0.48917059      -1.53861552
H       -1.65859246       1.53240323      -0.48310558
H       -2.75717775      -0.44184778       0.42029589
H       -1.79665420      -0.74241078      -1.09208754
H       -0.81059919       0.37347025       1.58015090
H        0.82469754      -1.28684832       1.75805717
H        1.09682919      -1.68641862      -1.01363222
H        1.87379916       0.91314979       1.41529818
H        2.53108718       0.20801626      -0.10876780
H       -0.81608915       1.98866720      -0.38341534
H       -0.32630293       0.76476699      -1.95907993
17
Frame=5 idx=010320 GeodesicLength=0.5321244098141507 rxn_smarts="[C:1]([C@@:2]1([H:11])[C@:3]([O:4][H:13])([H:12])[C:5]([H:14])([H:15])[C@:6]1([O:7][H:17])[H:16])([H:8])([H:9])[H:10]>>[C:1](=[C:2]([C@:6]1([O:7][H:17])[C@:3]([O:4][H:13])([H:12])[C:5]1([H:14])[H:15])[H:11])([H:9])[H:10].[H:8][H:16]"
C       -1.86228539      -0.22599932      -0.13314932
C       -0.65888092      -0.05891086       0.59086429
C        0.81389460      -0.91282903       0.73422831
O        0.98247270      -2.01073130      -0.09372574
C        1.65391097       0.34205051       0.51267876
C        0.38729442       0.73133266      -0.20146784
O        0.49053624       0.48221726      -1.54459001
H       -1.67357136       1.53956602      -0.47201687
H       -2.76375423      -0.45790776       0.41960102
H       -1.80699055      -0.72904067      -1.09526594
H       -0.82504638       0.36436336       1.58269063
H        0.83151199      -1.27353874       1.76115456
H        1.13818747      -1.72145993      -0.99806704
H        1.88058939       0.91945435       1.40424269
H        2.52450682       0.20764285      -0.12276618
H       -0.79943492       1.99707058      -0.37350963
H       -0.31294085       0.80672001      -1.97090169
17
Frame=6 idx=010320 GeodesicLength=0.6381134954613008 rxn_smarts="[C:1]([C@@:2]1([H:11])[C@:3]([O:4][H:13])([H:12])[C:5]([H:14])([H:15])[C@:6]1([O:7][H:17])[H:16])([H:8])([H:9])[H:10]>>[C:1](=[C:2]([C@:6]1([O:7][H:17])[C@:3]([O:4][H:13])([H:12])[C:5]1([H:14])[H:15])[H:11])([H:9])[H:10].[H:8][H:16]"
C       -1.87741255      -0.21264024      -0.13595725
C       -0.67214096      -0.06280140       0.59104958
C        0.81999108      -0.91407678       0.73128547
O        0.98791875      -2.02670808      -0.07781755
C        1.65331597       0.34243365       0.50664036
C        0.38030171       0.71535653      -0.20203201
O        0.48061641       0.47537998      -1.55080625
H       -1.68934733       1.54642832      -0.46115208
H       -2.77041887      -0.47359159       0.41830415
H       -1.81793048      -0.71539396      -1.09818663
H       -0.83959961       0.35495314       1.58528745
H        0.83825814      -1.26019241       1.76373001
H        1.18114333      -1.75707859      -0.98061670
H        1.88733774       0.92579411       1.39230223
H        2.51737650       0.20729450      -0.13763220
H       -0.78197744       2.00544492      -0.36283276
H       -0.29743240       0.84939790      -1.98156580
17
Frame=7 idx=010320 GeodesicLength=0.7439444196823641 rxn_smarts="[C:1]([C@@:2]1([H:11])[C@:3]([O:4][H:13])([H:12])[C:5]([H:14])([H:15])[C@:6]1([O:7][H:17])[H:16])([H:8])([H:9])[H:10]>>[C:1](=[C:2]([C@:6]1([O:7][H:17])[C@:3]([O:4][H:13])([H:12])[C:5]1([H:14])[H:15])[H:11])([H:9])[H:10].[H:8][H:16]"
C       -1.89289755      -0.19933926      -0.13831718
C       -0.68570901      -0.06675447       0.59121400
C        0.82604073      -0.91545406       0.72793844
O        0.99354672      -2.04249338      -0.06204449
C        1.65243604       0.34279018       0.49991996
C        0.37286955       0.69915100      -0.20274567
O        0.46958328       0.46879556      -1.55725844
H       -1.70603771       1.55295211      -0.45057568
H       -2.77721712      -0.48883855       0.41646427
H       -1.82947996      -0.70150840      -1.10082768
H       -0.85426059       0.34524559       1.58794983
H        0.84492438      -1.24684598       1.76571078
H        1.22573701      -1.79321083      -0.96113583
H        1.89404939       0.93212859       1.37945476
H        2.50966024       0.20696756      -0.15340680
H       -0.76362521       2.01379917      -0.35136268
H       -0.27962020       0.89261517      -1.99097760
17
Frame=8 idx=010320 GeodesicLength=0.8496433392769419 rxn_smarts="[C:1]([C@@:2]1([H:11])[C@:3]([O:4][H:13])([H:12])[C:5]([H:14])([H:15])[C@:6]1([O:7][H:17])[H:16])([H:8])([H:9])[H:10]>>[C:1](=[C:2]([C@:6]1([O:7][H:17])[C@:3]([O:4][H:13])([H:12])[C:5]1([H:14])[H:15])[H:11])([H:9])[H:10].[H:8][H:16]"
C       -1.90875067      -0.18613215      -0.14021570
C       -0.69959523      -0.07073278       0.59136159
C        0.83202460      -0.91696414       0.72412883
O        0.99935977      -2.05804940      -0.04652687
C        1.65126452       0.34311555       0.49249347
C        0.36499158       0.68275228      -0.20360002
O        0.45741053       0.46262165      -1.56394922
H       -1.72377840       1.55910411      -0.44034032
H       -2.78420459      -0.50360219       0.41414792
H       -1.84164477      -0.68743181      -1.10317558
H       -0.86903161       0.33525104       1.59069429
H        0.85149318      -1.23354381       1.76702950
H        1.27201640      -1.82978718      -0.93946476
H        1.90074263       0.93841818       1.36568853
H        2.50132856       0.20666073      -0.17013086
H       -0.74425958       2.02215425      -0.33908115
H       -0.25936691       0.93616567      -1.99905965
17
Frame=9 idx=010320 GeodesicLength=0.9551251707790824 rxn_smarts="[C:1]([C@@:2]1([H:11])[C@:3]([O:4][H:13])([H:12])[C:5]([H:14])([H:15])[C@:6]1([O:7][H:17])[H:16])([H:8])([H:9])[H:10]>>[C:1](=[C:2]([C@:6]1([O:7][H:17])[C@:3]([O:4][H:13])([H:12])[C:5]1([H:14])[H:15])[H:11])([H:9])[H:10].[H:8][H:16]"
C       -1.92495200      -0.17304473      -0.14165402
C       -0.71379934      -0.07467781       0.59148878
C        0.83792807      -0.91859406       0.71979577
O        1.00539730      -2.07332814      -0.03135298
C        1.64978478       0.34339788       0.48432053
C        0.35665838       0.66620560      -0.20457958
O        0.44407125       0.45703785      -1.57084479
H       -1.74270356       1.56486007      -0.43054982
H       -2.79135241      -0.51791987       0.41139939
H       -1.85437931      -0.67318583      -1.10521927
H       -0.88391751       0.32499946       1.59350795
H        0.85795262      -1.22030438       1.76760309
H        1.31989386      -1.86677353      -0.91541799
H        1.90742131       0.94460856       1.35095885
H        2.49233001       0.20633811      -0.18785298
H       -0.72378637       2.03051935      -0.32589905
H       -0.23654708       0.97986147      -2.00570387
17
Frame=10 idx=010320 GeodesicLength=1.0604669507346032 rxn_smarts="[C:1]([C@@:2]1([H:11])[C@:3]([O:4][H:13])([H:12])[C:5]([H:14])([H:15])[C@:6]1([O:7][H:17])[H:16])([H:8])([H:9])[H:10]>>[C:1](=[C:2]([C@:6]1([O:7][H:17])[C@:3]([O:4][H:13])([H:12])[C:5]1([H:14])[H:15])[H:11])([H:9])[H:10].[H:8][H:16]"
C       -1.94152176      -0.16011681      -0.14262278
C       -0.72833251      -0.07853473       0.59159994
C        0.84371794      -0.92035341       0.71486444
O        1.01163393      -2.08829227      -0.01669883
C        1.64799768       0.34362812       0.47538303
C        0.34787360       0.64955763      -0.20568307
O        0.42955145       0.45223730      -1.57795773
H       -1.76299825       1.57018903      -0.42122106
H       -2.79873848      -0.53174089       0.40830085
H       -1.86768974      -0.65883810      -1.10694721
H       -0.89891937       0.31451794       1.59641427
H        0.86426548      -1.20719686       1.76735423
H        1.36950524      -1.90406643      -0.88877707
H        1.91412154       0.95064381       1.33527466
H        2.48264539       0.20599928      -0.20660821
H       -0.70202159       2.03893091      -0.31181310
H       -0.21109056       1.02343547      -2.01086237
17
Frame=11 idx=010320 GeodesicLength=1.1656405923730815 rxn_smarts="[C:1]([C@@:2]1([H:11])[C@:3]([O:4][H:13])([H:12])[C:5]([H:14])([H:15])[C@:6]1([O:7][H:17])[H:16])([H:8])([H:9])[H:10]>>[C:1](=[C:2]([C@:6]1([O:7][H:17])[C@:3]([O:4][H:13])([H:12])[C:5]1([H:14])[H:15])[H:11])([H:9])[H:10].[H:8][H:16]"
C       -1.95845104      -0.14737406      -0.14312820
C       -0.74319368      -0.08222430       0.59168912
C        0.84936366      -0.92223897       0.70925622
O        1.01806679      -2.10289161      -0.00271802
C        1.64589446       0.34378389       0.46564604
C        0.33863652       0.63286352      -0.20690627
O        0.41382812       0.44843605      -1.58526454
H       -1.78485580       1.57506647      -0.41241163
H       -2.80634907      -0.54510651       0.40490374
H       -1.88153444      -0.64441822      -1.10835249
H       -0.91403469       0.30385177       1.59940389
H        0.87040402      -1.19427185       1.76618849
H        1.42088012      -1.94159139      -0.85925587
H        1.92087296       0.95644505       1.31860804
H        2.47222990       0.20560508      -0.22643894
H       -0.67879460       2.04741650      -0.29675722
H       -0.18296322       1.06664856      -2.01446236
17
Frame=12 idx=010320 GeodesicLength=1.2706803289845507 rxn_smarts="[C:1]([C@@:2]1([H:11])[C@:3]([O:4][H:13])([H:12])[C:5]([H:14])([H:15])[C@:6]1([O:7][H:17])[H:16])([H:8])([H:9])[H:10]>>[C:1](=[C:2]([C@:6]1([O:7][H:17])[C@:3]([O:4][H:13])([H:12])[C:5]1([H:14])[H:15])[H:11])([H:9])[H:10].[H:8][H:16]"
C       -1.97574656      -0.13486146      -0.14318374
C       -0.75838713      -0.08565948       0.59175563
C        0.85482902      -0.92425065       0.70288698
O        1.02469409      -2.11708483       0.01039983
C        1.64348823       0.34384929       0.45507942
C        0.32896102       0.61619049      -0.20824819
O        0.39689677       0.44587149      -1.59275680
H       -1.80850855       1.57946103      -0.40415778
H       -2.81420629      -0.55806139       0.40126136
H       -1.89588004      -0.62998415      -1.10944732
H       -0.92927151       0.29305621       1.60248702
H        0.87632953      -1.18158756       1.76401985
H        1.47404374      -1.97927257      -0.82653495
H        1.92774062       0.96194182       1.30095023
H        2.46106683       0.20512434      -0.24739376
H       -0.65388383       2.05601735      -0.28065132
H       -0.15216595       1.10925007      -2.01646647
17
Frame=13 idx=010320 GeodesicLength=1.375508187115829 rxn_smarts="[C:1]([C@@:2]1([H:11])[C@:3]([O:4][H:13])([H:12])[C:5]([H:14])([H:15])[C@:6]1([O:7][H:17])[H:16])([H:8])([H:9])[H:10]>>[C:1](=[C:2]([C@:6]1([O:7][H:17])[C@:3]([O:4][H:13])([H:12])[C:5]1([H:14])[H:15])[H:11])([H:9])[H:10].[H:8][H:16]"
C       -1.99336025      -0.12262774      -0.14281761
C       -0.77389586      -0.08871881       0.59178825
C        0.86008592      -0.92636770       0.69568121
O        1.03154052      -2.13082725       0.02254180
C        1.64078206       0.34380043       0.44362019
C        0.31885453       0.59963433      -0.20969642
O        0.37873230       0.44483475      -1.60036800
H       -1.83420309       1.58332408      -0.39657758
H       -2.82216455      -0.57081988       0.39737189
H       -1.91059907      -0.61555426      -1.11024222
H       -0.94463415       0.28221315       1.60562720
H        0.88202199      -1.16916612       1.76075256
H        1.52876594      -2.01711145      -0.79025045
H        1.93478629       0.96704392       1.28222787
H        2.44910120       0.20446675      -0.26954046
H       -0.62710218       2.06478942      -0.26333582
H       -0.11871160       1.15108638      -2.01678241
17
Frame=14 idx=010320 GeodesicLength=1.4802171223391738 rxn_smarts="[C:1]([C@@:2]1([H:11])[C@:3]([O:4][H:13])([H:12])[C:5]([H:14])([H:15])[C@:6]1([O:7][H:17])[H:16])([H:8])([H:9])[H:10]>>[C:1](=[C:2]([C@:6]1([O:7][H:17])[C@:3]([O:4][H:13])([H:12])[C:5]1([H:14])[H:15])[H:11])([H:9])[H:10].[H:8][H:16]"
C       -2.01131173      -0.11073813      -0.14205419
C       -0.78971719      -0.09128058       0.59179163
C        0.86507977      -0.92859742       0.68752530
O        1.03860339      -2.14406234       0.03340499
C        1.63781365       0.34361360       0.43125555
C        0.30835629       0.58328574      -0.21125607
O        0.35936530       0.44561149      -1.60809636
H       -1.86227115       1.58660139      -0.38967260
H       -2.83028148      -0.58339293       0.39329921
H       -1.92565998      -0.60123183      -1.11076621
H       -0.96012392       0.27141057       1.60885690
H        0.88741755      -1.15710672       1.75628426
H        1.58511193      -2.05497401      -0.74996267
H        1.94211920       0.97164355       1.26248237
H        2.43634993       0.20360844      -0.29291256
H       -0.59810549       2.07376780      -0.24472618
H       -0.08274609       1.19184137      -2.01545338
17
Frame=15 idx=010320 GeodesicLength=1.5847592303230862 rxn_smarts="[C:1]([C@@:2]1([H:11])[C@:3]([O:4][H:13])([H:12])[C:5]([H:14])([H:15])[C@:6]1([O:7][H:17])[H:16])([H:8])([H:9])[H:10]>>[C:1](=[C:2]([C@:6]1([O:7][H:17])[C@:3]([O:4][H:13])([H:12])[C:5]1([H:14])[H:15])[H:11])([H:9])[H:10].[H:8][H:16]"
C       -2.02955224      -0.09925644      -0.14092587
C       -0.80581976      -0.09318244       0.59175804
C        0.86975080      -0.93093242       0.67830694
O        1.04587606      -2.15671898       0.04274043
C        1.63459696       0.34324599       0.41792788
C        0.29749293       0.56726792      -0.21292771
O        0.33878560       0.44855064      -1.61587660
H       -1.89305831       1.58920862      -0.38352785
H       -2.83840346      -0.59599275       0.38904979
H       -1.94092604      -0.58705356      -1.11103765
H       -0.97572198       0.26075400       1.61215534
H        0.89246747      -1.14549397       1.75049130
H        1.64291938      -2.09279578      -0.70507885
H        1.94984527       0.97559039       1.24166635
H        2.42276217       0.20246466      -0.31757666
H       -0.56656883       2.08300008      -0.22466767
H       -0.04444603       1.23134404      -2.01247720
17
Frame=16 idx=010320 GeodesicLength=1.6891203309170824 rxn_smarts="[C:1]([C@@:2]1([H:11])[C@:3]([O:4][H:13])([H:12])[C:5]([H:14])([H:15])[C@:6]1([O:7][H:17])[H:16])([H:8])([H:9])[H:10]>>[C:1](=[C:2]([C@:6]1([O:7][H:17])[C@:3]([O:4][H:13])([H:12])[C:5]1([H:14])[H:15])[H:11])([H:9])[H:10].[H:8][H:16]"
C       -2.04803637      -0.08825650      -0.13948542
C       -0.82216208      -0.09423609       0.59166649
C        0.87404195      -0.93337301       0.66787782
O        1.05338584      -2.16870640       0.05020740
C        1.63115915       0.34263103       0.40357453
C        0.28629141       0.55171415      -0.21471287
O        0.31695920       0.45402580      -1.62361697
H       -1.92699901       1.59102196      -0.37823798
H       -2.84639127      -0.60875435       0.38461970
H       -1.95626153      -0.57308550      -1.11107438
H       -0.99139242       0.25037104       1.61547862
H        0.89714517      -1.13444028       1.74320233
H        1.70205678      -2.13050895      -0.65480873
H        1.95811220       0.97868400       1.21972607
H        2.40828835       0.20093703      -0.34360021
H       -0.53213028       2.09251063      -0.20297466
H       -0.00406709       1.26946543      -2.00784174
