19
Frame=0 idx=006363 GeodesicLength=0.0 rxn_smarts="[C:1]([C:2]([C@@:3]([O:4][H:14])([C:5]([C:6]([O:7][H:19])([H:17])[H:18])([H:15])[H:16])[H:13])([H:11])[H:12])([H:8])([H:9])[H:10]>>[C:1]([C:2]([C@@:3]([O:4][H:14])([C:5]([C:6](=[O:7])[H:18])([H:15])[H:17])[H:13])([H:11])[H:12])([H:8])([H:9])[H:10].[H:16][H:19]"
C        2.59693069      -0.36248115       0.49757145
C        1.42197183       0.12677321      -0.33473990
C        0.09717502      -0.48279392       0.14052155
O       -0.15129362      -0.18980853       1.47643233
C       -1.02808591      -0.17179579      -0.77675876
C       -2.39583660       0.00817204      -0.30472283
O       -2.54200321       0.72024568       0.79113178
H        3.52072389       0.12346612       0.18115682
H        2.43437312      -0.14099813       1.55209636
H        2.73393896      -1.44166241       0.39444884
H        1.57511354      -0.11454556      -1.39166758
H        1.32894101       1.21289178      -0.25537059
H        0.20725659      -1.58216817       0.02371597
H       -1.05517477       0.19889235       1.53855479
H       -0.86821057      -0.45617263      -1.81750865
H       -0.87685684       1.72814762      -0.52566761
H       -2.46689140      -1.12515557      -0.13673758
H       -3.10572383       0.19189674      -1.12836928
H       -1.42634787       1.75709636       0.07591291
19
Frame=1 idx=006363 GeodesicLength=0.11997301384061541 rxn_smarts="[C:1]([C:2]([C@@:3]([O:4][H:14])([C:5]([C:6]([O:7][H:19])([H:17])[H:18])([H:15])[H:16])[H:13])([H:11])[H:12])([H:8])([H:9])[H:10]>>[C:1]([C:2]([C@@:3]([O:4][H:14])([C:5]([C:6](=[O:7])[H:18])([H:15])[H:17])[H:13])([H:11])[H:12])([H:8])([H:9])[H:10].[H:16][H:19]"
C        2.60031632      -0.37213688       0.49704336
C        1.42799089       0.11642402      -0.33969309
C        0.09731070      -0.47039997       0.14476760
O       -0.13749332      -0.15572366       1.47936654
C       -1.02754014      -0.15548073      -0.77471738
C       -2.40200300      -0.00136998      -0.30504774
O       -2.55414079       0.70635613       0.79208404
H        3.52962505       0.09409305       0.16733466
H        2.44577212      -0.12770693       1.54769054
H        2.72172196      -1.45506056       0.41560787
H        1.57854253      -0.14395500      -1.39248237
H        1.34673897       1.20475754      -0.27829106
H        0.19468797      -1.57251806       0.04797584
H       -1.05407682       0.19462105       1.55418345
H       -0.86224335      -0.40603775      -1.82293175
H       -0.90064610       1.74192900      -0.51883207
H       -2.41922163      -1.15634392      -0.18158412
H       -3.11531014       0.17803741      -1.12670756
H       -1.47003123       1.78051523       0.09423323
19
Frame=2 idx=006363 GeodesicLength=0.2393830994727611 rxn_smarts="[C:1]([C:2]([C@@:3]([O:4][H:14])([C:5]([C:6]([O:7][H:19])([H:17])[H:18])([H:15])[H:16])[H:13])([H:11])[H:12])([H:8])([H:9])[H:10]>>[C:1]([C:2]([C@@:3]([O:4][H:14])([C:5]([C:6](=[O:7])[H:18])([H:15])[H:17])[H:13])([H:11])[H:12])([H:8])([H:9])[H:10].[H:16][H:19]"
C        2.60354771      -0.38191050       0.49668105
C        1.43398205       0.10561969      -0.34481744
C        0.09765750      -0.45783390       0.14887744
O       -0.12375468      -0.12058285       1.48147446
C       -1.02691064      -0.13888558      -0.77267733
C       -2.40766844      -0.01205856      -0.30489983
O       -2.56564549       0.69172432       0.79335648
H        3.53812632       0.06399484       0.15395467
H        2.45720333      -0.11427949       1.54283461
H        2.70930085      -1.46794613       0.43752136
H        1.58143250      -0.17439445      -1.39302005
H        1.36475993       1.19578189      -0.30199412
H        0.18219890      -1.56223839       0.07275211
H       -1.05150437       0.19006732       1.56999998
H       -0.85662785      -0.35474555      -1.82744477
H       -0.92538220       1.75570870      -0.51204181
H       -2.37068955      -1.18497983      -0.22890066
H       -3.12435421       0.16379055      -1.12448777
H       -1.51567167       1.80316791       0.11283164
19
Frame=3 idx=006363 GeodesicLength=0.3581747021023024 rxn_smarts="[C:1]([C:2]([C@@:3]([O:4][H:14])([C:5]([C:6]([O:7][H:19])([H:17])[H:18])([H:15])[H:16])[H:13])([H:11])[H:12])([H:8])([H:9])[H:10]>>[C:1]([C:2]([C@@:3]([O:4][H:14])([C:5]([C:6](=[O:7])[H:18])([H:15])[H:17])[H:13])([H:11])[H:12])([H:8])([H:9])[H:10].[H:16][H:19]"
C        2.60660180      -0.39182887       0.49649063
C        1.43991920       0.09434096      -0.35008792
C        0.09821473      -0.44512761       0.15284040
O       -0.11010794      -0.08442241       1.48270500
C       -1.02618824      -0.12201269      -0.77065066
C       -2.41275046      -0.02390939      -0.30431059
O       -2.57647769       0.67631254       0.79492746
H        3.54618790       0.03318572       0.14108869
H        2.46863034      -0.10082670       1.53752694
H        2.69668568      -1.48030829       0.46011939
H        1.58371764      -0.20582848      -1.39323293
H        1.38297240       1.18590508      -0.32641355
H        0.16978887      -1.55131707       0.09804428
H       -1.04723043       0.18555844       1.58596887
H       -0.85137499      -0.30231246      -1.83099393
H       -0.95109277       1.76944907      -0.50533147
H       -2.32129426      -1.21084310      -0.27874962
H       -3.13284155       0.14901303      -1.12169383
H       -1.56336022       1.82497223       0.13175282
19
Frame=4 idx=006363 GeodesicLength=0.47645851819232615 rxn_smarts="[C:1]([C:2]([C@@:3]([O:4][H:14])([C:5]([C:6]([O:7][H:19])([H:17])[H:18])([H:15])[H:16])[H:13])([H:11])[H:12])([H:8])([H:9])[H:10]>>[C:1]([C:2]([C@@:3]([O:4][H:14])([C:5]([C:6](=[O:7])[H:18])([H:15])[H:17])[H:13])([H:11])[H:12])([H:8])([H:9])[H:10].[H:16][H:19]"
C        2.60945612      -0.40192863       0.49647527
C        1.44577872       0.08257589      -0.35547352
C        0.09898346      -0.43231193       0.15664500
O       -0.09656936      -0.04731283       1.48301383
C       -1.02535740      -0.10485543      -0.76865287
C       -2.41716301      -0.03695351      -0.30332479
O       -2.58660215       0.66005954       0.79677144
H        3.55378057       0.00164753       0.12879297
H        2.48002874      -0.08746115       1.53176628
H        2.68386996      -1.49215120       0.48333346
H        1.58533542      -0.23818885      -1.39307585
H        1.40134735       1.17507515      -0.35145555
H        0.15744720      -1.53973886       0.12382250
H       -1.04103776       0.18151244       1.60204071
H       -0.84648642      -0.24877966      -1.83352255
H       -0.97779250       1.78310480      -0.49875886
H       -2.27101318      -1.23366682      -0.33113770
H       -3.14074793       0.13355822      -1.11833923
H       -1.61325782       1.84581530       0.15107947
19
Frame=5 idx=006363 GeodesicLength=0.5951992188189148 rxn_smarts="[C:1]([C:2]([C@@:3]([O:4][H:14])([C:5]([C:6]([O:7][H:19])([H:17])[H:18])([H:15])[H:16])[H:13])([H:11])[H:12])([H:8])([H:9])[H:10]>>[C:1]([C:2]([C@@:3]([O:4][H:14])([C:5]([C:6](=[O:7])[H:18])([H:15])[H:17])[H:13])([H:11])[H:12])([H:8])([H:9])[H:10].[H:16][H:19]"
C        2.61209207      -0.41227162       0.49662893
C        1.45154919       0.07031312      -0.36095449
C        0.09995056      -0.41937232       0.16028336
O       -0.08312680      -0.00929811       1.48235868
C       -1.02441837      -0.08736580      -0.76669641
C       -2.42083284      -0.05116319      -0.30208816
O       -2.59606934       0.64272745       0.79889843
H        3.56088205      -0.03064642       0.11713985
H        2.49137752      -0.07434798       1.52556413
H        2.67083563      -1.50351180       0.50704033
H        1.58625330      -0.27137916      -1.39252123
H        1.41989451       1.16325463      -0.37703969
H        0.14515106      -1.52747201       0.15003468
H       -1.03280402       0.17846886       1.61804173
H       -0.84188477      -0.19424340      -1.83494071
H       -1.00544844       1.79664309      -0.49263065
H       -2.21973787      -1.25321984      -0.38573326
H       -3.14800998       0.11747478      -1.11456369
H       -1.66565345       1.86540972       0.17117816
19
Frame=6 idx=006363 GeodesicLength=0.7138214600429946 rxn_smarts="[C:1]([C:2]([C@@:3]([O:4][H:14])([C:5]([C:6]([O:7][H:19])([H:17])[H:18])([H:15])[H:16])[H:13])([H:11])[H:12])([H:8])([H:9])[H:10]>>[C:1]([C:2]([C@@:3]([O:4][H:14])([C:5]([C:6](=[O:7])[H:18])([H:15])[H:17])[H:13])([H:11])[H:12])([H:8])([H:9])[H:10].[H:16][H:19]"
C        2.61448870      -0.42289529       0.49694693
C        1.45720361       0.05754327      -0.36650175
C        0.10112275      -0.40633891       0.16375019
O       -0.06976467       0.02955294       1.48071001
C       -1.02333622      -0.06951635      -0.76480059
C       -2.42364282      -0.06656554      -0.30063850
O       -2.60480408       0.62434073       0.80121523
H        3.56746612      -0.06375107       0.10612074
H        2.50268098      -0.06153985       1.51890344
H        2.65754999      -1.51441039       0.53122167
H        1.58640064      -0.30535484      -1.39152682
H        1.43858135       1.15039628      -0.40308585
H        0.13286029      -1.51447876       0.17665168
H       -1.02240089       0.17681557       1.63399806
H       -0.83758871      -0.13876413      -1.83521939
H       -1.03408730       1.81006066      -0.48679382
H       -2.16748971      -1.26917810      -0.44266580
H       -3.15459979       0.10043094      -1.11034493
H       -1.72064027       1.88365285       0.19205950
19
Frame=7 idx=006363 GeodesicLength=0.8325264352676566 rxn_smarts="[C:1]([C:2]([C@@:3]([O:4][H:14])([C:5]([C:6]([O:7][H:19])([H:17])[H:18])([H:15])[H:16])[H:13])([H:11])[H:12])([H:8])([H:9])[H:10]>>[C:1]([C:2]([C@@:3]([O:4][H:14])([C:5]([C:6](=[O:7])[H:18])([H:15])[H:17])[H:13])([H:11])[H:12])([H:8])([H:9])[H:10].[H:16][H:19]"
C        2.61662763      -0.43385320       0.49741492
C        1.46272147       0.04426426      -0.37208837
C        0.10249678      -0.39320809       0.16704306
O       -0.05645293       0.06919679       1.47803136
C       -1.02209089      -0.05126888      -0.76298475
C       -2.42549144      -0.08312450      -0.29908909
O       -2.61279540       0.60482344       0.80365208
H        3.57350541      -0.09769666       0.09575905
H        2.51393436      -0.04917088       1.51178725
H        2.64399167      -1.52488588       0.55577583
H        1.58572835      -0.34002676      -1.39005675
H        1.45739509       1.13646924      -0.42950584
H        0.12053781      -1.50070868       0.20362472
H       -1.00977313       0.17697679       1.64984779
H       -0.83356938      -0.08246690      -1.83432337
H       -1.06369561       1.82333073      -0.48133110
H       -2.11424112      -1.28126997      -0.50171983
H       -3.16044425       0.08226576      -1.10578814
H       -1.77838444       1.90035341       0.21395119
19
Frame=8 idx=006363 GeodesicLength=0.9515208646080274 rxn_smarts="[C:1]([C:2]([C@@:3]([O:4][H:14])([C:5]([C:6]([O:7][H:19])([H:17])[H:18])([H:15])[H:16])[H:13])([H:11])[H:12])([H:8])([H:9])[H:10]>>[C:1]([C:2]([C@@:3]([O:4][H:14])([C:5]([C:6](=[O:7])[H:18])([H:15])[H:17])[H:13])([H:11])[H:12])([H:8])([H:9])[H:10].[H:16][H:19]"
C        2.61849182      -0.44519209       0.49801681
C        1.46808516       0.03047743      -0.37769292
C        0.10407295      -0.37996966       0.17015661
O       -0.04313606       0.10959306       1.47428902
C       -1.02066056      -0.03258462      -0.76126971
C       -2.42627639      -0.10078296      -0.29756807
O       -2.62002734       0.58409349       0.80613401
H        3.57897730      -0.13252991       0.08606231
H        2.52514854      -0.03734332       1.50421172
H        2.63012656      -1.53497109       0.58062840
H        1.58419071      -0.37531844      -1.38809079
H        1.47632754       1.12144679      -0.45623332
H        0.10813682      -1.48610934       0.23088752
H       -0.99492786       0.17933107       1.66552266
H       -0.82977365      -0.02550486      -1.83223030
H       -1.09422387       1.83642736      -0.47633951
H       -2.05997901      -1.28917513      -0.56257931
H       -3.16545286       0.06286150      -1.10104706
H       -1.83909981       1.91525072       0.23714192
19
Frame=9 idx=006363 GeodesicLength=1.07147111932385 rxn_smarts="[C:1]([C:2]([C@@:3]([O:4][H:14])([C:5]([C:6]([O:7][H:19])([H:17])[H:18])([H:15])[H:16])[H:13])([H:11])[H:12])([H:8])([H:9])[H:10]>>[C:1]([C:2]([C@@:3]([O:4][H:14])([C:5]([C:6](=[O:7])[H:18])([H:15])[H:17])[H:13])([H:11])[H:12])([H:8])([H:9])[H:10].[H:16][H:19]"
C        2.62005810      -0.45695274       0.49873683
C        1.47328368       0.01619250      -0.38331273
C        0.10584147      -0.36656389       0.17308663
O       -0.02975594       0.15075899       1.46943481
C       -1.01904781      -0.01341179      -0.75967422
C       -2.42593784      -0.11934482      -0.29628997
O       -2.62653558       0.56193106       0.80868963
H        3.58384984      -0.16824133       0.07708151
H        2.53630271      -0.02619644       1.49619770
H        2.61592259      -1.54470365       0.60564154
H        1.58177741      -0.41112125      -1.38563569
H        1.49540097       1.10531688      -0.48324811
H        0.09560788      -1.47062281       0.25836379
H       -0.97796082       0.18419032       1.68085984
H       -0.82608260       0.03191290      -1.82891870
H       -1.12548250       1.84932541      -0.47215818
H       -2.00467732      -1.29277669      -0.62455008
H       -3.16952191       0.04242807      -1.09638514
H       -1.90304231       1.92787928       0.26208054
19
Frame=10 idx=006363 GeodesicLength=1.1917668320812638 rxn_smarts="[C:1]([C:2]([C@@:3]([O:4][H:14])([C:5]([C:6]([O:7][H:19])([H:17])[H:18])([H:15])[H:16])[H:13])([H:11])[H:12])([H:8])([H:9])[H:10]>>[C:1]([C:2]([C@@:3]([O:4][H:14])([C:5]([C:6](=[O:7])[H:18])([H:15])[H:17])[H:13])([H:11])[H:12])([H:8])([H:9])[H:10].[H:16][H:19]"
C        2.62130084      -0.46913982       0.49957700
C        1.47828459       0.00140204      -0.38893590
C        0.10780846      -0.35302363       0.17580694
O       -0.01626634       0.19259513       1.46342807
C       -1.01722555       0.00626717      -0.75822985
C       -2.42435671      -0.13875162      -0.29532802
O       -2.63216172       0.53843700       0.81115008
H        3.58809091      -0.20491834       0.06876794
H        2.54742353      -0.01565803       1.48770755
H        2.60131754      -1.55406702       0.63091369
H        1.57842878      -0.44743524      -1.38264469
H        1.51455070       1.08803880      -0.51051298
H        0.08290990      -1.45420247       0.28594543
H       -0.95889489       0.19177725       1.69587342
H       -0.82251284       0.08965152      -1.82444735
H       -1.15744564       1.86203899      -0.46866878
H       -1.94843582      -1.29170561      -0.68752398
H       -3.17256832       0.02069178      -1.09186281
H       -1.97024741       1.93800211       0.28898422
19
Frame=11 idx=006363 GeodesicLength=1.312386470676131 rxn_smarts="[C:1]([C:2]([C@@:3]([O:4][H:14])([C:5]([C:6]([O:7][H:19])([H:17])[H:18])([H:15])[H:16])[H:13])([H:11])[H:12])([H:8])([H:9])[H:10]>>[C:1]([C:2]([C@@:3]([O:4][H:14])([C:5]([C:6](=[O:7])[H:18])([H:15])[H:17])[H:13])([H:11])[H:12])([H:8])([H:9])[H:10].[H:16][H:19]"
C        2.62219360      -0.48174521       0.50053683
C        1.48305507      -0.01388147      -0.39455062
C        0.10996290      -0.33935240       0.17829623
O       -0.00262553       0.23502515       1.45622523
C       -1.01520015       0.02643984      -0.75696839
C       -2.42148331      -0.15879422      -0.29484251
O       -2.63684371       0.51365985       0.81344488
H        3.59165350      -0.24251086       0.06114916
H        2.55848860      -0.00576745       1.47875424
H        2.58630517      -1.56304352       0.65638843
H        1.57412773      -0.48417771      -1.37911341
H        1.53372093       1.06960054      -0.53799385
H        0.07002745      -1.43682177       0.31351425
H       -0.93784146       0.20220988       1.71045797
H       -0.81901562       0.14746120      -1.81887428
H       -1.18994587       1.87453489      -0.46604146
H       -1.89137540      -1.28587194      -0.75093668
H       -3.17448368      -0.00228052      -1.08768280
H       -2.04072023       1.94531574       0.31823677
19
Frame=12 idx=006363 GeodesicLength=1.4333051026353505 rxn_smarts="[C:1]([C:2]([C@@:3]([O:4][H:14])([C:5]([C:6]([O:7][H:19])([H:17])[H:18])([H:15])[H:16])[H:13])([H:11])[H:12])([H:8])([H:9])[H:10]>>[C:1]([C:2]([C@@:3]([O:4][H:14])([C:5]([C:6](=[O:7])[H:18])([H:15])[H:17])[H:13])([H:11])[H:12])([H:8])([H:9])[H:10].[H:16][H:19]"
C        2.62270939      -0.49472806       0.50162137
C        1.48756348      -0.02963698      -0.40014636
C        0.11229672      -0.32556146       0.18052430
O        0.01119380       0.27794232       1.44778499
C       -1.01297979       0.04707016      -0.75592935
C       -2.41729197      -0.17922768      -0.29496701
O       -2.64047177       0.48767748       0.81551842
H        3.59449705      -0.28097143       0.05424745
H        2.56948157       0.00350218       1.46933733
H        2.57086911      -1.57157746       0.68206657
H        1.56885917      -0.52129044      -1.37502340
H        1.55283832       1.04999524      -0.56567168
H        0.05694622      -1.41847893       0.34093072
H       -0.91491242       0.21554072       1.72451051
H       -0.81553380       0.20507578      -1.81229787
H       -1.22272998       1.88678086      -0.46447473
H       -1.83365777      -1.27525061      -0.81423071
H       -3.17518719      -0.02628791      -1.08404078
H       -2.11449015       1.94942621       0.35024025
19
Frame=13 idx=006363 GeodesicLength=1.5545807494777144 rxn_smarts="[C:1]([C:2]([C@@:3]([O:4][H:14])([C:5]([C:6]([O:7][H:19])([H:17])[H:18])([H:15])[H:16])[H:13])([H:11])[H:12])([H:8])([H:9])[H:10]>>[C:1]([C:2]([C@@:3]([O:4][H:14])([C:5]([C:6](=[O:7])[H:18])([H:15])[H:17])[H:13])([H:11])[H:12])([H:8])([H:9])[H:10].[H:16][H:19]"
C        2.62282796      -0.50805656       0.50283415
C        1.49178500      -0.04583702      -0.40571303
C        0.11479735      -0.31162609       0.18247591
O        0.02524024       0.32130824       1.43807133
C       -1.01057904       0.06811791      -0.75514928
C       -2.41182470      -0.19970402      -0.29583214
O       -2.64299669       0.46046682       0.81744091
H        3.59658627      -0.32016703       0.04812969
H        2.58036062       0.01208826       1.45949909
H        2.55502658      -1.57964322       0.70783716
H        1.56264157      -0.55865745      -1.37038265
H        1.57185967       1.02922662      -0.59353566
H        0.04365419      -1.39917426       0.36809878
H       -0.89024706       0.23182158       1.73787349
H       -0.81196080       0.26221793      -1.80481672
H       -1.25540886       1.89874762      -0.46432662
H       -1.77547963      -1.26005643      -0.87669737
H       -3.17461334      -0.05086308      -1.08117605
H       -2.19166932       1.94979019       0.38536900
19
Frame=14 idx=006363 GeodesicLength=1.6757116864575725 rxn_smarts="[C:1]([C:2]([C@@:3]([O:4][H:14])([C:5]([C:6]([O:7][H:19])([H:17])[H:18])([H:15])[H:16])[H:13])([H:11])[H:12])([H:8])([H:9])[H:10]>>[C:1]([C:2]([C@@:3]([O:4][H:14])([C:5]([C:6](=[O:7])[H:18])([H:15])[H:17])[H:13])([H:11])[H:12])([H:8])([H:9])[H:10].[H:16][H:19]"
C        2.62252926      -0.52163113       0.50420505
C        1.49567775      -0.06248641      -0.41124073
C        0.11744897      -0.29762277       0.18410398
O        0.03951713       0.36494998       1.42703758
C       -1.00801052       0.08949404      -0.75468372
C       -2.40509769      -0.22002378      -0.29753435
O       -2.64425509       0.43233481       0.81904327
H        3.59787939      -0.36006934       0.04277829
H        2.59113313       0.02021471       1.44919306
H        2.53876856      -1.58709821       0.73388807
H        1.55546414      -0.59632734      -1.36512630
H        1.59064763       1.00725815      -0.62159616
H        0.03017981      -1.37893178       0.39488293
H       -0.86394132       0.25090769       1.75051503
H       -0.80829115       0.31863875      -1.79660257
H       -1.28776165       1.91044215      -0.46566731
H       -1.71710415      -1.24027625      -0.93811250
H       -3.17272441      -0.07588614      -1.07918295
H       -2.27205981       1.94611284       0.42409933
19
Frame=15 idx=006363 GeodesicLength=1.7965440392278493 rxn_smarts="[C:1]([C:2]([C@@:3]([O:4][H:14])([C:5]([C:6]([O:7][H:19])([H:17])[H:18])([H:15])[H:16])[H:13])([H:11])[H:12])([H:8])([H:9])[H:10]>>[C:1]([C:2]([C@@:3]([O:4][H:14])([C:5]([C:6](=[O:7])[H:18])([H:15])[H:17])[H:13])([H:11])[H:12])([H:8])([H:9])[H:10].[H:16][H:19]"
C        2.62179694      -0.53536939       0.50575816
C        1.49920830      -0.07957868      -0.41671510
C        0.12022797      -0.28357761       0.18537749
O        0.05404084       0.40877786       1.41464190
C       -1.00529432       0.11111112      -0.75458953
C       -2.39720230      -0.23990233      -0.30015999
O       -2.64417026       0.40344370       0.82032468
H        3.59834143      -0.40057052       0.03823404
H        2.60177713       0.02797872       1.43841639
H        2.52210967      -1.59383697       0.76026875
H        1.54733987      -0.63428794      -1.35921681
H        1.60910918       0.98406711      -0.64986695
H        0.01653571      -1.35777601       0.42120234
H       -0.83609420       0.27268729       1.76231942
H       -0.80444996       0.37409824      -1.78782097
H       -1.31941931       1.92186174      -0.46875870
H       -1.65872621      -1.21617796      -0.99809681
H       -3.16952091      -0.10093563      -1.07821012
H       -2.35560955       1.93798727       0.46689180
19
Frame=16 idx=006363 GeodesicLength=1.9167508110976978 rxn_smarts="[C:1]([C:2]([C@@:3]([O:4][H:14])([C:5]([C:6]([O:7][H:19])([H:17])[H:18])([H:15])[H:16])[H:13])([H:11])[H:12])([H:8])([H:9])[H:10]>>[C:1]([C:2]([C@@:3]([O:4][H:14])([C:5]([C:6](=[O:7])[H:18])([H:15])[H:17])[H:13])([H:11])[H:12])([H:8])([H:9])[H:10].[H:16][H:19]"
C        2.62062358      -0.54918524       0.50752548
C        1.50235363      -0.09710706      -0.42211918
C        0.12311561      -0.26951109       0.18626396
O        0.06882656       0.45271106       1.40083879
C       -1.00243923       0.13288168      -0.75493767
C       -2.38825230      -0.25905836      -0.30378584
O       -2.64265642       0.37398347       0.82128658
H        3.59795099      -0.44157247       0.03455006
H        2.61228141       0.03548785       1.42716279
H        2.50507061      -1.59974012       0.78704087
H        1.53829574      -0.67252814      -1.35260467
H        1.62716261       0.95962817      -0.67835954
H        0.00273686      -1.33572771       0.44699229
H       -0.80678888       0.29703611       1.77316820
H       -0.80035590       0.42836893      -1.77865759
H       -1.35001016       1.93303691      -0.47383656
H       -1.60059872      -1.18809943      -1.05632143
H       -3.16504119      -0.12552740      -1.07838932
H       -2.44227481       1.92492283       0.51418278
