15
Frame=0 idx=002507 GeodesicLength=0.0 rxn_smarts="[C:1]([N:2]1[C:3]([H:10])([H:11])[C:4]([O:5][H:13])([H:12])[C:6]1([H:14])[H:15])([H:7])([H:8])[H:9]>>[C:1]([N+:2]1=[C:6]([H:14])[C:4]([O:5][H:13])([H:12])[C-:3]1[H:11])([H:7])([H:8])[H:9].[H:10][H:15]"
C       -1.88457192       0.04612025       0.52243592
N       -0.46291581       0.04705682       0.30133052
C        0.35202429      -1.00565407       0.02310212
C        1.48864116      -0.00268455      -0.23577100
O        2.40909798       0.19920612       0.80442901
C        0.30420334       0.97656655      -0.32498299
H       -2.14182241      -0.71938952       1.25304912
H       -2.20201636       1.02148790       0.88688295
H       -2.38822717      -0.17157898      -0.42407665
H        0.02246962      -0.73236739      -1.69742485
H        0.30819597      -1.97755264       0.49478746
H        2.06796768      -0.14815139      -1.14275436
H        1.92201945       0.30208217       1.62565443
H        0.20392481       2.04792056      -0.23276436
H        0.00100932       0.11693811      -1.85389727
15
Frame=1 idx=002507 GeodesicLength=0.061283546864876755 rxn_smarts="[C:1]([N:2]1[C:3]([H:10])([H:11])[C:4]([O:5][H:13])([H:12])[C:6]1([H:14])[H:15])([H:7])([H:8])[H:9]>>[C:1]([N+:2]1=[C:6]([H:14])[C:4]([O:5][H:13])([H:12])[C-:3]1[H:11])([H:7])([H:8])[H:9].[H:10][H:15]"
C       -1.88360429       0.04661910       0.52114937
N       -0.46065695       0.05001860       0.30901882
C        0.35397091      -1.00573371       0.02205211
C        1.48993115       0.00015053      -0.23123281
O        2.41109307       0.20596461       0.80655125
C        0.30380092       0.97636450      -0.33159736
H       -2.14225144      -0.71666021       1.25368136
H       -2.20458230       1.02323932       0.87937028
H       -2.38463289      -0.17595313      -0.42586091
H        0.01226824      -0.74392441      -1.69485666
H        0.31015509      -1.98274240       0.48289956
H        2.06843206      -0.14791842      -1.13874474
H        1.92474163       0.30051828       1.62916436
H        0.21182935       2.04787321      -0.22905330
H       -0.01049453       0.12218412      -1.85254135
15
Frame=2 idx=002507 GeodesicLength=0.12256712852014787 rxn_smarts="[C:1]([N:2]1[C:3]([H:10])([H:11])[C:4]([O:5][H:13])([H:12])[C:6]1([H:14])[H:15])([H:7])([H:8])[H:9]>>[C:1]([N+:2]1=[C:6]([H:14])[C:4]([O:5][H:13])([H:12])[C-:3]1[H:11])([H:7])([H:8])[H:9].[H:10][H:15]"
C       -1.88258785       0.04711693       0.51989714
N       -0.45843089       0.05298361       0.31652314
C        0.35591290      -1.00579675       0.02092644
C        1.49121041       0.00302505      -0.22663004
O        2.41299968       0.21274617       0.80879777
C        0.30341142       0.97612663      -0.33813851
H       -2.14258772      -0.71393203       1.25434896
H       -2.20701620       1.02494206       0.87195090
H       -2.38110083      -0.18027791      -0.42753277
H        0.00203198      -0.75577259      -1.69219672
H        0.31212937      -1.98777239       0.47094036
H        2.06897168      -0.14759289      -1.13461859
H        1.92743424       0.29871626       1.63277438
H        0.21963273       2.04768210      -0.22579282
H       -0.02201092       0.12780573      -1.85124963
15
Frame=3 idx=002507 GeodesicLength=0.18384769727475092 rxn_smarts="[C:1]([N:2]1[C:3]([H:10])([H:11])[C:4]([O:5][H:13])([H:12])[C:6]1([H:14])[H:15])([H:7])([H:8])[H:9]>>[C:1]([N+:2]1=[C:6]([H:14])[C:4]([O:5][H:13])([H:12])[C-:3]1[H:11])([H:7])([H:8])[H:9].[H:10][H:15]"
C       -1.88152782       0.04761343       0.51867046
N       -0.45623897       0.05594892       0.32384329
C        0.35785201      -1.00584676       0.01972548
C        1.49247868       0.00593376      -0.22196976
O        2.41482159       0.21954605       0.81115899
C        0.30303948       0.97585253      -0.34460882
H       -2.14284541      -0.71122234       1.25502246
H       -2.20931941       1.02659026       0.86464207
H       -2.37763126      -0.18452916      -0.42911142
H       -0.00824331      -0.76794060      -1.68943616
H        0.31413606      -1.99262822       0.45895939
H        2.06958181      -0.14718012      -1.13038663
H        1.93010788       0.29668104       1.63646987
H        0.22733104       2.04735896      -0.22295360
H       -0.03354239       0.13382225      -1.85002562
15
Frame=4 idx=002507 GeodesicLength=0.2451261671628939 rxn_smarts="[C:1]([N:2]1[C:3]([H:10])([H:11])[C:4]([O:5][H:13])([H:12])[C:6]1([H:14])[H:15])([H:7])([H:8])[H:9]>>[C:1]([N+:2]1=[C:6]([H:14])[C:4]([O:5][H:13])([H:12])[C-:3]1[H:11])([H:7])([H:8])[H:9].[H:10][H:15]"
C       -1.88042900       0.04810782       0.51746098
N       -0.45408138       0.05891366       0.33098310
C        0.35979060      -1.00588482       0.01845227
C        1.49373620       0.00887368      -0.21725712
O        2.41656352       0.22636226       0.81362661
C        0.30268975       0.97554375      -0.35100906
H       -2.14303258      -0.70853306       1.25569193
H       -2.21150086       1.02818493       0.85743408
H       -2.37422139      -0.18870802      -0.43061103
H       -0.01856209      -0.78045760      -1.68656141
H        0.31618431      -1.99730757       0.44697838
H        2.07025840      -0.14668437      -1.12605717
H        1.93277570       0.29441584       1.64023904
H        0.23492809       2.04691604      -0.22050084
H       -0.04509926       0.14025746      -1.84886976
15
Frame=5 idx=002507 GeodesicLength=0.3064006573884243 rxn_smarts="[C:1]([N:2]1[C:3]([H:10])([H:11])[C:4]([O:5][H:13])([H:12])[C:6]1([H:14])[H:15])([H:7])([H:8])[H:9]>>[C:1]([N+:2]1=[C:6]([H:14])[C:4]([O:5][H:13])([H:12])[C-:3]1[H:11])([H:7])([H:8])[H:9].[H:10][H:15]"
C       -1.87929569       0.04859916       0.51626015
N       -0.45195837       0.06187685       0.33794628
C        0.36173056      -1.00591190       0.01710862
C        1.49498289       0.01184173      -0.21249738
O        2.41822978       0.23319150       0.81619227
C        0.30236662       0.97520186      -0.35733871
H       -2.14315701      -0.70586621       1.25634682
H       -2.21356887       1.02972669       0.85031716
H       -2.37086802      -0.19281545      -0.43204586
H       -0.02892839      -0.79335402      -1.68355915
H        0.31828397      -2.00180724       0.43502166
H        2.07099683      -0.14610950      -1.12163865
H        1.93545049       0.29192373       1.64406975
H        0.24242768       2.04636389      -0.21840162
H       -0.05669246       0.14713890      -1.84778134
15
Frame=6 idx=002507 GeodesicLength=0.3676735472949888 rxn_smarts="[C:1]([N:2]1[C:3]([H:10])([H:11])[C:4]([O:5][H:13])([H:12])[C:6]1([H:14])[H:15])([H:7])([H:8])[H:9]>>[C:1]([N+:2]1=[C:6]([H:14])[C:4]([O:5][H:13])([H:12])[C-:3]1[H:11])([H:7])([H:8])[H:9].[H:10][H:15]"
C       -1.87813267       0.04908766       0.51505758
N       -0.44987189       0.06483675       0.34473179
C        0.36367332      -1.00593018       0.01569669
C        1.49621752       0.01483398      -0.20769819
O        2.41982549       0.24002833       0.81884401
C        0.30207363       0.97482803      -0.36360056
H       -2.14323522      -0.70324700       1.25694746
H       -2.21552291       1.03120741       0.84331901
H       -2.36757290      -0.19681943      -0.43343818
H       -0.03935180      -0.80666728      -1.68041387
H        0.32045447      -2.00611449       0.42314461
H        2.07179076      -0.14546585      -1.11714142
H        1.93814494       0.28921527       1.64794563
H        0.24982522       2.04571129      -0.21662701
H       -0.06831794       0.15449549      -1.84676754
15
Frame=7 idx=002507 GeodesicLength=0.42894100806228014 rxn_smarts="[C:1]([N:2]1[C:3]([H:10])([H:11])[C:4]([O:5][H:13])([H:12])[C:6]1([H:14])[H:15])([H:7])([H:8])[H:9]>>[C:1]([N+:2]1=[C:6]([H:14])[C:4]([O:5][H:13])([H:12])[C-:3]1[H:11])([H:7])([H:8])[H:9].[H:10][H:15]"
C       -1.87694420       0.04957070       0.51384429
N       -0.44782165       0.06779436       0.35134646
C        0.36562062      -1.00593749       0.01421795
C        1.49744065       0.01784951      -0.20286449
O        2.42135481       0.24687104       0.82157348
C        0.30181540       0.97442643      -0.36979032
H       -2.14326755      -0.70065292       1.25751175
H       -2.21738270       1.03263536       0.83638817
H       -2.36432759      -0.20075779      -0.43479509
H       -0.04983575      -0.82042841      -1.67710631
H        0.32270097      -2.01023287       0.41134944
H        2.07263600      -0.14475057      -1.11257430
H        1.94087313       0.28627874       1.65185636
H        0.25713520       2.04496808      -0.21513471
H       -0.07999733       0.16236583      -1.84582268
15
Frame=8 idx=002507 GeodesicLength=0.49020927036733314 rxn_smarts="[C:1]([N:2]1[C:3]([H:10])([H:11])[C:4]([O:5][H:13])([H:12])[C:6]1([H:14])[H:15])([H:7])([H:8])[H:9]>>[C:1]([N+:2]1=[C:6]([H:14])[C:4]([O:5][H:13])([H:12])[C-:3]1[H:11])([H:7])([H:8])[H:9].[H:10][H:15]"
C       -1.87573332       0.05004690       0.51261154
N       -0.44580656       0.07074984       0.35779900
C        0.36757463      -1.00593351       0.01267443
C        1.49865250       0.02088682      -0.19800008
O        2.42282371       0.25371702       0.82437394
C        0.30159573       0.97400186      -0.37590166
H       -2.14325546      -0.69806767       1.25805027
H       -2.21916520       1.03401898       0.82947898
H       -2.36112336      -0.20466157      -0.43612607
H       -0.06039261      -0.83467459      -1.67361771
H        0.32503054      -2.01416935       0.39964047
H        2.07352592      -0.14396253      -1.10794625
H        1.94365223       0.28310798       1.65579339
H        0.26436682       2.04414516      -0.21388853
H       -0.09174558       0.17079467      -1.84494173
15
Frame=9 idx=002507 GeodesicLength=0.551476870287453 rxn_smarts="[C:1]([N:2]1[C:3]([H:10])([H:11])[C:4]([O:5][H:13])([H:12])[C:6]1([H:14])[H:15])([H:7])([H:8])[H:9]>>[C:1]([N+:2]1=[C:6]([H:14])[C:4]([O:5][H:13])([H:12])[C-:3]1[H:11])([H:7])([H:8])[H:9].[H:10][H:15]"
C       -1.87450499       0.05051555       0.51134895
N       -0.44382923       0.07370072       0.36408774
C        0.36953666      -1.00592035       0.01106825
C        1.49985209       0.02394212      -0.19311329
O        2.42423578       0.26056195       0.82723360
C        0.30141735       0.97355592      -0.38193571
H       -2.14321349      -0.69551507       1.25852629
H       -2.22086877       1.03534978       0.82261748
H       -2.35796055      -0.20849683      -0.43745403
H       -0.07102240      -0.84945488      -1.66992745
H        0.32745811      -2.01791466       0.38806967
H        2.07445420      -0.14310753      -1.10326918
H        1.94649283       0.27971244       1.65973997
H        0.27151865       2.04324831      -0.21286366
H       -0.10356625       0.17982253      -1.84412863
15
Frame=10 idx=002507 GeodesicLength=0.612742900294923 rxn_smarts="[C:1]([N:2]1[C:3]([H:10])([H:11])[C:4]([O:5][H:13])([H:12])[C:6]1([H:14])[H:15])([H:7])([H:8])[H:9]>>[C:1]([N+:2]1=[C:6]([H:14])[C:4]([O:5][H:13])([H:12])[C-:3]1[H:11])([H:7])([H:8])[H:9].[H:10][H:15]"
C       -1.87326359       0.05097500       0.51004537
N       -0.44189106       0.07664614       0.37021524
C        0.37150795      -1.00589803       0.00940082
C        1.50103896       0.02701308      -0.18821142
O        2.42559658       0.26740070       0.83014104
C        0.30128360       0.97309283      -0.38788896
H       -2.14315088      -0.69299836       1.25892582
H       -2.22250229       1.03662687       0.81579111
H       -2.35483482      -0.21226459      -0.43879607
H       -0.08173122      -0.86481759      -1.66601171
H        0.32999651      -2.02146551       0.37667143
H        2.07541356      -0.14218778      -1.09855498
H        1.94940978       0.27609144       1.66368128
H        0.27859652       2.04228506      -0.21202617
H       -0.11546959       0.18950073      -1.84338279
15
Frame=11 idx=002507 GeodesicLength=0.6739983964620813 rxn_smarts="[C:1]([N:2]1[C:3]([H:10])([H:11])[C:4]([O:5][H:13])([H:12])[C:6]1([H:14])[H:15])([H:7])([H:8])[H:9]>>[C:1]([N+:2]1=[C:6]([H:14])[C:4]([O:5][H:13])([H:12])[C-:3]1[H:11])([H:7])([H:8])[H:9].[H:10][H:15]"
C       -1.87201325       0.05142350       0.50868891
N       -0.43999354       0.07958484       0.37618378
C        0.37348946      -1.00586672       0.00767274
C        1.50221259       0.03009704      -0.18330212
O        2.42691217       0.27422606       0.83308438
C        0.30119755       0.97261689      -0.39375695
H       -2.14307700      -0.69052149       1.25923313
H       -2.22407404       1.03784889       0.80898742
H       -2.35174154      -0.21596472      -0.44017022
H       -0.09252345      -0.88081421      -1.66184619
H        0.33265884      -2.02481871       0.36548316
H        2.07639612      -0.14120514      -1.09381618
H        1.95241803       0.27224651       1.66760179
H        0.28560665       2.04126168      -0.21134220
H       -0.12746859       0.19988559      -1.84270146
15
Frame=12 idx=002507 GeodesicLength=0.7352655187523552 rxn_smarts="[C:1]([N:2]1[C:3]([H:10])([H:11])[C:4]([O:5][H:13])([H:12])[C:6]1([H:14])[H:15])([H:7])([H:8])[H:9]>>[C:1]([N+:2]1=[C:6]([H:14])[C:4]([O:5][H:13])([H:12])[C-:3]1[H:11])([H:7])([H:8])[H:9].[H:10][H:15]"
C       -1.87075951       0.05185991       0.50726590
N       -0.43814017       0.08251499       0.38199074
C        0.37548257      -1.00582771       0.00588757
C        1.50337202       0.03319017      -0.17839635
O        2.42818916       0.28103016       0.83604760
C        0.30116201       0.97213227      -0.39953822
H       -2.14300953      -0.68811397       1.25940302
H       -2.22558295       1.03900711       0.80223290
H       -2.34867942      -0.21956409      -0.44160470
H       -0.10340293      -0.89751775      -1.65739651
H        0.33545876      -2.02796572       0.35456600
H        2.07739130      -0.14016396      -1.08907014
H        1.95553150       0.26819186       1.67148132
H        0.29255282       2.04018381      -0.21078004
H       -0.13956563       0.21104292      -1.84208911
15
Frame=13 idx=002507 GeodesicLength=0.7965232210305907 rxn_smarts="[C:1]([N:2]1[C:3]([H:10])([H:11])[C:4]([O:5][H:13])([H:12])[C:6]1([H:14])[H:15])([H:7])([H:8])[H:9]>>[C:1]([N+:2]1=[C:6]([H:14])[C:4]([O:5][H:13])([H:12])[C-:3]1[H:11])([H:7])([H:8])[H:9].[H:10][H:15]"
C       -1.86950620       0.05228099       0.50576211
N       -0.43633172       0.08543616       0.38764261
C        0.37748804      -1.00577922       0.00404448
C        1.50451711       0.03629180      -0.17350150
O        2.42943581       0.28780735       0.83901767
C        0.30117999       0.97164692      -0.40522234
H       -2.14295263      -0.68575645       1.25944394
H       -2.22704945       1.04010666       0.79547251
H       -2.34563864      -0.22309565      -0.44311360
H       -0.11437893      -0.91498318      -1.65263201
H        0.33841312      -2.03090744       0.34394611
H        2.07839034      -0.13906298      -1.08433023
H        1.95877132       0.26390754       1.67530569
H        0.29944425       2.03905953      -0.21029843
H       -0.15178241       0.22304797      -1.84153699
15
Frame=14 idx=002507 GeodesicLength=0.8577797372702701 rxn_smarts="[C:1]([N:2]1[C:3]([H:10])([H:11])[C:4]([O:5][H:13])([H:12])[C:6]1([H:14])[H:15])([H:7])([H:8])[H:9]>>[C:1]([N+:2]1=[C:6]([H:14])[C:4]([O:5][H:13])([H:12])[C-:3]1[H:11])([H:7])([H:8])[H:9].[H:10][H:15]"
C       -1.86825837       0.05268396       0.50416094
N       -0.43457097       0.08834669       0.39314072
C        0.37950667      -1.00572102       0.00214465
C        1.50564725       0.03939916      -0.16862842
O        2.43066145       0.29454804       0.84197721
C        0.30125447       0.97116817      -0.41080106
H       -2.14291926      -0.68345606       1.25933271
H       -2.22848357       1.04114428       0.78869072
H       -2.34261252      -0.22655776      -0.44472189
H       -0.12545810      -0.93328846      -1.64751295
H        0.34153923      -2.03363883       0.33367560
H        2.07938129      -0.13790363      -1.07961492
H        1.96215721       0.25939185       1.67905484
H        0.30628849       2.03789524      -0.20985756
H       -0.16413326       0.23598837      -1.84104058
15
Frame=15 idx=002507 GeodesicLength=0.9190355666785045 rxn_smarts="[C:1]([N:2]1[C:3]([H:10])([H:11])[C:4]([O:5][H:13])([H:12])[C:6]1([H:14])[H:15])([H:7])([H:8])[H:9]>>[C:1]([N+:2]1=[C:6]([H:14])[C:4]([O:5][H:13])([H:12])[C-:3]1[H:11])([H:7])([H:8])[H:9].[H:10][H:15]"
C       -1.86702117       0.05306562       0.50244421
N       -0.43286099       0.09124481       0.39848592
C        0.38153913      -1.00565265       0.00018869
C        1.50676189       0.04250963      -0.16378899
O        2.43187629       0.30124191       0.84490734
C        0.30138822       0.97070432      -0.41626534
H       -2.14292295      -0.68122002       1.25904463
H       -2.22989593       1.04211631       0.78186962
H       -2.33959365      -0.22994950      -0.44645635
H       -0.13664775      -0.95251893      -1.64199450
H        0.34485570      -2.03615411       0.32381123
H        2.08035123      -0.13668684      -1.07494436
H        1.96571023       0.25464077       1.68270738
H        0.31309345       2.03669729      -0.20941563
H       -0.17663370       0.24996138      -1.84059383
15
Frame=16 idx=002507 GeodesicLength=0.9802915535930691 rxn_smarts="[C:1]([N:2]1[C:3]([H:10])([H:11])[C:4]([O:5][H:13])([H:12])[C:6]1([H:14])[H:15])([H:7])([H:8])[H:9]>>[C:1]([N+:2]1=[C:6]([H:14])[C:4]([O:5][H:13])([H:12])[C-:3]1[H:11])([H:7])([H:8])[H:9].[H:10][H:15]"
C       -1.86580005       0.05342234       0.50059141
N       -0.43120531       0.09412842       0.40367855
C        0.38358595      -1.00557357      -0.00182312
C        1.50786053       0.04562037      -0.15899652
O        2.43309200       0.30787732       0.84778676
C        0.30158403       0.97026487      -0.42160471
H       -2.14297865      -0.67905678       1.25855162
H       -2.23129786       1.04301827       0.77498927
H       -2.33657351      -0.23326958      -0.44834700
H       -0.14795597      -0.97277099      -1.63602477
H        0.34838302      -2.03844640       0.31441634
H        2.08128562      -0.13541335      -1.07034133
H        1.96945336       0.24964916       1.68623979
H        0.31986769       2.03547202      -0.20892788
H       -0.18930084       0.26507790      -1.84018842
