13
Frame=0 idx=000103 GeodesicLength=0.0 rxn_smarts="[C:1]1([H:7])([H:8])[C@@:2]2([H:9])[C@:3]1([H:10])[C@@:4]1([H:11])[N:5]([H:12])[C@@:6]21[H:13]>>[C:1]1([H:7])([H:8])[C@@:2]2([H:9])[C@:3]1([H:10])[C:4]([H:11])([H:13])[N:5]([H:12])[C:6]2"
C        1.18375219      -0.45375967       0.57866814
C        0.70955772       0.85114417      -0.01030610
C        0.38039781      -0.45859250      -0.66880495
C       -1.14249097      -0.32461021      -0.47860088
N       -1.47067601       0.17838103       0.83095834
C       -0.76759918       1.28712132       0.20452392
H        2.24010692      -0.63953478       0.43831240
H        0.80628742      -0.84513569       1.51695623
H        1.41697580       1.57674537      -0.38142664
H        0.78754951      -0.79115667      -1.61326740
H       -1.89477051      -0.91995588      -0.98749085
H       -0.93417523      -0.28172500       1.55507917
H       -1.31491545       0.82107847      -0.98460141
13
Frame=1 idx=000103 GeodesicLength=0.06122448297791943 rxn_smarts="[C:1]1([H:7])([H:8])[C@@:2]2([H:9])[C@:3]1([H:10])[C@@:4]1([H:11])[N:5]([H:12])[C@@:6]21[H:13]>>[C:1]1([H:7])([H:8])[C@@:2]2([H:9])[C@:3]1([H:10])[C:4]([H:11])([H:13])[N:5]([H:12])[C:6]2"
C        1.18564268      -0.45467645       0.57591057
C        0.71242866       0.85110613      -0.01021224
C        0.38151094      -0.45808586      -0.67143853
C       -1.14070372      -0.32224427      -0.48217765
N       -1.46767564       0.18237105       0.82777237
C       -0.76184507       1.28613438       0.21001207
H        2.24188621      -0.64189581       0.43612774
H        0.80700523      -0.84588542       1.51370147
H        1.42070196       1.57652266      -0.38031873
H        0.78945474      -0.78971720      -1.61587479
H       -1.88678925      -0.93598938      -0.97745699
H       -0.95464135      -0.28142968       1.56532385
H       -1.32697540       0.83378985      -0.99136913
13
Frame=2 idx=000103 GeodesicLength=0.12246872960122374 rxn_smarts="[C:1]1([H:7])([H:8])[C@@:2]2([H:9])[C@:3]1([H:10])[C@@:4]1([H:11])[N:5]([H:12])[C@@:6]21[H:13]>>[C:1]1([H:7])([H:8])[C@@:2]2([H:9])[C@:3]1([H:10])[C:4]([H:11])([H:13])[N:5]([H:12])[C:6]2"
C        1.18760726      -0.45563985       0.57309871
C        0.71535584       0.85103013      -0.01014973
C        0.38268693      -0.45760091      -0.67412719
C       -1.13888446      -0.31991781      -0.48582004
N       -1.46454768       0.18620819       0.82461233
C       -0.75603813       1.28504154       0.21551732
H        2.24373860      -0.64430117       0.43388353
H        0.80774289      -0.84668317       1.51037634
H        1.42445551       1.57628100      -0.37925386
H        0.79141161      -0.78826357      -1.61855828
H       -1.87836963      -0.95200108      -0.96708712
H       -0.97581994      -0.28082722       1.57545314
H       -1.33933881       0.84667390      -0.99794515
13
Frame=3 idx=000103 GeodesicLength=0.18369837264510175 rxn_smarts="[C:1]1([H:7])([H:8])[C@@:2]2([H:9])[C@:3]1([H:10])[C@@:4]1([H:11])[N:5]([H:12])[C@@:6]21[H:13]>>[C:1]1([H:7])([H:8])[C@@:2]2([H:9])[C@:3]1([H:10])[C:4]([H:11])([H:13])[N:5]([H:12])[C:6]2"
C        1.18964628      -0.45664489       0.57022669
C        0.71834319       0.85091113      -0.01011838
C        0.38392345      -0.45713820      -0.67686189
C       -1.13703000      -0.31763883      -0.48951767
N       -1.46128118       0.18988238       0.82147831
C       -0.75016528       1.28382770       0.22104284
H        2.24565984      -0.64673796       0.43157179
H        0.80850832      -0.84752447       1.50696949
H        1.42823852       1.57601507      -0.37823335
H        0.79341280      -0.78679704      -1.62129984
H       -1.86950181      -0.96796983      -0.95637762
H       -0.99774490      -0.27990586       1.58542608
H       -1.35200922       0.85972081      -1.00430646
13
Frame=4 idx=000103 GeodesicLength=0.24490771773642878 rxn_smarts="[C:1]1([H:7])([H:8])[C@@:2]2([H:9])[C@:3]1([H:10])[C@@:4]1([H:11])[N:5]([H:12])[C@@:6]21[H:13]>>[C:1]1([H:7])([H:8])[C@@:2]2([H:9])[C@:3]1([H:10])[C:4]([H:11])([H:13])[N:5]([H:12])[C:6]2"
C        1.19177035      -0.45769276       0.56729433
C        0.72138919       0.85074328      -0.01011741
C        0.38522554      -0.45670734      -0.67963951
C       -1.13513522      -0.31542892      -0.49326507
N       -1.45786889       0.19337049       0.81837609
C       -0.74422951       1.28247677       0.22659345
H        2.24766115      -0.64919794       0.42918779
H        0.80932338      -0.84841601       1.50348160
H        1.43204083       1.57572438      -0.37726115
H        0.79545999      -0.78532497      -1.62409809
H       -1.86019041      -0.98384321      -0.94536748
H       -1.02044664      -0.27861614       1.59524999
H       -1.36499977       0.87291237      -1.01043453
13
Frame=5 idx=000103 GeodesicLength=0.3061288001887353 rxn_smarts="[C:1]1([H:7])([H:8])[C@@:2]2([H:9])[C@:3]1([H:10])[C@@:4]1([H:11])[N:5]([H:12])[C@@:6]21[H:13]>>[C:1]1([H:7])([H:8])[C@@:2]2([H:9])[C@:3]1([H:10])[C:4]([H:11])([H:13])[N:5]([H:12])[C:6]2"
C        1.19399650      -0.45878916       0.56430587
C        0.72449330       0.85052610      -0.01014746
C        0.38660105      -0.45631624      -0.68246178
C       -1.13319948      -0.31329552      -0.49705552
N       -1.45431183       0.19667104       0.81532474
C       -0.73823891       1.28098948       0.23217709
H        2.24976544      -0.65168588       0.42672945
H        0.81021555      -0.84936599       1.49992914
H        1.43585584       1.57541214      -0.37634778
H        0.79756287      -0.78386104      -1.62696326
H       -1.85043401      -0.99959689      -0.93407506
H       -1.04396901      -0.27694006       1.60490562
H       -1.37833730       0.88625201      -1.01632105
13
Frame=6 idx=000103 GeodesicLength=0.3673456429162064 rxn_smarts="[C:1]1([H:7])([H:8])[C@@:2]2([H:9])[C@:3]1([H:10])[C@@:4]1([H:11])[N:5]([H:12])[C@@:6]21[H:13]>>[C:1]1([H:7])([H:8])[C@@:2]2([H:9])[C@:3]1([H:10])[C:4]([H:11])([H:13])[N:5]([H:12])[C:6]2"
C        1.19633249      -0.45993297       0.56125783
C        0.72765846       0.85025427      -0.01020734
C        0.38805312      -0.45596915      -0.68532332
C       -1.13121679      -0.31125446      -0.50087758
N       -1.45059933       0.19976813       0.81233018
C       -0.73218716       1.27935036       0.23779743
H        2.25197873      -0.65419316       0.42418879
H        0.81120182      -0.85037766       1.49630633
H        1.43968221       1.57507606      -0.37549336
H        0.79972030      -0.78240593      -1.62988776
H       -1.84023426      -1.01520021      -0.92251876
H       -1.06835395      -0.27483831       1.61436903
H       -1.39203564       0.89972304      -1.02194146
13
Frame=7 idx=000103 GeodesicLength=0.42855780107862246 rxn_smarts="[C:1]1([H:7])([H:8])[C@@:2]2([H:9])[C@:3]1([H:10])[C@@:4]1([H:11])[N:5]([H:12])[C@@:6]21[H:13]>>[C:1]1([H:7])([H:8])[C@@:2]2([H:9])[C@:3]1([H:10])[C:4]([H:11])([H:13])[N:5]([H:12])[C:6]2"
C        1.19879058      -0.46112548       0.55814888
C        0.73088708       0.84992385      -0.01029603
C        0.38958767      -0.45567195      -0.68822108
C       -1.12918095      -0.30932096      -0.50471969
N       -1.44672219       0.20264833       0.80940385
C       -0.72607197       1.27754816       0.24345993
H        2.25431373      -0.65671529       0.42155845
H        0.81230460      -0.85145686       1.49261386
H        1.44351683       1.57471604      -0.37470060
H        0.80193510      -0.78096345      -1.63287052
H       -1.82959587      -1.03062394      -0.91072209
H       -1.09365025      -0.27227031       1.62361784
H       -1.40611434       0.91331186      -1.02727280
13
Frame=8 idx=000103 GeodesicLength=0.4897690727350798 rxn_smarts="[C:1]1([H:7])([H:8])[C@@:2]2([H:9])[C@:3]1([H:10])[C@@:4]1([H:11])[N:5]([H:12])[C@@:6]21[H:13]>>[C:1]1([H:7])([H:8])[C@@:2]2([H:9])[C@:3]1([H:10])[C:4]([H:11])([H:13])[N:5]([H:12])[C:6]2"
C        1.20138572      -0.46236878       0.55497821
C        0.73418265       0.84953058      -0.01041225
C        0.39121180      -0.45543035      -0.69115276
C       -1.12708638      -0.30751039      -0.50856939
N       -1.44267177       0.20529735       0.80655965
C       -0.71989196       1.27557128       0.24917071
H        2.25678728      -0.65924867       0.41883091
H        0.81354909      -0.85261120       1.48885427
H        1.44735804       1.57433209      -0.37397246
H        0.80421141      -0.77953607      -1.63591276
H       -1.81852639      -1.04584071      -0.89871098
H       -1.11991262      -0.26918968       1.63262789
H       -1.42059687       0.92700456      -1.03229104
13
Frame=9 idx=000103 GeodesicLength=0.5510419549764192 rxn_smarts="[C:1]1([H:7])([H:8])[C@@:2]2([H:9])[C@:3]1([H:10])[C@@:4]1([H:11])[N:5]([H:12])[C@@:6]21[H:13]>>[C:1]1([H:7])([H:8])[C@@:2]2([H:9])[C@:3]1([H:10])[C:4]([H:11])([H:13])[N:5]([H:12])[C:6]2"
C        1.20415281      -0.46367681       0.55175270
C        0.73754820       0.84907162      -0.01055875
C        0.39294733      -0.45525397      -0.69412846
C       -1.12493233      -0.30583541      -0.51242040
N       -1.43845844       0.20770365       0.80382707
C       -0.71366925       1.27341813       0.25493828
H        2.25945152      -0.66180665       0.41600222
H        0.81497760      -0.85386425       1.48505511
H        1.45120350       1.57392912      -0.37332491
H        0.80657980      -0.77812920      -1.63904503
H       -1.80704280      -1.06081888      -0.88652229
H       -1.14722333      -0.26553776       1.64141055
H       -1.43553461       0.94080042      -1.03698608
13
Frame=10 idx=000103 GeodesicLength=0.6122041601179161 rxn_smarts="[C:1]1([H:7])([H:8])[C@@:2]2([H:9])[C@:3]1([H:10])[C@@:4]1([H:11])[N:5]([H:12])[C@@:6]21[H:13]>>[C:1]1([H:7])([H:8])[C@@:2]2([H:9])[C@:3]1([H:10])[C:4]([H:11])([H:13])[N:5]([H:12])[C:6]2"
C        1.20705307      -0.46501971       0.54845145
C        0.74098148       0.84854359      -0.01072223
C        0.39475948      -0.45514334      -0.69710759
C       -1.12269404      -0.30431131      -0.51623382
N       -1.43402056       0.20985475       0.80119492
C       -0.70733757       1.27106001       0.26077872
H        2.26222469      -0.66434271       0.41305915
H        0.81657737      -0.85517223       1.48115919
H        1.45503831       1.57349903      -0.37272949
H        0.80897348      -0.77676811      -1.64217878
H       -1.79513029      -1.07554712      -0.87415802
H       -1.17554217      -0.26131448       1.64976488
H       -1.45088325       0.95466163      -1.04127836
13
Frame=11 idx=000103 GeodesicLength=0.6733397795754538 rxn_smarts="[C:1]1([H:7])([H:8])[C@@:2]2([H:9])[C@:3]1([H:10])[C@@:4]1([H:11])[N:5]([H:12])[C@@:6]21[H:13]>>[C:1]1([H:7])([H:8])[C@@:2]2([H:9])[C@:3]1([H:10])[C:4]([H:11])([H:13])[N:5]([H:12])[C:6]2"
C        1.21012624      -0.46641307       0.54506864
C        0.74450387       0.84793273      -0.01089940
C        0.39668181      -0.45509656      -0.70010768
C       -1.12035902      -0.30297126      -0.52000874
N       -1.42934114       0.21170335       0.79867068
C       -0.70090272       1.26846784       0.26668401
H        2.26516170      -0.66686207       0.40997126
H        0.81838607      -0.85658174       1.47715778
H        1.45888675       1.57303903      -0.37217693
H        0.81142292      -0.77538987      -1.64536187
H       -1.78281293      -1.09001894      -0.86163708
H       -1.20505989      -0.25635471       1.65778059
H       -1.46669365       0.96854528      -1.04514128
13
Frame=12 idx=000103 GeodesicLength=0.734533847336827 rxn_smarts="[C:1]1([H:7])([H:8])[C@@:2]2([H:9])[C@:3]1([H:10])[C@@:4]1([H:11])[N:5]([H:12])[C@@:6]21[H:13]>>[C:1]1([H:7])([H:8])[C@@:2]2([H:9])[C@:3]1([H:10])[C:4]([H:11])([H:13])[N:5]([H:12])[C:6]2"
C        1.21341850      -0.46787794       0.54162297
C        0.74811050       0.84724762      -0.01109576
C        0.39873569      -0.45513124      -0.70314233
C       -1.11793595      -0.30181104      -0.52373374
N       -1.42445087       0.21326314       0.79631797
C       -0.69440319       1.26566794       0.27268135
H        2.26833382      -0.66939632       0.40674851
H        0.82046491      -0.85811566       1.47311770
H        1.46273439       1.57256713      -0.37170312
H        0.81396651      -0.77404296      -1.64863560
H       -1.77010425      -1.10421489      -0.84900470
H       -1.23583109      -0.25064427       1.66539741
H       -1.48303896       0.98248851      -1.04857066
13
Frame=13 idx=000103 GeodesicLength=0.7957140058117608 rxn_smarts="[C:1]1([H:7])([H:8])[C@@:2]2([H:9])[C@:3]1([H:10])[C@@:4]1([H:11])[N:5]([H:12])[C@@:6]21[H:13]>>[C:1]1([H:7])([H:8])[C@@:2]2([H:9])[C@:3]1([H:10])[C:4]([H:11])([H:13])[N:5]([H:12])[C:6]2"
C        1.21693422      -0.46940428       0.53809712
C        0.75181096       0.84647472      -0.01130422
C        0.40092059      -0.45524548      -0.70619139
C       -1.11540510      -0.30084541      -0.52737797
N       -1.41930733       0.21450712       0.79414198
C       -0.68780680       1.26262603       0.27878312
H        2.27173205      -0.67192056       0.40336650
H        0.82283425      -0.85976304       1.46900085
H        1.46658125       1.57206602      -0.37129759
H        0.81658656      -0.77271567      -1.65196223
H       -1.75700775      -1.11812185      -0.83626136
H       -1.26794632      -0.24410958       1.67249495
H       -1.49992658       0.99645197      -1.05148976
13
Frame=14 idx=000103 GeodesicLength=0.8568956309569783 rxn_smarts="[C:1]1([H:7])([H:8])[C@@:2]2([H:9])[C@:3]1([H:10])[C@@:4]1([H:11])[N:5]([H:12])[C@@:6]21[H:13]>>[C:1]1([H:7])([H:8])[C@@:2]2([H:9])[C@:3]1([H:10])[C:4]([H:11])([H:13])[N:5]([H:12])[C:6]2"
C        1.22069651      -0.47099881       0.53448857
C        0.75561494       0.84561320      -0.01151817
C        0.40324615      -0.45544737      -0.70925684
C       -1.11275395      -0.30009924      -0.53092267
N       -1.41388424       0.21540303       0.79217549
C       -0.68110163       1.25932881       0.28500804
H        2.27537944      -0.67443084       0.39981013
H        0.82553237      -0.86154534       1.46481167
H        1.47042939       1.57154929      -0.37095519
H        0.81928348      -0.77140451      -1.65535643
H       -1.74354315      -1.13173936      -0.82343806
H       -1.30150678      -0.23664145       1.67900293
H       -1.51739254       1.01041260      -1.05384948
13
Frame=15 idx=000103 GeodesicLength=0.9180739890936295 rxn_smarts="[C:1]1([H:7])([H:8])[C@@:2]2([H:9])[C@:3]1([H:10])[C@@:4]1([H:11])[N:5]([H:12])[C@@:6]21[H:13]>>[C:1]1([H:7])([H:8])[C@@:2]2([H:9])[C@:3]1([H:10])[C:4]([H:11])([H:13])[N:5]([H:12])[C:6]2"
C        1.22473147      -0.47266597       0.53078863
C        0.75953227       0.84465569      -0.01173099
C        0.40572359      -0.45574011      -0.71233400
C       -1.10996897      -0.29958635      -0.53434138
N       -1.40815174       0.21592349       0.79045198
C       -0.67427544       1.25575703       0.29137858
H        2.27930210      -0.67692305       0.39605583
H        0.82860244      -0.86347587       1.46054251
H        1.47427827       1.57101495      -0.37067361
H        0.82205853      -0.77010337      -1.65881859
H       -1.72971592      -1.14507111      -0.81054034
H       -1.33664121      -0.22813363       1.68480235
H       -1.53547540       1.02434830      -1.05558099
13
Frame=16 idx=000103 GeodesicLength=0.9792524697794179 rxn_smarts="[C:1]1([H:7])([H:8])[C@@:2]2([H:9])[C@:3]1([H:10])[C@@:4]1([H:11])[N:5]([H:12])[C@@:6]21[H:13]>>[C:1]1([H:7])([H:8])[C@@:2]2([H:9])[C@:3]1([H:10])[C:4]([H:11])([H:13])[N:5]([H:12])[C:6]2"
C        1.22906968      -0.47441226       0.52698801
C        0.76357502       0.84359564      -0.01193474
C        0.40836538      -0.45612807      -0.71541976
C       -1.10703511      -0.29932433      -0.53760450
N       -1.40207325       0.21603346       0.78901432
C       -0.66731326       1.25189002       0.29792286
H        2.28353070      -0.67939314       0.39207585
H        0.83209460      -0.86557316       1.45618769
H        1.47812794       1.57046554      -0.37045043
H        0.82491178      -0.76880413      -1.66235487
H       -1.71553219      -1.15812663      -0.79757303
H       -1.37350254      -0.21845700       1.68975398
H       -1.55421877       1.03823407      -1.05660539
