13
Frame=0 idx=000520 GeodesicLength=0.0 rxn_smarts="[C:1]1([H:6])([H:7])[C:2]([H:8])([H:9])[C:3]([H:10])([H:11])[O:4][C:5]1([H:12])[H:13]>>[C:1]1([H:6])=[C:5]([H:12])[O:4][C:3]([H:10])([H:11])[C:2]1([H:8])[H:9].[H:7][H:13]"
C        0.67139515       0.62971744      -0.01389596
C       -0.84272089       0.85244437       0.05935503
C       -1.27522406      -0.55471682      -0.36715904
O       -0.28865578      -1.46262908       0.17688514
C        0.84080851      -0.72955178       0.39885189
H        1.08140690       0.92960994      -0.96913692
H        2.09317147       0.58398109       0.34886576
H       -1.21462351       1.61878076      -0.61899099
H       -1.18740461       1.07400100       1.07111397
H       -2.23462857      -0.85956460       0.04644170
H       -1.29805529      -0.66844862      -1.45560598
H        1.32125114      -1.04694979       1.31240635
H        2.33327954      -0.36667395       0.01086904
13
Frame=1 idx=000520 GeodesicLength=0.05331728098768771 rxn_smarts="[C:1]1([H:6])([H:7])[C:2]([H:8])([H:9])[C:3]([H:10])([H:11])[O:4][C:5]1([H:12])[H:13]>>[C:1]1([H:6])=[C:5]([H:12])[O:4][C:3]([H:10])([H:11])[C:2]1([H:8])[H:9].[H:7][H:13]"
C        0.67134858       0.62759077      -0.01860819
C       -0.84143042       0.85084472       0.05401831
C       -1.28179157      -0.55620604      -0.36360556
O       -0.28837449      -1.46524474       0.16203810
C        0.84272800      -0.73290072       0.38888977
H        1.08326620       0.93087294      -0.97254374
H        2.09876105       0.60160373       0.36500235
H       -1.21508578       1.61437464      -0.62677873
H       -1.18212825       1.08114238       1.06523342
H       -2.23712018      -0.85757730       0.06224276
H       -1.32229297      -0.67065871      -1.45152803
H        1.31662069      -1.06511805       1.30131272
H        2.35549914      -0.35872364       0.03432681
13
Frame=2 idx=000520 GeodesicLength=0.10660899442903447 rxn_smarts="[C:1]1([H:6])([H:7])[C:2]([H:8])([H:9])[C:3]([H:10])([H:11])[O:4][C:5]1([H:12])[H:13]>>[C:1]1([H:6])=[C:5]([H:12])[O:4][C:3]([H:10])([H:11])[C:2]1([H:8])[H:9].[H:7][H:13]"
C        0.67138599       0.62542107      -0.02349518
C       -0.84006319       0.84922824       0.04852999
C       -1.28833757      -0.55768366      -0.35992708
O       -0.28812391      -1.46779453       0.14680107
C        0.84470512      -0.73633116       0.37857796
H        1.08521657       0.93215436      -0.97608641
H        2.10395482       0.61946071       0.38145965
H       -1.21549217       1.60987180      -0.63477151
H       -1.17670048       1.08840596       1.05910469
H       -2.23924906      -0.85558895       0.07849572
H       -1.34691109      -0.67282627      -1.44701843
H        1.31221045      -1.08360418       1.28941636
H        2.37740452      -0.35071340       0.05891317
13
Frame=3 idx=000520 GeodesicLength=0.15989376523399954 rxn_smarts="[C:1]1([H:6])([H:7])[C:2]([H:8])([H:9])[C:3]([H:10])([H:11])[O:4][C:5]1([H:12])[H:13]>>[C:1]1([H:6])=[C:5]([H:12])[O:4][C:3]([H:10])([H:11])[C:2]1([H:8])[H:9].[H:7][H:13]"
C        0.67151175       0.62321182      -0.02855846
C       -0.83861644       0.84759582       0.04288650
C       -1.29485268      -0.55914844      -0.35611652
O       -0.28790716      -1.47026889       0.13116786
C        0.84674063      -0.73984076       0.36790621
H        1.08725448       0.93346232      -0.97976790
H        2.10874083       0.63755369       0.39822841
H       -1.21584357       1.60526675      -0.64297589
H       -1.17111952       1.09579591       1.05271851
H       -2.24098712      -0.85360034       0.09521020
H       -1.37190279      -0.67495001      -1.44205057
H        1.30803102      -1.10241188       1.27668795
H        2.39895056      -0.34266599       0.08466369
13
Frame=4 idx=000520 GeodesicLength=0.21316892926214565 rxn_smarts="[C:1]1([H:6])([H:7])[C:2]([H:8])([H:9])[C:3]([H:10])([H:11])[O:4][C:5]1([H:12])[H:13]>>[C:1]1([H:6])=[C:5]([H:12])[O:4][C:3]([H:10])([H:11])[C:2]1([H:8])[H:9].[H:7][H:13]"
C        0.67173129       0.62096549      -0.03380100
C       -0.83708601       0.84594854       0.03708311
C       -1.30132726      -0.56059863      -0.35216455
O       -0.28773085      -1.47265791       0.11513261
C        0.84883508      -0.74342892       0.35686209
H        1.08937785       0.93480128      -0.98359314
H        2.11309679       0.65588620       0.41530038
H       -1.21613942       1.60055304      -0.65140082
H       -1.16538064       1.10331939       1.04606243
H       -2.24230260      -0.85160984       0.11239921
H       -1.39726455      -0.67702907      -1.43659402
H        1.30410343      -1.12155203       1.26308051
H        2.42008688      -0.33459753       0.11163320
13
Frame=5 idx=000520 GeodesicLength=0.26645763451653565 rxn_smarts="[C:1]1([H:6])([H:7])[C:2]([H:8])([H:9])[C:3]([H:10])([H:11])[O:4][C:5]1([H:12])[H:13]>>[C:1]1([H:6])=[C:5]([H:12])[O:4][C:3]([H:10])([H:11])[C:2]1([H:8])[H:9].[H:7][H:13]"
C        0.67204859       0.61868387      -0.03922580
C       -0.83546871       0.84428670       0.03111688
C       -1.30775291      -0.56203270      -0.34806360
O       -0.28760254      -1.47495350       0.09869563
C        0.85098912      -0.74709539       0.34542781
H        1.09158230       0.93618012      -0.98756612
H        2.11701287       0.67446072       0.43266038
H       -1.21638073       1.59572510      -0.66005142
H       -1.15947997       1.11097947       1.03912881
H       -2.24317139      -0.84961529       0.13006689
H       -1.42298732      -0.67906382      -1.43061915
H        1.30044410      -1.14102623       1.24856128
H        2.44076661      -0.32652905       0.13986840
13
Frame=6 idx=000520 GeodesicLength=0.3197370201590171 rxn_smarts="[C:1]1([H:6])([H:7])[C:2]([H:8])([H:9])[C:3]([H:10])([H:11])[O:4][C:5]1([H:12])[H:13]>>[C:1]1([H:6])=[C:5]([H:12])[O:4][C:3]([H:10])([H:11])[C:2]1([H:8])[H:9].[H:7][H:13]"
C        0.67246845       0.61637389      -0.04483744
C       -0.83376171       0.84261277       0.02498120
C       -1.31411698      -0.56344880      -0.34380193
O       -0.28752939      -1.47714062       0.08185381
C        0.85320631      -0.75083726       0.33358055
H        1.09386673       0.93760830      -0.99169241
H        2.12046486       0.69327684       0.45029863
H       -1.21657013       1.59077483      -0.66894029
H       -1.15341425       1.11878572       1.03190186
H       -2.24355106      -0.84761553       0.14823012
H       -1.44906800      -0.68105486      -1.42408721
H        1.29708907      -1.16084305       1.23306206
H        2.46091609      -0.31849221       0.16945107
13
Frame=7 idx=000520 GeodesicLength=0.3729989587275733 rxn_smarts="[C:1]1([H:6])([H:7])[C:2]([H:8])([H:9])[C:3]([H:10])([H:11])[O:4][C:5]1([H:12])[H:13]>>[C:1]1([H:6])=[C:5]([H:12])[O:4][C:3]([H:10])([H:11])[C:2]1([H:8])[H:9].[H:7][H:13]"
C        0.67299505       0.61404184      -0.05064023
C       -0.83196191       0.84092923       0.01867058
C       -1.32040769      -0.56484497      -0.33936799
O       -0.28752032      -1.47920618       0.06460941
C        0.85548979      -0.75465138       0.32129515
H        1.09622845       0.93909745      -0.99597707
H        2.12343444       0.71233295       0.46819791
H       -1.21671136       1.58569434      -0.67807678
H       -1.14718075       1.12674521       1.02436878
H       -2.24340350      -0.84560814       0.16689908
H       -1.47549746      -0.68300403      -1.41695955
H        1.29407580      -1.18100252       1.21651905
H        2.48045945      -0.31052382       0.20046166
13
Frame=8 idx=000520 GeodesicLength=0.4263171623613651 rxn_smarts="[C:1]1([H:6])([H:7])[C:2]([H:8])([H:9])[C:3]([H:10])([H:11])[O:4][C:5]1([H:12])[H:13]>>[C:1]1([H:6])=[C:5]([H:12])[O:4][C:3]([H:10])([H:11])[C:2]1([H:8])[H:9].[H:7][H:13]"
C        0.67362935       0.61169173      -0.05664192
C       -0.83007037       0.83923582       0.01218355
C       -1.32661846      -0.56621971      -0.33475623
O       -0.28758070      -1.48114280       0.04696787
C        0.85784210      -0.75853318       0.30855024
H        1.09865924       0.94066025      -1.00042867
H        2.12593687       0.73163821       0.48633582
H       -1.21681151       1.58047851      -0.68746234
H       -1.14077700       1.13485871       1.01652428
H       -2.24271363      -0.84359149       0.18607276
H       -1.50226311      -0.68491291      -1.40920462
H        1.29142792      -1.20149804       1.19889763
H        2.49933931      -0.30266509       0.23296165
13
Frame=9 idx=000520 GeodesicLength=0.47944802146452226 rxn_smarts="[C:1]1([H:6])([H:7])[C:2]([H:8])([H:9])[C:3]([H:10])([H:11])[O:4][C:5]1([H:12])[H:13]>>[C:1]1([H:6])=[C:5]([H:12])[O:4][C:3]([H:10])([H:11])[C:2]1([H:8])[H:9].[H:7][H:13]"
C        0.67438026       0.60934166      -0.06283865
C       -0.82808467       0.83753020       0.00552747
C       -1.33271365      -0.56757810      -0.32995748
O       -0.28769221      -1.48293348       0.02893129
C        0.86029254      -0.76246861       0.29531948
H        1.10115149       0.94232817      -1.00504330
H        2.12801965       0.75110079       0.50464607
H       -1.21688340       1.57511510      -0.69708550
H       -1.13420865       1.14311172       1.00837062
H       -2.24142026      -0.84157612       0.20572602
H       -1.52933098      -0.68677570      -1.40077806
H        1.28912805      -1.22223553       1.18019231
H        2.51736183      -0.29496011       0.26698973
13
Frame=10 idx=000520 GeodesicLength=0.5325387817813027 rxn_smarts="[C:1]1([H:6])([H:7])[C:2]([H:8])([H:9])[C:3]([H:10])([H:11])[O:4][C:5]1([H:12])[H:13]>>[C:1]1([H:6])=[C:5]([H:12])[O:4][C:3]([H:10])([H:11])[C:2]1([H:8])[H:9].[H:7][H:13]"
C        0.67525295       0.60699030      -0.06925438
C       -0.82599598       0.83582070      -0.00131891
C       -1.33869157      -0.56891143      -0.32494672
O       -0.28788972      -1.48456353       0.01049999
C        0.86282870      -0.76646380       0.28154878
H        1.10370800       0.94409825      -1.00984740
H        2.12959842       0.77079932       0.52314603
H       -1.21692459       1.56959460      -0.70698007
H       -1.12745297       1.15153861       0.99987447
H       -2.23947705      -0.83954707       0.22592128
H       -1.55671473      -0.68860401      -1.39162304
H        1.28728049      -1.24330449       1.16023625
H        2.53447805      -0.28744746       0.30274371
13
Frame=11 idx=000520 GeodesicLength=0.5856304722131354 rxn_smarts="[C:1]1([H:6])([H:7])[C:2]([H:8])([H:9])[C:3]([H:10])([H:11])[O:4][C:5]1([H:12])[H:13]>>[C:1]1([H:6])=[C:5]([H:12])[O:4][C:3]([H:10])([H:11])[C:2]1([H:8])[H:9].[H:7][H:13]"
C        0.67624995       0.60464382      -0.07589435
C       -0.82380350       0.83410812      -0.00835551
C       -1.34453807      -0.57021843      -0.31971106
O       -0.28817459      -1.48602411      -0.00832323
C        0.86545552      -0.77051099       0.26721769
H        1.10632019       0.94598225      -1.01484912
H        2.13069418       0.79072899       0.54179397
H       -1.21694223       1.56390829      -0.71714828
H       -1.12050746       1.16014157       0.99102899
H       -2.23685286      -0.83750221       0.24666210
H       -1.58439139      -0.69040021      -1.38170168
H        1.28589799      -1.26469548       1.13898275
H        2.55059225      -0.28016162       0.34029774
13
Frame=12 idx=000520 GeodesicLength=0.6386934850490376 rxn_smarts="[C:1]1([H:6])([H:7])[C:2]([H:8])([H:9])[C:3]([H:10])([H:11])[O:4][C:5]1([H:12])[H:13]>>[C:1]1([H:6])=[C:5]([H:12])[O:4][C:3]([H:10])([H:11])[C:2]1([H:8])[H:9].[H:7][H:13]"
C        0.67737990       0.60230825      -0.08277639
C       -0.82149940       0.83239411      -0.01558958
C       -1.35023347      -0.57149796      -0.31423072
O       -0.28855579      -1.48730223      -0.02753916
C        0.86818370      -0.77460807       0.25227228
H        1.10898448       0.94799512      -1.02006724
H        2.13130157       0.81088251       0.56054765
H       -1.21694287       1.55804327      -0.72759875
H       -1.11335546       1.16893020       0.98181851
H       -2.23348546      -0.83543654       0.26797838
H       -1.61234965      -0.69216694      -1.37095709
H        1.28501970      -1.28640713       1.11633115
H        2.56555274      -0.27313460       0.37981096
13
Frame=13 idx=000520 GeodesicLength=0.6917681528487056 rxn_smarts="[C:1]1([H:6])([H:7])[C:2]([H:8])([H:9])[C:3]([H:10])([H:11])[O:4][C:5]1([H:12])[H:13]>>[C:1]1([H:6])=[C:5]([H:12])[O:4][C:3]([H:10])([H:11])[C:2]1([H:8])[H:9].[H:7][H:13]"
C        0.67864690       0.59998791      -0.08991189
C       -0.81908042       0.83067905      -0.02301975
C       -1.35576249      -0.57274860      -0.30849095
O       -0.28903694      -1.48839198      -0.04713616
C        0.87102077      -0.77874892       0.23667507
H        1.11169091       0.95015258      -1.02551549
H        2.13145023       0.83125448       0.57935060
H       -1.21693500       1.55199048      -0.73832866
H       -1.10598798       1.17790383       0.97223924
H       -2.22934333      -0.83334569       0.28986809
H       -1.64056065      -0.69390767      -1.35934337
H        1.28467631      -1.30841540       1.09222283
H        2.57922169      -0.26641007       0.42139045
13
Frame=14 idx=000520 GeodesicLength=0.7448174851245531 rxn_smarts="[C:1]1([H:6])([H:7])[C:2]([H:8])([H:9])[C:3]([H:10])([H:11])[O:4][C:5]1([H:12])[H:13]>>[C:1]1([H:6])=[C:5]([H:12])[O:4][C:3]([H:10])([H:11])[C:2]1([H:8])[H:9].[H:7][H:13]"
C        0.68006130       0.59769548      -0.09733136
C       -0.81653798       0.82896650      -0.03065616
C       -1.36109557      -0.57396959      -0.30246178
O       -0.28962112      -1.48927465      -0.06711738
C        0.87398637      -0.78292376       0.22035280
H        1.11443403       0.95247775      -1.03122594
H        2.13115261       0.85183312       0.59814689
H       -1.21693266       1.54573297      -0.74934977
H       -1.09838304       1.18707648       0.96227249
H       -2.22434677      -0.83122657       0.31237284
H       -1.66901594      -0.69562891      -1.34678527
H        1.28493128      -1.33071307       1.06651705
H        2.59136750      -0.26004574       0.46526559
13
Frame=15 idx=000520 GeodesicLength=0.7978587873884325 rxn_smarts="[C:1]1([H:6])([H:7])[C:2]([H:8])([H:9])[C:3]([H:10])([H:11])[O:4][C:5]1([H:12])[H:13]>>[C:1]1([H:6])=[C:5]([H:12])[O:4][C:3]([H:10])([H:11])[C:2]1([H:8])[H:9].[H:7][H:13]"
C        0.68163075       0.59544242      -0.10506582
C       -0.81386598       0.82725841      -0.03850072
C       -1.36620803      -0.57516036      -0.29612037
O       -0.29030580      -1.48994058      -0.08747518
C        0.87709997      -0.78711900       0.20323753
H        1.11720057       0.95499622      -1.03723286
H        2.13045955       0.87260590       0.61685743
H       -1.21695350       1.53925895      -0.76065773
H       -1.09051931       1.19645016       0.95191205
H       -2.21843516      -0.82907700       0.33551160
H       -1.69768815      -0.69733749      -1.33321703
H        1.28583940      -1.35326853       1.03911061
H        2.60174570      -0.25410910       0.51164049
13
Frame=16 idx=000520 GeodesicLength=0.8508816397203955 rxn_smarts="[C:1]1([H:6])([H:7])[C:2]([H:8])([H:9])[C:3]([H:10])([H:11])[O:4][C:5]1([H:12])[H:13]>>[C:1]1([H:6])=[C:5]([H:12])[O:4][C:3]([H:10])([H:11])[C:2]1([H:8])[H:9].[H:7][H:13]"
C        0.68336837       0.59324346      -0.11316311
C       -0.81105296       0.82555858      -0.04656243
C       -1.37106561      -0.57632096      -0.28943047
O       -0.29108662      -1.49037494      -0.10821060
C        0.88038979      -0.79131958       0.18523060
H        1.11997984       0.95774060      -1.04358620
H        2.12942117       0.89355276       0.63539347
H       -1.21701791       1.53255097      -0.77225705
H       -1.08236160       1.20603752       0.94114314
H       -2.21152139      -0.82689453       0.35933011
H       -1.72656510      -0.69904389      -1.31854504
H        1.28748895      -1.37605649       1.00983744
H        2.61002308      -0.24867352       0.56082012
