16
Frame=0 idx=001924 GeodesicLength=0.0 rxn_smarts="[C:1]([C:2]([C@@:3]1([H:12])[C:4]([H:13])([H:14])[C:5]([H:15])([H:16])[O:6]1)([H:10])[H:11])([H:7])([H:8])[H:9]>>[C:1]([C:2]([C@@:3]([C:4][H:13])([O:6][C:5]([H:14])([H:15])[H:16])[H:12])([H:10])[H:11])([H:7])([H:8])[H:9]"
C        2.26479961      -0.02710820      -0.33562596
C        1.09982445       0.51067780       0.48929922
C       -0.23118132       0.30762387      -0.20208520
C       -0.56006312      -1.16704274      -0.44045391
C       -2.38868454       0.00229279       0.12992614
O       -1.31312914       0.77053263       0.59832710
H        2.17535967      -1.10296045      -0.50246749
H        2.30808999       0.45295026      -1.31548021
H        3.21433135       0.15405180       0.16896629
H        1.05893158       0.02063831       1.46635419
H        1.22546176       1.58084257       0.67496486
H       -0.23930509       0.85903654      -1.15402584
H       -0.58442537      -1.59618619       0.58104938
H       -2.02865679      -0.94346535      -0.45651954
H       -3.03012444      -0.33862859       0.94203441
H       -2.97122861       0.51674490      -0.64426340
16
Frame=1 idx=001924 GeodesicLength=0.07028045403242887 rxn_smarts="[C:1]([C:2]([C@@:3]1([H:12])[C:4]([H:13])([H:14])[C:5]([H:15])([H:16])[O:6]1)([H:10])[H:11])([H:7])([H:8])[H:9]>>[C:1]([C:2]([C@@:3]([C:4][H:13])([O:6][C:5]([H:14])([H:15])[H:16])[H:12])([H:10])[H:11])([H:7])([H:8])[H:9]"
C        2.26739140      -0.02084824      -0.33992433
C        1.09861788       0.50132528       0.48868209
C       -0.23206689       0.30834764      -0.20741282
C       -0.56025990      -1.16835395      -0.40490462
C       -2.38663565       0.00569661       0.12434570
O       -1.31530278       0.78975279       0.57999354
H        2.18073859      -1.09432781      -0.52244991
H        2.31356045       0.47396186      -1.31225599
H        3.21486512       0.15454738       0.17061537
H        1.05663935      -0.00558277       1.45777078
H        1.21881610       1.56867601       0.69265584
H       -0.23147623       0.83962863      -1.17019655
H       -0.59051463      -1.58785779       0.61922675
H       -2.03486960      -0.94661405      -0.48650931
H       -3.01389230      -0.34033878       0.94580495
H       -2.98561091       0.52198720      -0.63544150
16
Frame=2 idx=001924 GeodesicLength=0.14043244887779066 rxn_smarts="[C:1]([C:2]([C@@:3]1([H:12])[C:4]([H:13])([H:14])[C:5]([H:15])([H:16])[O:6]1)([H:10])[H:11])([H:7])([H:8])[H:9]>>[C:1]([C:2]([C@@:3]([C:4][H:13])([O:6][C:5]([H:14])([H:15])[H:16])[H:12])([H:10])[H:11])([H:7])([H:8])[H:9]"
C        2.26964474      -0.01506239      -0.34376016
C        1.09726487       0.49233099       0.48796728
C       -0.23296941       0.30937837      -0.21292316
C       -0.56114424      -1.16808342      -0.37078076
C       -2.38441557       0.00879785       0.11907666
O       -1.31737674       0.80865823       0.56142268
H        2.18516107      -1.08595959      -0.54152563
H        2.31891996       0.49398989      -1.30852546
H        3.21509150       0.15420107       0.17263445
H        1.05411599      -0.03068557       1.44912363
H        1.21217302       1.55662344       0.70961927
H       -0.22386057       0.82074712      -1.18583395
H       -0.59557527      -1.57908489       0.65547321
H       -2.03983127      -0.94992847      -0.51594935
H       -2.99708336      -0.34209817       0.94990960
H       -3.00011472       0.52617553      -0.62592831
16
Frame=3 idx=001924 GeodesicLength=0.21053515079967888 rxn_smarts="[C:1]([C:2]([C@@:3]1([H:12])[C:4]([H:13])([H:14])[C:5]([H:15])([H:16])[O:6]1)([H:10])[H:11])([H:7])([H:8])[H:9]>>[C:1]([C:2]([C@@:3]([C:4][H:13])([O:6][C:5]([H:14])([H:15])[H:16])[H:12])([H:10])[H:11])([H:7])([H:8])[H:9]"
C        2.27161779      -0.00966812      -0.34719415
C        1.09576614       0.48362858       0.48718340
C       -0.23388986       0.31063424      -0.21860693
C       -0.56263954      -1.16643417      -0.33801737
C       -2.38207539       0.01169428       0.11411391
O       -1.31936161       0.82724843       0.54262153
H        2.18880363      -1.07779562      -0.55985998
H        2.32419397       0.51322663      -1.30432917
H        3.21505583       0.15313043       0.17498371
H        1.05140424      -0.05484253       1.44044051
H        1.20545175       1.54464990       0.72598326
H       -0.21644458       0.80229173      -1.20099737
H       -0.59970930      -1.57000285       0.68994099
H       -2.04369517      -0.95351159      -0.54475220
H       -2.97983403      -0.34363333       0.95434862
H       -3.01464387       0.52938398      -0.61585874
16
Frame=4 idx=001924 GeodesicLength=0.28063600845382586 rxn_smarts="[C:1]([C:2]([C@@:3]1([H:12])[C:4]([H:13])([H:14])[C:5]([H:15])([H:16])[O:6]1)([H:10])[H:11])([H:7])([H:8])[H:9]>>[C:1]([C:2]([C@@:3]([C:4][H:13])([O:6][C:5]([H:14])([H:15])[H:16])[H:12])([H:10])[H:11])([H:7])([H:8])[H:9]"
C        2.27336666      -0.00457801      -0.35028358
C        1.09412652       0.47514953       0.48635242
C       -0.23482601       0.31202231      -0.22445997
C       -0.56467524      -1.16362105      -0.30652459
C       -2.37966606       0.01447973       0.10944316
O       -1.32125940       0.84552547       0.52357388
H        2.19182573      -1.06975465      -0.57765479
H        2.32940116       0.53189698      -1.29967354
H        3.21480578       0.15143230       0.17763885
H        1.04856420      -0.07822208       1.43172946
H        1.19857741       1.53270422       0.74187674
H       -0.20921900       0.78411587      -1.21575555
H       -0.60302971      -1.56072488       0.72283079
H       -2.04658772      -0.95745022      -0.57285947
H       -2.96227256      -0.34469327       0.95912189
H       -3.02913177       0.53171776      -0.60535568
16
Frame=5 idx=001924 GeodesicLength=0.3506686203607884 rxn_smarts="[C:1]([C:2]([C@@:3]1([H:12])[C:4]([H:13])([H:14])[C:5]([H:15])([H:16])[O:6]1)([H:10])[H:11])([H:7])([H:8])[H:9]>>[C:1]([C:2]([C@@:3]([C:4][H:13])([O:6][C:5]([H:14])([H:15])[H:16])[H:12])([H:10])[H:11])([H:7])([H:8])[H:9]"
C        2.27488533       0.00030044      -0.35306757
C        1.09233931       0.46681920       0.48545110
C       -0.23574821       0.31346051      -0.23045047
C       -0.56723688      -1.15969655      -0.27611828
C       -2.37715099       0.01717096       0.10506206
O       -1.32301232       0.86343583       0.50422875
H        2.19425709      -1.06167320      -0.59499530
H        2.33456713       0.55015153      -1.29450531
H        3.21429095       0.14921301       0.18050868
H        1.04557804      -0.10095744       1.42290522
H        1.19152340       1.52066960       0.75731691
H       -0.20208074       0.76607144      -1.23006813
H       -0.60577271      -1.55122296       0.75423016
H       -2.04864293      -0.96176249      -0.60023074
H       -2.94443570      -0.34516638       0.96416293
H       -3.04336077       0.53318649      -0.59443001
16
Frame=6 idx=001924 GeodesicLength=0.4207317350319283 rxn_smarts="[C:1]([C:2]([C@@:3]1([H:12])[C:4]([H:13])([H:14])[C:5]([H:15])([H:16])[O:6]1)([H:10])[H:11])([H:7])([H:8])[H:9]>>[C:1]([C:2]([C@@:3]([C:4][H:13])([O:6][C:5]([H:14])([H:15])[H:16])[H:12])([H:10])[H:11])([H:7])([H:8])[H:9]"
C        2.27624186       0.00499731      -0.35557780
C        1.09041811       0.45861944       0.48452175
C       -0.23667880       0.31490977      -0.23658874
C       -0.57023085      -1.15486795      -0.24682549
C       -2.37460807       0.01985390       0.10096996
O       -1.32465912       0.88100487       0.48463468
H        2.19629132      -1.05359308      -0.61195501
H        2.33965531       0.56805375      -1.28890584
H        3.21360752       0.14657283       0.18359561
H        1.04252847      -0.12313811       1.41404600
H        1.18423009       1.50858300       0.77241758
H       -0.19510227       0.74813415      -1.24402416
H       -0.60792213      -1.54166302       0.78426066
H       -2.04995333      -0.96653799      -0.62689906
H       -2.92643942      -0.34489399       0.96952167
H       -3.05737868       0.53396512      -0.58319181
16
Frame=7 idx=001924 GeodesicLength=0.4908187146095008 rxn_smarts="[C:1]([C:2]([C@@:3]1([H:12])[C:4]([H:13])([H:14])[C:5]([H:15])([H:16])[O:6]1)([H:10])[H:11])([H:7])([H:8])[H:9]>>[C:1]([C:2]([C@@:3]([C:4][H:13])([O:6][C:5]([H:14])([H:15])[H:16])[H:12])([H:10])[H:11])([H:7])([H:8])[H:9]"
C        2.27744674       0.00956321      -0.35783554
C        1.08836147       0.45051627       0.48355904
C       -0.23760748       0.31632551      -0.24286581
C       -0.57361936      -1.14922184      -0.21857551
C       -2.37203623       0.02255888       0.09717419
O       -1.32617814       0.89821114       0.46478421
H        2.19799559      -1.04545606      -0.62855881
H        2.34465680       0.58566715      -1.28288059
H        3.21274873       0.14360805       0.18685890
H        1.03941964      -0.14484624       1.40512421
H        1.17667299       1.49640531       0.78719989
H       -0.18824929       0.73024022      -1.25762876
H       -0.60958949      -1.53209516       0.81299033
H       -2.05059936      -0.97181309      -0.65288124
H       -2.90832661      -0.34380766       0.97518888
H       -3.07109600       0.53414430      -0.57165341
16
Frame=8 idx=001924 GeodesicLength=0.5609488888334367 rxn_smarts="[C:1]([C:2]([C@@:3]1([H:12])[C:4]([H:13])([H:14])[C:5]([H:15])([H:16])[O:6]1)([H:10])[H:11])([H:7])([H:8])[H:9]>>[C:1]([C:2]([C@@:3]([C:4][H:13])([O:6][C:5]([H:14])([H:15])[H:16])[H:12])([H:10])[H:11])([H:7])([H:8])[H:9]"
C        2.27852113       0.01403362      -0.35985934
C        1.08617760       0.44248530       0.48257117
C       -0.23853725       0.31767206      -0.24927915
C       -0.57735855      -1.14285061      -0.19130939
C       -2.36945293       0.02531888       0.09367603
O       -1.32756614       0.91505802       0.44467703
H        2.19945243      -1.03723265      -0.64484226
H        2.34955452       0.60304464      -1.27644593
H        3.21173465       0.14039000       0.19027781
H        1.03628989      -0.16615231       1.39614287
H        1.16882791       1.48412329       0.80170471
H       -0.18153062       0.71233665      -1.27090947
H       -0.61083666      -1.52257972       0.84049060
H       -2.05065954      -0.97762415      -0.67821640
H       -2.89013651      -0.34184634       0.98116191
H       -3.08447993       0.53382333      -0.55984018
16
Frame=9 idx=001924 GeodesicLength=0.6310863262594738 rxn_smarts="[C:1]([C:2]([C@@:3]1([H:12])[C:4]([H:13])([H:14])[C:5]([H:15])([H:16])[O:6]1)([H:10])[H:11])([H:7])([H:8])[H:9]>>[C:1]([C:2]([C@@:3]([C:4][H:13])([O:6][C:5]([H:14])([H:15])[H:16])[H:12])([H:10])[H:11])([H:7])([H:8])[H:9]"
C        2.27947970       0.01847394      -0.36165950
C        1.08385992       0.43448655       0.48152957
C       -0.23945199       0.31888317      -0.25582170
C       -0.58144462      -1.13584499      -0.16498615
C       -2.36686038       0.02817170       0.09048535
O       -1.32879179       0.93148162       0.42427468
H        2.20070945      -1.02883346      -0.66086478
H        2.35435614       0.62029656      -1.26955524
H        3.21057264       0.13700109       0.19384045
H        1.03311775      -0.18712484       1.38700688
H        1.16067421       1.47164296       0.81593323
H       -0.17489766       0.69430471      -1.28384009
H       -0.61176010      -1.51311628       0.86685106
H       -2.05016675      -0.98403247      -0.70288454
H       -2.87192388      -0.33890908       0.98743234
H       -3.09747264       0.53311883      -0.54774157
16
Frame=10 idx=001924 GeodesicLength=0.7012925211482057 rxn_smarts="[C:1]([C:2]([C@@:3]1([H:12])[C:4]([H:13])([H:14])[C:5]([H:15])([H:16])[O:6]1)([H:10])[H:11])([H:7])([H:8])[H:9]>>[C:1]([C:2]([C@@:3]([C:4][H:13])([O:6][C:5]([H:14])([H:15])[H:16])[H:12])([H:10])[H:11])([H:7])([H:8])[H:9]"
C        2.28033034       0.02288500      -0.36326540
C        1.08141063       0.42649637       0.48046820
C       -0.24036177       0.31996128      -0.26249326
C       -0.58581541      -1.12821074      -0.13946852
C       -2.36425605       0.03111242       0.08759959
O       -1.32987348       0.94755380       0.40358493
H        2.20184614      -1.02025535      -0.67662660
H        2.35903783       0.63740156      -1.26226554
H        3.20925520       0.13348104       0.19748501
H        1.02994301      -0.20784342       1.37779411
H        1.15217161       1.45898825       0.82993977
H       -0.16836118       0.67614929      -1.29648122
H       -0.61242948      -1.50374280       0.89210384
H       -2.04920537      -0.99097952      -0.72700108
H       -2.85365494      -0.33503279       0.99401657
H       -3.11003707       0.53203561      -0.53539038
16
Frame=11 idx=001924 GeodesicLength=0.7715737558776368 rxn_smarts="[C:1]([C:2]([C@@:3]1([H:12])[C:4]([H:13])([H:14])[C:5]([H:15])([H:16])[O:6]1)([H:10])[H:11])([H:7])([H:8])[H:9]>>[C:1]([C:2]([C@@:3]([C:4][H:13])([O:6][C:5]([H:14])([H:15])[H:16])[H:12])([H:10])[H:11])([H:7])([H:8])[H:9]"
C        2.28110287       0.02731268      -0.36468296
C        1.07884127       0.41849762       0.47938702
C       -0.24127061       0.32085699      -0.26930426
C       -0.59046345      -1.12008559      -0.11475531
C       -2.36166932       0.03419340       0.08502175
O       -1.33080504       0.96326705       0.38258279
H        2.20293437      -1.01147519      -0.69219440
H        2.36358501       0.65446302      -1.25456440
H        3.20783105       0.12989147       0.20123916
H        1.02680299      -0.22836979       1.36847190
H        1.14330435       1.44613743       0.84377114
H       -0.16193968       0.65778356      -1.30886644
H       -0.61286784      -1.49452923       0.91634634
H       -2.04781636      -0.99855481      -0.75057694
H       -2.83537282      -0.33011149       1.00092699
H       -3.12219680       0.53072288      -0.52280240
16
Frame=12 idx=001924 GeodesicLength=0.8418623740864538 rxn_smarts="[C:1]([C:2]([C@@:3]1([H:12])[C:4]([H:13])([H:14])[C:5]([H:15])([H:16])[O:6]1)([H:10])[H:11])([H:7])([H:8])[H:9]>>[C:1]([C:2]([C@@:3]([C:4][H:13])([O:6][C:5]([H:14])([H:15])[H:16])[H:12])([H:10])[H:11])([H:7])([H:8])[H:9]"
C        2.28177596       0.03179897      -0.36591549
C        1.07613598       0.41046043       0.47826268
C       -0.24215873       0.32153011      -0.27624727
C       -0.59537544      -1.11152137      -0.09080040
C       -2.35907527       0.03742959       0.08276421
O       -1.33153803       0.97857197       0.36125079
H        2.20398138      -1.00243288      -0.70755406
H        2.36796435       0.67151576      -1.24643631
H        3.20626407       0.12631397       0.20507630
H        1.02365408      -0.24875415       1.35897308
H        1.13406108       1.43302169       0.85740069
H       -0.15558615       0.63915511      -1.32097268
H       -0.61313742      -1.48548117       0.93963070
H       -2.04600042      -1.00676013      -0.77362010
H       -2.81708443      -0.32412048       1.00814118
H       -3.13388103       0.52927258      -0.50995333
16
Frame=13 idx=001924 GeodesicLength=0.9122102434023736 rxn_smarts="[C:1]([C:2]([C@@:3]1([H:12])[C:4]([H:13])([H:14])[C:5]([H:15])([H:16])[O:6]1)([H:10])[H:11])([H:7])([H:8])[H:9]>>[C:1]([C:2]([C@@:3]([C:4][H:13])([O:6][C:5]([H:14])([H:15])[H:16])[H:12])([H:10])[H:11])([H:7])([H:8])[H:9]"
C        2.28237885       0.03633469      -0.36696933
C        1.07331241       0.40238969       0.47711739
C       -0.24304970       0.32199337      -0.28331549
C       -0.60052100      -1.10251912      -0.06759062
C       -2.35650221       0.04083822       0.08083321
O       -1.33211027       0.99348733       0.33963182
H        2.20508236      -0.99317338      -0.72264250
H        2.37214189       0.68848386      -1.23795097
H        3.20459927       0.12281910       0.20897048
H        1.02053937      -0.26902405       1.34933037
H        1.12443056       1.41967621       0.87085541
H       -0.14934760       0.62029199      -1.33280568
H       -0.61324045      -1.47665527       0.96193319
H       -2.04380423      -1.01561610      -0.79620495
H       -2.79880403      -0.31708069       1.01566199
H       -3.14510521       0.52775415      -0.49685433
16
Frame=14 idx=001924 GeodesicLength=0.9825745924739053 rxn_smarts="[C:1]([C:2]([C@@:3]1([H:12])[C:4]([H:13])([H:14])[C:5]([H:15])([H:16])[O:6]1)([H:10])[H:11])([H:7])([H:8])[H:9]>>[C:1]([C:2]([C@@:3]([C:4][H:13])([O:6][C:5]([H:14])([H:15])[H:16])[H:12])([H:10])[H:11])([H:7])([H:8])[H:9]"
C        2.28290119       0.04092728      -0.36784025
C        1.07036630       0.39428455       0.47594481
C       -0.24394327       0.32224579      -0.29049919
C       -0.60587592      -1.09311606      -0.04511731
C       -2.35394195       0.04442896       0.07924418
O       -1.33250883       1.00799218       0.31776074
H        2.20626489      -0.98371623      -0.73737938
H        2.37606978       0.70531187      -1.22915294
H        3.20283081       0.11949460       0.21290405
H        1.01743123      -0.28919109       1.33952240
H        1.11441815       1.40609669       0.88410663
H       -0.14322125       0.60122221      -1.34435176
H       -0.61318358      -1.46809744       0.98325077
H       -2.04123143      -1.02511455      -0.81838139
H       -2.78053641      -0.30902019       1.02347205
H       -3.15583971       0.52625144      -0.48348342
16
Frame=15 idx=001924 GeodesicLength=1.0529441184410968 rxn_smarts="[C:1]([C:2]([C@@:3]1([H:12])[C:4]([H:13])([H:14])[C:5]([H:15])([H:16])[O:6]1)([H:10])[H:11])([H:7])([H:8])[H:9]>>[C:1]([C:2]([C@@:3]([C:4][H:13])([O:6][C:5]([H:14])([H:15])[H:16])[H:12])([H:10])[H:11])([H:7])([H:8])[H:9]"
C        2.28334102       0.04557707      -0.36852648
C        1.06730057       0.38614974       0.47474612
C       -0.24484628       0.32229235      -0.29778675
C       -0.61141705      -1.08334035      -0.02336955
C       -2.35139704       0.04821394       0.07801092
O       -1.33273454       1.02207635       0.29568089
H        2.20756560      -0.97409558      -0.75169466
H        2.37970614       0.72194262      -1.22009792
H        3.20096565       0.11641615       0.21686617
H        1.01431879      -0.30926281       1.32954241
H        1.10403258       1.39229628       0.89713496
H       -0.13721933       0.58198050      -1.35560059
H       -0.61296945      -1.45985941       1.00357736
H       -2.03828656      -1.03525924      -0.84020784
H       -2.76228694      -0.29997300       1.03155827
H       -3.16607316       0.52484539      -0.46983329
16
Frame=16 idx=001924 GeodesicLength=1.1233080982149275 rxn_smarts="[C:1]([C:2]([C@@:3]1([H:12])[C:4]([H:13])([H:14])[C:5]([H:15])([H:16])[O:6]1)([H:10])[H:11])([H:7])([H:8])[H:9]>>[C:1]([C:2]([C@@:3]([C:4][H:13])([O:6][C:5]([H:14])([H:15])[H:16])[H:12])([H:10])[H:11])([H:7])([H:8])[H:9]"
C        2.28369265       0.05027858      -0.36902470
C        1.06411350       0.37799382       0.47351990
C       -0.24576717       0.32214013      -0.30516651
C       -0.61711824      -1.07321126      -0.00233880
C       -2.34886593       0.05220548       0.07714742
O       -1.33279558       1.03572600       0.27343642
H        2.20901074      -0.96435258      -0.76551687
H        2.38301492       0.73831289      -1.21084182
H        3.19900382       0.11364815       0.22085267
H        1.01118011      -0.32923358       1.31938240
H        1.09327914       1.37829326       0.90991147
H       -0.13135004       0.56260467      -1.36653602
H       -0.61258976      -1.45198521       1.02289671
H       -2.03495981      -1.04604928      -0.86174188
H       -2.74405113      -0.28998577       1.03989810
H       -3.17579723       0.52361472      -0.45587849
