10
Frame=0 idx=005488 GeodesicLength=0.0 rxn_smarts="[O:1]=[C:2]([C@@:3]1([H:7])[C:4]([H:8])([H:9])[N:5]1[H:10])[H:6]>>[O-:1][C:2](=[C:3]([N:5]([C+:4]([H:8])[H:9])[H:10])[H:7])[H:6]"
O        0.93706581      -0.99344293       1.31971558
C        1.28582954      -0.46373778       0.27503743
C        0.50758743       0.37172060      -0.58284626
C       -1.33016188      -0.23821095      -0.02040045
N       -0.70668116       0.93267146      -0.09324450
H        2.33424589      -0.56921549      -0.07246866
H        0.93302585       0.78757077      -1.48860782
H       -1.53777467      -0.75412496      -0.94575608
H       -1.71629018      -0.63711532       0.91359791
H       -0.70684664       1.56388460       0.69497285
10
Frame=1 idx=005488 GeodesicLength=0.022197646550337166 rxn_smarts="[O:1]=[C:2]([C@@:3]1([H:7])[C:4]([H:8])([H:9])[N:5]1[H:10])[H:6]>>[O-:1][C:2](=[C:3]([N:5]([C+:4]([H:8])[H:9])[H:10])[H:7])[H:6]"
O        0.94014460      -0.99791699       1.31594308
C        1.28986572      -0.46106336       0.27569308
C        0.50354184       0.36979926      -0.58046271
C       -1.32841485      -0.23816702      -0.02390087
N       -0.70770577       0.93583889      -0.09554580
H        2.33598648      -0.57033109      -0.07690433
H        0.93043959       0.79340782      -1.48188966
H       -1.53211983      -0.77018398      -0.94076426
H       -1.72914076      -0.62185725       0.91001266
H       -0.70259702       1.56047372       0.69781883
10
Frame=2 idx=005488 GeodesicLength=0.04441466506496108 rxn_smarts="[O:1]=[C:2]([C@@:3]1([H:7])[C:4]([H:8])([H:9])[N:5]1[H:10])[H:6]>>[O-:1][C:2](=[C:3]([N:5]([C+:4]([H:8])[H:9])[H:10])[H:7])[H:6]"
O        0.94327854      -1.00234629       1.31213846
C        1.29396357      -0.45809701       0.27650990
C        0.49957814       0.36815333      -0.57787581
C       -1.32662354      -0.23808482      -0.02737090
N       -0.70876121       0.93908612      -0.09775659
H        2.33742709      -0.57209744      -0.08182582
H        0.92782560       0.79928522      -1.47505003
H       -1.52595612      -0.78651069      -0.93528365
H       -1.74208704      -0.60658553       0.90591723
H       -0.69864503       1.55719710       0.70059721
10
Frame=3 idx=005488 GeodesicLength=0.0666655263556715 rxn_smarts="[O:1]=[C:2]([C@@:3]1([H:7])[C:4]([H:8])([H:9])[N:5]1[H:10])[H:6]>>[O-:1][C:2](=[C:3]([N:5]([C+:4]([H:8])[H:9])[H:10])[H:7])[H:6]"
O        0.94644345      -1.00681966       1.30823123
C        1.29810489      -0.45492129       0.27743036
C        0.49568526       0.36673743      -0.57511676
C       -1.32480800      -0.23794668      -0.03080587
N       -0.70982815       0.94240959      -0.09987980
H        2.33862642      -0.57430675      -0.08711245
H        0.92517671       0.80516863      -1.46812093
H       -1.51930579      -0.80310627      -0.92926030
H       -1.75517074      -0.59125416       0.90131134
H       -0.69492403       1.55403917       0.70332318
10
Frame=4 idx=005488 GeodesicLength=0.08896825958811518 rxn_smarts="[O:1]=[C:2]([C@@:3]1([H:7])[C:4]([H:8])([H:9])[N:5]1[H:10])[H:6]>>[O-:1][C:2](=[C:3]([N:5]([C+:4]([H:8])[H:9])[H:10])[H:7])[H:6]"
O        0.94959342      -1.01152035       1.30408930
C        1.30224584      -0.45171012       0.27833732
C        0.49183939       0.36546095      -0.57224663
C       -1.32301263      -0.23771394      -0.03419369
N       -0.71086707       0.94580352      -0.10191600
H        2.33973315      -0.57652521      -0.09250378
H        0.92246823       0.81096488      -1.46117251
H       -1.51224679      -0.81995330      -0.92261987
H       -1.76844613      -0.57578184       0.89620872
H       -0.69130741       1.55097542       0.70601713
10
Frame=5 idx=005488 GeodesicLength=0.11133921686851381 rxn_smarts="[O:1]=[C:2]([C@@:3]1([H:7])[C:4]([H:8])([H:9])[N:5]1[H:10])[H:6]>>[O-:1][C:2](=[C:3]([N:5]([C+:4]([H:8])[H:9])[H:10])[H:7])[H:6]"
O        0.95270853      -1.01650600       1.29966580
C        1.30636462      -0.44852459       0.27918736
C        0.48803332       0.36430537      -0.56928304
C       -1.32125353      -0.23737331      -0.03753522
N       -0.71186760       0.94927085      -0.10386759
H        2.34078835      -0.57863600      -0.09793817
H        0.91970276       0.81667134      -1.45421820
H       -1.50476823      -0.83707816      -0.91529555
H       -1.78194932      -0.56012890       0.89059560
H       -0.68775890       1.54799940       0.70868902
10
Frame=6 idx=005488 GeodesicLength=0.13374329693741924 rxn_smarts="[O:1]=[C:2]([C@@:3]1([H:7])[C:4]([H:8])([H:9])[N:5]1[H:10])[H:6]>>[O-:1][C:2](=[C:3]([N:5]([C+:4]([H:8])[H:9])[H:10])[H:7])[H:6]"
O        0.95585331      -1.02173514       1.29497916
C        1.31056639      -0.44526800       0.28002949
C        0.48430137       0.36333971      -0.56620030
C       -1.31956643      -0.23691181      -0.04085774
N       -0.71290226       0.95284627      -0.10572317
H        2.34171208      -0.58092738      -0.10359077
H        0.91693684       0.82237277      -1.44722999
H       -1.49671158      -0.85463476      -0.90723177
H       -1.79578849      -0.54424269       0.88442685
H       -0.68440124       1.54516103       0.71139823
10
Frame=7 idx=005488 GeodesicLength=0.15629866418094768 rxn_smarts="[O:1]=[C:2]([C@@:3]1([H:7])[C:4]([H:8])([H:9])[N:5]1[H:10])[H:6]>>[O-:1][C:2](=[C:3]([N:5]([C+:4]([H:8])[H:9])[H:10])[H:7])[H:6]"
O        0.95905828      -1.02657634       1.29040535
C        1.31483103      -0.44139883       0.28123033
C        0.48066201       0.36279128      -0.56281115
C       -1.31766608      -0.23651129      -0.04419146
N       -0.71398836       0.95647853      -0.10754972
H        2.34192443      -0.58467487      -0.11023208
H        0.91422156       0.82843752      -1.43990669
H       -1.48789577      -0.87247297      -0.89846637
H       -1.80962708      -0.52847065       0.87756232
H       -0.68152003       1.54239762       0.71395947
10
Frame=8 idx=005488 GeodesicLength=0.1789797987448263 rxn_smarts="[O:1]=[C:2]([C@@:3]1([H:7])[C:4]([H:8])([H:9])[N:5]1[H:10])[H:6]>>[O-:1][C:2](=[C:3]([N:5]([C+:4]([H:8])[H:9])[H:10])[H:7])[H:6]"
O        0.96206921      -1.03212107       1.28520847
C        1.31886162      -0.43824775       0.28189790
C        0.47698463       0.36207479      -0.55952282
C       -1.31594775      -0.23586477      -0.04746935
N       -0.71486049       0.96016943      -0.10923753
H        2.34248905      -0.58679255      -0.11599858
H        0.91131720       0.83398722      -1.43286280
H       -1.47893733      -0.89041891      -0.88880177
H       -1.82377449      -0.51237566       0.87016004
H       -0.67820164       1.53958928       0.71662645
10
Frame=9 idx=005488 GeodesicLength=0.20162775104158287 rxn_smarts="[O:1]=[C:2]([C@@:3]1([H:7])[C:4]([H:8])([H:9])[N:5]1[H:10])[H:6]>>[O-:1][C:2](=[C:3]([N:5]([C+:4]([H:8])[H:9])[H:10])[H:7])[H:6]"
O        0.96507958      -1.03809417       1.27966191
C        1.32279174      -0.43555440       0.28226100
C        0.47329269       0.36123262      -0.55629275
C       -1.31439785      -0.23506525      -0.05072617
N       -0.71563768       0.96388833      -0.11081521
H        2.34353184      -0.58789618      -0.12120688
H        0.90830025       0.83911931      -1.42604580
H       -1.47010130      -0.90825098      -0.87845511
H       -1.83813496      -0.49611571       0.86222801
H       -0.67472432       1.53673642       0.71939100
10
Frame=10 idx=005488 GeodesicLength=0.22433868249341887 rxn_smarts="[O:1]=[C:2]([C@@:3]1([H:7])[C:4]([H:8])([H:9])[N:5]1[H:10])[H:6]>>[O-:1][C:2](=[C:3]([N:5]([C+:4]([H:8])[H:9])[H:10])[H:7])[H:6]"
O        0.96806211      -1.04430959       1.27383875
C        1.32664318      -0.43306362       0.28245792
C        0.46961751       0.36043392      -0.55302271
C       -1.31291990      -0.23415054      -0.05398732
N       -0.71634478       0.96766439      -0.11229271
H        2.34466719      -0.58861953      -0.12628099
H        0.90522215       0.84406918      -1.41930412
H       -1.46102014      -0.92617093      -0.86728958
H       -1.85269533      -0.47972379       0.85366478
H       -0.67123198       1.53387051       0.72221599
10
Frame=11 idx=005488 GeodesicLength=0.24714019798799683 rxn_smarts="[O:1]=[C:2]([C@@:3]1([H:7])[C:4]([H:8])([H:9])[N:5]1[H:10])[H:6]>>[O-:1][C:2](=[C:3]([N:5]([C+:4]([H:8])[H:9])[H:10])[H:7])[H:6]"
O        0.97101870      -1.05071823       1.26775416
C        1.33043592      -0.43071007       0.28251662
C        0.46597077       0.35973619      -0.54968638
C       -1.31150052      -0.23312353      -0.05727333
N       -0.71700378       0.97151323      -0.11367026
H        2.34579588      -0.58917495      -0.13135904
H        0.90210678       0.84892775      -1.41259025
H       -1.45155287      -0.94426427      -0.85520765
H       -1.86748564      -0.46318784       0.84440821
H       -0.66778524       1.53100172       0.72510791
10
Frame=12 idx=005488 GeodesicLength=0.27007228035438735 rxn_smarts="[O:1]=[C:2]([C@@:3]1([H:7])[C:4]([H:8])([H:9])[N:5]1[H:10])[H:6]>>[O-:1][C:2](=[C:3]([N:5]([C+:4]([H:8])[H:9])[H:10])[H:7])[H:6]"
O        0.97388828      -1.05755965       1.26124033
C        1.33412291      -0.42858892       0.28238449
C        0.46232898       0.35907082      -0.54633086
C       -1.31017130      -0.23195844      -0.06057499
N       -0.71758181       0.97542869      -0.11495887
H        2.34708732      -0.58919673      -0.13623750
H        0.89893728       0.85362734      -1.40595661
H       -1.44176254      -0.96253414      -0.84207316
H       -1.88254836      -0.44640820       0.83445484
H       -0.66430077       1.52811923       0.72805232
10
Frame=13 idx=005488 GeodesicLength=0.2931845930315151 rxn_smarts="[O:1]=[C:2]([C@@:3]1([H:7])[C:4]([H:8])([H:9])[N:5]1[H:10])[H:6]>>[O-:1][C:2](=[C:3]([N:5]([C+:4]([H:8])[H:9])[H:10])[H:7])[H:6]"
O        0.97672013      -1.06456878       1.25444286
C        1.33776454      -0.42654177       0.28214130
C        0.45872729       0.35859019      -0.54286910
C       -1.30888160      -0.23067243      -0.06394608
N       -0.71814235       0.97944486      -0.11614712
H        2.34825032      -0.58931291      -0.14131393
H        0.89575777       0.85836815      -1.39927590
H       -1.43133580      -0.98110796      -0.82775987
H       -1.89790981      -0.42943510       0.82365334
H       -0.66095048       1.52523576       0.73107450
10
Frame=14 idx=005488 GeodesicLength=0.31652619141400906 rxn_smarts="[O:1]=[C:2]([C@@:3]1([H:7])[C:4]([H:8])([H:9])[N:5]1[H:10])[H:6]>>[O-:1][C:2](=[C:3]([N:5]([C+:4]([H:8])[H:9])[H:10])[H:7])[H:6]"
O        0.97947522      -1.07192494       1.24722881
C        1.34132762      -0.42464113       0.28174376
C        0.45514750       0.35823323      -0.53934770
C       -1.30765712      -0.22926044      -0.06738985
N       -0.71865253       0.98355038      -0.11724241
H        2.34941844      -0.58922909      -0.14643077
H        0.89256479       0.86311262      -1.39258382
H       -1.42034702      -0.99999557      -0.81212401
H       -1.91362491      -0.41218265       0.81196525
H       -0.65765199       1.52233760       0.73418074
10
Frame=15 idx=005488 GeodesicLength=0.3401446281902635 rxn_smarts="[O:1]=[C:2]([C@@:3]1([H:7])[C:4]([H:8])([H:9])[N:5]1[H:10])[H:6]>>[O-:1][C:2](=[C:3]([N:5]([C+:4]([H:8])[H:9])[H:10])[H:7])[H:6]"
O        0.98209710      -1.07957785       1.23958033
C        1.34479826      -0.42285570       0.28118402
C        0.45160884       0.35808262      -0.53573658
C       -1.30649171      -0.22769392      -0.07095621
N       -0.71913420       0.98777228      -0.11823915
H        2.35045901      -0.58917083      -0.15176494
H        0.88940572       0.86797183      -1.38582332
H       -1.40851635      -1.01930513      -0.79490026
H       -1.92973543      -0.39463199       0.79926416
H       -0.65449123       1.51940870       0.73739194
10
Frame=16 idx=005488 GeodesicLength=0.36403372273292384 rxn_smarts="[O:1]=[C:2]([C@@:3]1([H:7])[C:4]([H:8])([H:9])[N:5]1[H:10])[H:6]>>[O-:1][C:2](=[C:3]([N:5]([C+:4]([H:8])[H:9])[H:10])[H:7])[H:6]"
O        0.98460622      -1.08769622       1.23140860
C        1.34816211      -0.42130232       0.28041233
C        0.44807959       0.35801818      -0.53210129
C       -1.30542193      -0.22598026      -0.07464651
N       -0.71955438       0.99208679      -0.11914548
H        2.35161075      -0.58870493      -0.15699379
H        0.88622449       0.87277954      -1.37909674
H       -1.39618616      -1.03880869      -0.77610450
H       -1.94615369      -0.37681891       0.78556861
H       -0.65136701       1.51642682       0.74069878
