16
Frame=0 idx=001484 GeodesicLength=0.0 rxn_smarts="[C:1]([C@@:2]1([H:10])[C@@:3]2([H:11])[C:4]([H:12])([H:13])[C:5]([H:14])([H:15])[C@@:6]12[H:16])([H:7])([H:8])[H:9]>>[C:1]([C@@:2]1([H:10])[C:3][C:4]([H:12])([H:13])[C:5]([H:14])([H:15])[C:6]1([H:11])[H:16])([H:7])([H:8])[H:9]"
C        1.55003155      -0.24979635       0.88360939
C        0.48722462      -1.00020238       0.11236076
C       -0.98226195      -0.94146737       0.45432375
C       -1.28532646       0.57545872       0.54018428
C       -0.60646946       1.01899064      -0.77232002
C       -0.13803045      -0.38948250      -1.12253293
H        1.68812388      -0.70726682       1.86543549
H        1.31227049       0.80148113       1.04129253
H        2.50659864      -0.29644517       0.35944492
H        0.79922995      -2.02704008      -0.07709096
H       -1.18583877      -0.99737910      -1.00847872
H       -2.35533427       0.77611551       0.55637011
H       -0.85658626       1.00263499       1.45006542
H        0.20078737       1.74950722      -0.68742433
H       -1.33063530       1.40221657      -1.49041572
H        0.19621635      -0.71732497      -2.10482401
16
Frame=1 idx=001484 GeodesicLength=0.057325951563926066 rxn_smarts="[C:1]([C@@:2]1([H:10])[C@@:3]2([H:11])[C:4]([H:12])([H:13])[C:5]([H:14])([H:15])[C@@:6]12[H:16])([H:7])([H:8])[H:9]>>[C:1]([C@@:2]1([H:10])[C:3][C:4]([H:12])([H:13])[C:5]([H:14])([H:15])[C:6]1([H:11])[H:16])([H:7])([H:8])[H:9]"
C        1.55406359      -0.25338393       0.88217533
C        0.48812948      -1.00001010       0.11115107
C       -0.97669556      -0.93245222       0.46234638
C       -1.28578689       0.58011736       0.54092441
C       -0.60661783       1.02077496      -0.77234576
C       -0.14091862      -0.38897654      -1.12174752
H        1.69408741      -0.71383543       1.86220618
H        1.31776788       0.79765055       1.04411287
H        2.50741571      -0.29810093       0.35203410
H        0.79530372      -2.02880985      -0.07548221
H       -1.19516941      -1.01464996      -1.00489372
H       -2.35961411       0.76364354       0.54656010
H       -0.87099564       1.01824488       1.45178080
H        0.20146061       1.75010561      -0.68535462
H       -1.32877142       1.40669526      -1.49104307
H        0.20634107      -0.70701318      -2.10242435
16
Frame=2 idx=001484 GeodesicLength=0.11463927634567167 rxn_smarts="[C:1]([C@@:2]1([H:10])[C@@:3]2([H:11])[C:4]([H:12])([H:13])[C:5]([H:14])([H:15])[C@@:6]12[H:16])([H:7])([H:8])[H:9]>>[C:1]([C@@:2]1([H:10])[C:3][C:4]([H:12])([H:13])[C:5]([H:14])([H:15])[C:6]1([H:11])[H:16])([H:7])([H:8])[H:9]"
C        1.55811583      -0.25700192       0.88068974
C        0.48902565      -0.99979395       0.10990189
C       -0.97104947      -0.92335363       0.47024466
C       -1.28629460       0.58478949       0.54160989
C       -0.60670902       1.02261616      -0.77236376
C       -0.14380284      -0.38843330      -1.12100950
H        1.70005529      -0.72047522       1.85889186
H        1.32328258       0.79375801       1.04695513
H        2.50820519      -0.29971887       0.34457785
H        0.79134042      -2.03053611      -0.07388028
H       -1.20448828      -1.03229040      -1.00090876
H       -2.36356565       0.75116225       0.53677453
H       -0.88585406       1.03384977       1.45328454
H        0.20218932       1.75074335      -0.68321416
H       -1.32680996       1.41125793      -1.49167186
H        0.21635960      -0.69657355      -2.09988176
16
Frame=3 idx=001484 GeodesicLength=0.17194791030746076 rxn_smarts="[C:1]([C@@:2]1([H:10])[C@@:3]2([H:11])[C:4]([H:12])([H:13])[C:5]([H:14])([H:15])[C@@:6]12[H:16])([H:7])([H:8])[H:9]>>[C:1]([C@@:2]1([H:10])[C:3][C:4]([H:12])([H:13])[C:5]([H:14])([H:15])[C:6]1([H:11])[H:16])([H:7])([H:8])[H:9]"
C        1.56219461      -0.26065283       0.87915444
C        0.48991575      -0.99955472       0.10861080
C       -0.96532401      -0.91416986       0.47801569
C       -1.28685214       0.58947805       0.54224103
C       -0.60674452       1.02451927      -0.77237421
C       -0.14668134      -0.38785039      -1.12032347
H        1.70602986      -0.72718588       1.85549778
H        1.32882505       0.78980427       1.04981860
H        2.50897681      -0.30130820       0.33708139
H        0.78734406      -2.03222142      -0.07228966
H       -1.21379687      -1.05030795      -0.99651081
H       -2.36719876       0.73867948       0.52701335
H       -0.90117400       1.04944447       1.45457134
H        0.20297245       1.75142595      -0.68099809
H       -1.32475461       1.41591137      -1.49230342
H        0.22626763      -0.68601159      -2.09720476
16
Frame=4 idx=001484 GeodesicLength=0.22924227413245213 rxn_smarts="[C:1]([C@@:2]1([H:10])[C@@:3]2([H:11])[C:4]([H:12])([H:13])[C:5]([H:14])([H:15])[C@@:6]12[H:16])([H:7])([H:8])[H:9]>>[C:1]([C@@:2]1([H:10])[C:3][C:4]([H:12])([H:13])[C:5]([H:14])([H:15])[C:6]1([H:11])[H:16])([H:7])([H:8])[H:9]"
C        1.56629532      -0.26433658       0.87756424
C        0.49079729      -0.99928847       0.10727633
C       -0.95951709      -0.90489997       0.48565772
C       -1.28745437       0.59417929       0.54281634
C       -0.60671851       1.02648600      -0.77237511
C       -0.14954994      -0.38722116      -1.11968688
H        1.71199806      -0.73396457       1.85201805
H        1.33439852       0.78578777       1.05269203
H        2.50972557      -0.30287143       0.32954477
H        0.78330990      -2.03385848      -0.07071081
H       -1.22309137      -1.06870627      -0.99167537
H       -2.37050911       0.72619302       0.51727780
H       -0.91696377       1.06501314       1.45562779
H        0.20381338       1.75215478      -0.67870372
H       -1.32259571       1.42065739      -1.49293268
H        0.23606183      -0.67532447      -2.09439052
16
Frame=5 idx=001484 GeodesicLength=0.2865160163088058 rxn_smarts="[C:1]([C@@:2]1([H:10])[C@@:3]2([H:11])[C:4]([H:12])([H:13])[C:5]([H:14])([H:15])[C@@:6]12[H:16])([H:7])([H:8])[H:9]>>[C:1]([C@@:2]1([H:10])[C:3][C:4]([H:12])([H:13])[C:5]([H:14])([H:15])[C:6]1([H:11])[H:16])([H:7])([H:8])[H:9]"
C        1.57042178      -0.26805511       0.87592175
C        0.49167407      -0.99899516       0.10589289
C       -0.95362810      -0.89554474       0.49316286
C       -1.28809912       0.59889317       0.54333895
C       -0.60663522       1.02852274      -0.77236597
C       -0.15240469      -0.38653834      -1.11910665
H        1.71794122      -0.74079593       1.84846940
H        1.34001803       0.78171404       1.05556027
H        2.51046523      -0.30443157       0.32198725
H        0.77924637      -2.03544721      -0.06915395
H       -1.23236801      -1.08748861      -0.98639299
H       -2.37350108       0.71371444       0.50757286
H       -0.93322234       1.08053692       1.45645122
H        0.20470597       1.75293815      -0.67632833
H       -1.32034384       1.42550140      -1.49355754
H        0.24572973      -0.66452419      -2.09145201
16
Frame=6 idx=001484 GeodesicLength=0.34378206559672436 rxn_smarts="[C:1]([C@@:2]1([H:10])[C@@:3]2([H:11])[C:4]([H:12])([H:13])[C:5]([H:14])([H:15])[C@@:6]12[H:16])([H:7])([H:8])[H:9]>>[C:1]([C@@:2]1([H:10])[C:3][C:4]([H:12])([H:13])[C:5]([H:14])([H:15])[C:6]1([H:11])[H:16])([H:7])([H:8])[H:9]"
C        1.57457607      -0.27181074       0.87422341
C        0.49254361      -0.99867372       0.10446249
C       -0.94765719      -0.88609836       0.50053460
C       -1.28878989       0.60362331       0.54380621
C       -0.60648948       1.03063257      -0.77234566
C       -0.15524436      -0.38580076      -1.11858111
H        1.72387717      -0.74769508       1.84483870
H        1.34568528       0.77757733       1.05843057
H        2.51119188      -0.30598115       0.31439437
H        0.77514609      -2.03698767      -0.06761523
H       -1.24163057      -1.10666323      -0.98063538
H       -2.37618120       0.70123614       0.49788950
H       -0.94997593       1.09601906       1.45702767
H        0.20565766       1.75377559      -0.67386561
H       -1.31798831       1.43045090      -1.49417842
H        0.25527916      -0.65360420      -2.08838612
16
Frame=7 idx=001484 GeodesicLength=0.4010283981537595 rxn_smarts="[C:1]([C@@:2]1([H:10])[C@@:3]2([H:11])[C:4]([H:12])([H:13])[C:5]([H:14])([H:15])[C@@:6]12[H:16])([H:7])([H:8])[H:9]>>[C:1]([C@@:2]1([H:10])[C:3][C:4]([H:12])([H:13])[C:5]([H:14])([H:15])[C:6]1([H:11])[H:16])([H:7])([H:8])[H:9]"
C        1.57875454      -0.27560353       0.87246643
C        0.49340598      -0.99832059       0.10298059
C       -0.94160352      -0.87656265       0.50776534
C       -1.28951926       0.60836559       0.54421988
C       -0.60627913       1.03282012      -0.77231157
C       -0.15806241      -0.38499772      -1.11811150
H        1.72977733      -0.75464606       1.84113402
H        1.35140939       0.77338119       1.06128103
H        2.51190916      -0.30753746       0.30677956
H        0.77101159      -2.03847284      -0.06610139
H       -1.25087200      -1.12623355      -0.97438426
H       -2.37854365       0.68876160       0.48822942
H       -0.96722105       1.11143421       1.45735017
H        0.20666615       1.75467495      -0.67131250
H       -1.31552876       1.43550814      -1.49478834
H        0.26469565      -0.64257137      -2.08519687
16
Frame=8 idx=001484 GeodesicLength=0.45826409827245007 rxn_smarts="[C:1]([C@@:2]1([H:10])[C@@:3]2([H:11])[C:4]([H:12])([H:13])[C:5]([H:14])([H:15])[C@@:6]12[H:16])([H:7])([H:8])[H:9]>>[C:1]([C@@:2]1([H:10])[C:3][C:4]([H:12])([H:13])[C:5]([H:14])([H:15])[C:6]1([H:11])[H:16])([H:7])([H:8])[H:9]"
C        1.58296491      -0.27943658       0.87065434
C        0.49426440      -0.99793714       0.10144411
C       -0.93546799      -0.86693561       0.51485053
C       -1.29029106       0.61312469       0.54458068
C       -0.60600701       1.03509201      -0.77226413
C       -0.16085565      -0.38412561      -1.11770346
H        1.73564468      -0.76164833       1.83736355
H        1.35720254       0.76912740       1.06411254
H        2.51263013      -0.30911257       0.29915002
H        0.76684768      -2.03990668      -0.06461876
H       -1.26009478      -1.14620670      -0.96762296
H       -2.38059980       0.67629955       0.47859295
H       -0.98497037       1.12677471       1.45741214
H        0.20772928       1.75564366      -0.66866359
H       -1.31297126       1.44068115      -1.49538946
H        0.27397430      -0.63143393      -2.08189851
16
Frame=9 idx=001484 GeodesicLength=0.5154635029091522 rxn_smarts="[C:1]([C@@:2]1([H:10])[C@@:3]2([H:11])[C:4]([H:12])([H:13])[C:5]([H:14])([H:15])[C@@:6]12[H:16])([H:7])([H:8])[H:9]>>[C:1]([C@@:2]1([H:10])[C:3][C:4]([H:12])([H:13])[C:5]([H:14])([H:15])[C:6]1([H:11])[H:16])([H:7])([H:8])[H:9]"
C        1.58719640      -0.28330943       0.86878055
C        0.49511427      -0.99751711       0.09985257
C       -0.92924605      -0.85721636       0.52178944
C       -1.29109650       0.61789337       0.54488677
C       -0.60566674       1.03745095      -0.77220104
C       -0.16361794      -0.38317163      -1.11735160
H        1.74145681      -0.76869841       1.83352131
H        1.36306360       0.76481414       1.06690826
H        2.51334270      -0.31071078       0.29150500
H        0.76264636      -2.04127736      -0.06316571
H       -1.26928743      -1.16658255      -0.96031485
H       -2.38233834       0.66384588       0.46898064
H       -1.00322260       1.14201015       1.45719193
H        0.20884692       1.75668338      -0.66591796
H       -1.31030272       1.44597250      -1.49597572
H        0.28311125      -0.62018674      -2.07848958
16
Frame=10 idx=001484 GeodesicLength=0.57265673947205 rxn_smarts="[C:1]([C@@:2]1([H:10])[C@@:3]2([H:11])[C:4]([H:12])([H:13])[C:5]([H:14])([H:15])[C@@:6]12[H:16])([H:7])([H:8])[H:9]>>[C:1]([C@@:2]1([H:10])[C:3][C:4]([H:12])([H:13])[C:5]([H:14])([H:15])[C:6]1([H:11])[H:16])([H:7])([H:8])[H:9]"
C        1.59146099      -0.28722594       0.86684633
C        0.49595739      -0.99706259       0.09820553
C       -0.92294094      -0.84739823       0.52858237
C       -1.29194467       0.62268180       0.54513769
C       -0.60525705       1.03990331      -0.77212081
C       -0.16634973      -0.38213747      -1.11706036
H        1.74724302      -0.77581183       1.82960182
H        1.36900123       0.76043682       1.06968520
H        2.51405569      -0.31233028       0.28383412
H        0.75840819      -2.04259175      -0.06174410
H       -1.27846029      -1.18737465      -0.95243624
H       -2.38377357       0.65139995       0.45937296
H       -1.02201126       1.15715149       1.45668493
H        0.21002539       1.75779979      -0.66306503
H       -1.30752288       1.45139298      -1.49654926
H        0.29210848      -0.60883339      -2.07497514
16
Frame=11 idx=001484 GeodesicLength=0.6298317514420301 rxn_smarts="[C:1]([C@@:2]1([H:10])[C@@:3]2([H:11])[C:4]([H:12])([H:13])[C:5]([H:14])([H:15])[C@@:6]12[H:16])([H:7])([H:8])[H:9]>>[C:1]([C@@:2]1([H:10])[C:3][C:4]([H:12])([H:13])[C:5]([H:14])([H:15])[C:6]1([H:11])[H:16])([H:7])([H:8])[H:9]"
C        1.59575377      -0.29118727       0.86485015
C        0.49679247      -0.99657016       0.09649869
C       -0.91655255      -0.83748160       0.53522239
C       -1.29283096       0.62748652       0.54533557
C       -0.60478040       1.04245557      -0.77202152
C       -0.16904437      -0.38100915      -1.11683111
H        1.75297034      -0.78297259       1.82561714
H        1.37502777       0.75600226       1.07241454
H        2.51477462      -0.31399661       0.27615362
H        0.75413346      -2.04384303      -0.06036417
H       -1.28760362      -1.20858872      -0.94396253
H       -2.38490325       0.63896642       0.44977927
H       -1.04132472       1.17216835       1.45587891
H        0.21125813       1.75900004      -0.66010117
H       -1.30463461       1.45694428      -1.49710741
H        0.30096393      -0.59737430      -2.07136235
16
Frame=12 idx=001484 GeodesicLength=0.6869998604895613 rxn_smarts="[C:1]([C@@:2]1([H:10])[C@@:3]2([H:11])[C:4]([H:12])([H:13])[C:5]([H:14])([H:15])[C@@:6]12[H:16])([H:7])([H:8])[H:9]>>[C:1]([C@@:2]1([H:10])[C:3][C:4]([H:12])([H:13])[C:5]([H:14])([H:15])[C:6]1([H:11])[H:16])([H:7])([H:8])[H:9]"
C        1.60008138      -0.29519658       0.86279041
C        0.49761998      -0.99604050       0.09473236
C       -0.91008006      -0.82746097       0.54171228
C       -1.29376157       0.63231409       0.54547734
C       -0.60423212       1.04511432      -0.77190267
C       -0.17170137      -0.37978481      -1.11666559
H        1.75866512      -0.79019967       1.82155541
H        1.38114241       0.75150251       1.07511732
H        2.51550042      -0.31569793       0.26844912
H        0.74981903      -2.04503536      -0.05902371
H       -1.29672114      -1.23023568      -0.93485512
H       -2.38573613       0.62654647       0.44018213
H       -1.06119564       1.18705884       1.45476037
H        0.21255188       1.76028812      -0.65701761
H       -1.30162749       1.46264157      -1.49765290
H        0.30967530      -0.58581442      -2.06765915
16
Frame=13 idx=001484 GeodesicLength=0.7441539779320427 rxn_smarts="[C:1]([C@@:2]1([H:10])[C@@:3]2([H:11])[C:4]([H:12])([H:13])[C:5]([H:14])([H:15])[C@@:6]12[H:16])([H:7])([H:8])[H:9]>>[C:1]([C@@:2]1([H:10])[C:3][C:4]([H:12])([H:13])[C:5]([H:14])([H:15])[C:6]1([H:11])[H:16])([H:7])([H:8])[H:9]"
C        1.60443461      -0.29925473       0.86065565
C        0.49843042      -0.99546566       0.09291084
C       -0.90352286      -0.81732750       0.54805789
C       -1.29473460       0.63715989       0.54555733
C       -0.60359853       1.04788132      -0.77175857
C       -0.17431548      -0.37845383      -1.11655347
H        1.76433304      -0.79751110       1.81738955
H        1.38733868       0.74692656       1.07779176
H        2.51621175      -0.31741885       0.26069616
H        0.74544678      -2.04615486      -0.05771393
H       -1.30580367      -1.25232248      -0.92505803
H       -2.38626170       0.61412191       0.43056139
H       -1.08164644       1.20180750       1.45329518
H        0.21391610       1.76166254      -0.65380260
H       -1.29847431       1.46849178      -1.49817672
H        0.31824623      -0.57414247      -2.06385245
16
Frame=14 idx=001484 GeodesicLength=0.8013100565743416 rxn_smarts="[C:1]([C@@:2]1([H:10])[C@@:3]2([H:11])[C:4]([H:12])([H:13])[C:5]([H:14])([H:15])[C@@:6]12[H:16])([H:7])([H:8])[H:9]>>[C:1]([C@@:2]1([H:10])[C:3][C:4]([H:12])([H:13])[C:5]([H:14])([H:15])[C:6]1([H:11])[H:16])([H:7])([H:8])[H:9]"
C        1.60882553      -0.30336729       0.85845236
C        0.49922948      -0.99484971       0.09102918
C       -0.89688127      -0.80707957       0.55425284
C       -1.29575788       0.64203294       0.54557686
C       -0.60288743       1.05076794      -0.77159079
C       -0.17688456      -0.37701097      -1.11650481
H        1.76998027      -0.80490773       1.81313376
H        1.39363320       0.74227739       1.08044112
H        2.51692887      -0.31917867       0.25290770
H        0.74102589      -2.04721141      -0.05644509
H       -1.31485457      -1.27486233      -0.91454741
H       -2.38649520       0.60170683       0.42091280
H       -1.10269005       1.21640647       1.45147905
H        0.21534424       1.76313609      -0.65044907
H       -1.29518910       1.47450894      -1.49868417
H        0.32667257      -0.56236889      -2.05996433
16
Frame=15 idx=001484 GeodesicLength=0.8584629616643318 rxn_smarts="[C:1]([C@@:2]1([H:10])[C@@:3]2([H:11])[C:4]([H:12])([H:13])[C:5]([H:14])([H:15])[C@@:6]12[H:16])([H:7])([H:8])[H:9]>>[C:1]([C@@:2]1([H:10])[C:3][C:4]([H:12])([H:13])[C:5]([H:14])([H:15])[C:6]1([H:11])[H:16])([H:7])([H:8])[H:9]"
C        1.61324959      -0.30753587       0.85617573
C        0.50001371      -0.99418865       0.08908491
C       -0.89015524      -0.79671387       0.56029379
C       -1.29682964       0.64693149       0.54553446
C       -0.60209434       1.05377952      -0.77139653
C       -0.17940251      -0.37544526      -1.11651896
H        1.77559482      -0.81238964       1.80878352
H        1.40002903       0.73755242       1.08305590
H        2.51764844      -0.32098351       0.24508256
H        0.73655052      -2.04819817      -0.05522060
H       -1.32386903      -1.29786130      -0.90327815
H       -2.38643134       0.58929822       0.41123149
H       -1.12433414       1.23083197       1.44929080
H        0.21683824       1.76471312      -0.64695095
H       -1.29176347       1.48069925      -1.49917023
H        0.33495536      -0.55048972      -2.05599773
16
Frame=16 idx=001484 GeodesicLength=0.9156127967550626 rxn_smarts="[C:1]([C@@:2]1([H:10])[C@@:3]2([H:11])[C:4]([H:12])([H:13])[C:5]([H:14])([H:15])[C@@:6]12[H:16])([H:7])([H:8])[H:9]>>[C:1]([C@@:2]1([H:10])[C:3][C:4]([H:12])([H:13])[C:5]([H:14])([H:15])[C:6]1([H:11])[H:16])([H:7])([H:8])[H:9]"
C        1.61770588      -0.31176335       0.85382350
C        0.50078154      -0.99348036       0.08707466
C       -0.88334490      -0.78622732       0.56617649
C       -1.29795064       0.65185642       0.54542922
C       -0.60121780       1.05692329      -0.77117399
C       -0.18186399      -0.37374649      -1.11659819
H        1.78116865      -0.81995744       1.80433884
H        1.40653223       0.73275011       1.08562932
H        2.51837252      -0.32284348       0.23722266
H        0.73201806      -2.04911220      -0.05404614
H       -1.33284399      -1.32132754      -0.89120590
H       -2.38606919       0.57689679       0.40151186
H       -1.14658759       1.24506280       1.44671205
H        0.21839774       1.76640029      -0.64330162
H       -1.28819442       1.48707147      -1.49963226
H        0.34309588      -0.53850298      -2.05196050
