13
Frame=0 idx=003639 GeodesicLength=0.0 rxn_smarts="[O:1]([N:2]=[C:3]1[C:4]([H:8])([H:9])[C:5]([H:10])([H:11])[C:6]1([H:12])[H:13])[H:7]>>[O:1]([N:2]1[C:3](=[C:4]([H:8])[H:9])[C:6]([H:12])([H:13])[C:5]1([H:10])[H:11])[H:7]"
O        2.23787204      -0.82553730       0.48366839
N        1.33251421       0.20889061       0.52978645
C        0.38888624       0.05717243      -0.38566193
C        0.14757170      -0.97623248      -1.24427755
C       -1.42856389       0.36276313       0.94915089
C       -0.70218176       1.02773772      -0.12083925
H        2.89649245      -0.57107641       1.13348115
H       -0.72445177      -0.94124467      -1.88189870
H        0.85162206      -1.78620698      -1.37319543
H       -2.30896784       0.80438171       1.40822698
H       -1.08945185      -0.59472765       1.31352330
H       -1.31422456       1.23668798      -1.01125905
H       -0.28711697       1.99739190       0.19929473
13
Frame=1 idx=003639 GeodesicLength=0.0794754163931008 rxn_smarts="[O:1]([N:2]=[C:3]1[C:4]([H:8])([H:9])[C:5]([H:10])([H:11])[C:6]1([H:12])[H:13])[H:7]>>[O:1]([N:2]1[C:3](=[C:4]([H:8])[H:9])[C:6]([H:12])([H:13])[C:5]1([H:10])[H:11])[H:7]"
O        2.22388802      -0.82618837       0.50303621
N        1.32258190       0.21369417       0.53220265
C        0.39905505       0.07815860      -0.40670443
C        0.12188121      -0.98131467      -1.22592705
C       -1.39825016       0.33589985       0.93157117
C       -0.69537711       1.04491404      -0.13188609
H        2.89545841      -0.55394361       1.13201964
H       -0.71252593      -0.91966500      -1.91043758
H        0.80214079      -1.81549079      -1.32806075
H       -2.28288243       0.76458766       1.39626096
H       -1.06758035      -0.61561444       1.31854790
H       -1.31517321       1.26115832      -1.01408291
H       -0.29321619       2.01380425       0.20346027
13
Frame=2 idx=003639 GeodesicLength=0.15887405892597725 rxn_smarts="[O:1]([N:2]=[C:3]1[C:4]([H:8])([H:9])[C:5]([H:10])([H:11])[C:6]1([H:12])[H:13])[H:7]>>[O:1]([N:2]1[C:3](=[C:4]([H:8])[H:9])[C:6]([H:12])([H:13])[C:5]1([H:10])[H:11])[H:7]"
O        2.21075579      -0.82676308       0.52160550
N        1.31205960       0.21697683       0.53541459
C        0.40828955       0.09629479      -0.42537106
C        0.09717728      -0.98419124      -1.20887682
C       -1.36876874       0.31057946       0.91437931
C       -0.68858824       1.06087023      -0.14195975
H        2.89565783      -0.53703911       1.12796074
H       -0.69904671      -0.90253838      -1.93582273
H        0.75431112      -1.83973848      -1.28589762
H       -2.25748437       0.72805505       1.38303644
H       -1.04980366      -0.63558758       1.32383189
H       -1.31574590       1.28437546      -1.01603058
H       -0.29881354       2.02870604       0.20773009
13
Frame=3 idx=003639 GeodesicLength=0.23828268202881306 rxn_smarts="[O:1]([N:2]=[C:3]1[C:4]([H:8])([H:9])[C:5]([H:10])([H:11])[C:6]1([H:12])[H:13])[H:7]>>[O:1]([N:2]1[C:3](=[C:4]([H:8])[H:9])[C:6]([H:12])([H:13])[C:5]1([H:10])[H:11])[H:7]"
O        2.19851448      -0.82696692       0.53925414
N        1.30150078       0.21958706       0.53855585
C        0.41690211       0.11238499      -0.44246493
C        0.07361733      -0.98517768      -1.19333280
C       -1.33959158       0.28656917       0.89771383
C       -0.68186391       1.07582098      -0.15130476
H        2.89557705      -0.52129310       1.12348638
H       -0.68528899      -0.88958240      -1.95792725
H        0.70842266      -1.85957941      -1.24688763
H       -2.23226558       0.69416218       1.36915732
H       -1.03492295      -0.65476465       1.32908219
H       -1.31638783       1.30633829      -1.01713768
H       -0.30421356       2.04250149       0.21180533
13
Frame=4 idx=003639 GeodesicLength=0.3177300357715183 rxn_smarts="[O:1]([N:2]=[C:3]1[C:4]([H:8])([H:9])[C:5]([H:10])([H:11])[C:6]1([H:12])[H:13])[H:7]>>[O:1]([N:2]1[C:3](=[C:4]([H:8])[H:9])[C:6]([H:12])([H:13])[C:5]1([H:10])[H:11])[H:7]"
O        2.18673903      -0.82716749       0.55674643
N        1.29098224       0.22162600       0.54175278
C        0.42506240       0.12676306      -0.45812596
C        0.05122336      -0.98468949      -1.17906416
C       -1.31077192       0.26374919       0.88156243
C       -0.67515676       1.08989707      -0.15993680
H        2.89579878      -0.50621480       1.11787021
H       -0.67164767      -0.88006887      -1.97709530
H        0.66447252      -1.87579873      -1.21069240
H       -2.20748954       0.66254896       1.35452261
H       -1.02276984      -0.67322435       1.33406377
H       -1.31699093       1.32724389      -1.01745377
H       -0.30945166       2.05533556       0.21585017
13
Frame=5 idx=003639 GeodesicLength=0.39722050516340546 rxn_smarts="[O:1]([N:2]=[C:3]1[C:4]([H:8])([H:9])[C:5]([H:10])([H:11])[C:6]1([H:12])[H:13])[H:7]>>[O:1]([N:2]1[C:3](=[C:4]([H:8])[H:9])[C:6]([H:12])([H:13])[C:5]1([H:10])[H:11])[H:7]"
O        2.17555530      -0.82702309       0.57360666
N        1.28081828       0.22358582       0.54432682
C        0.43283834       0.13982675      -0.47290904
C        0.02988962      -0.98301693      -1.16606072
C       -1.28196812       0.24199179       0.86606644
C       -0.66856548       1.10314942      -0.16802637
H        2.89514823      -0.49247564       1.11292205
H       -0.65843553      -0.87352416      -1.99384804
H        0.62248257      -1.88887390      -1.17726807
H       -2.18268664       0.63291033       1.33972006
H       -1.01238660      -0.69088211       1.33882382
H       -1.31794696       1.34697739      -1.01694769
H       -0.31474301       2.06735434       0.21959408
13
Frame=6 idx=003639 GeodesicLength=0.4767662379489396 rxn_smarts="[O:1]([N:2]=[C:3]1[C:4]([H:8])([H:9])[C:5]([H:10])([H:11])[C:6]1([H:12])[H:13])[H:7]>>[O:1]([N:2]1[C:3](=[C:4]([H:8])[H:9])[C:6]([H:12])([H:13])[C:5]1([H:10])[H:11])[H:7]"
O        2.16490308      -0.82672052       0.59020342
N        1.27090596       0.22526849       0.54672717
C        0.44028318       0.15165700      -0.48667907
C        0.00950911      -0.98046573      -1.15402688
C       -1.25341093       0.22124575       0.85121604
C       -0.66204239       1.11566686      -0.17550244
H        2.89459580      -0.47941430       1.10740494
H       -0.64532148      -0.86922752      -2.00874981
H        0.58200615      -1.89958916      -1.14588754
H       -2.15834786       0.60502837       1.32443516
H       -1.00401097      -0.70782303       1.34321373
H       -1.31904542       1.36575607      -1.01565963
H       -0.32002424       2.07861772       0.22330492
13
Frame=7 idx=003639 GeodesicLength=0.5563578952655733 rxn_smarts="[O:1]([N:2]=[C:3]1[C:4]([H:8])([H:9])[C:5]([H:10])([H:11])[C:6]1([H:12])[H:13])[H:7]>>[O:1]([N:2]1[C:3](=[C:4]([H:8])[H:9])[C:6]([H:12])([H:13])[C:5]1([H:10])[H:11])[H:7]"
O        2.15493091      -0.82609278       0.60620170
N        1.26134430       0.22680764       0.54873129
C        0.44740961       0.16243739      -0.49968224
C       -0.01005040      -0.97722890      -1.14289039
C       -1.22502225       0.20142815       0.83704113
C       -0.65562733       1.12749638      -0.18244577
H        2.89373743      -0.46721224       1.10210061
H       -0.63233794      -0.86688160      -2.02212512
H        0.54294023      -1.90828076      -1.11641782
H       -2.13430827       0.57875667       1.30893162
H       -0.99723483      -0.72401137       1.34722991
H       -1.32041784       1.38359011      -1.01359610
H       -0.32536362       2.08919133       0.22692120
13
Frame=8 idx=003639 GeodesicLength=0.6359923652782099 rxn_smarts="[O:1]([N:2]=[C:3]1[C:4]([H:8])([H:9])[C:5]([H:10])([H:11])[C:6]1([H:12])[H:13])[H:7]>>[O:1]([N:2]1[C:3](=[C:4]([H:8])[H:9])[C:6]([H:12])([H:13])[C:5]1([H:10])[H:11])[H:7]"
O        2.14560216      -0.82517497       0.62165470
N        1.25215741       0.22822683       0.55035032
C        0.45425051       0.17229099      -0.51201342
C       -0.02885932      -0.97345503      -1.13254493
C       -1.19683033       0.18246955       0.82350795
C       -0.64930949       1.13870176      -0.18889195
H        2.89265113      -0.45577032       1.09702932
H       -0.61959097      -0.86625705      -2.03409010
H        0.50523834      -1.91522988      -1.08872979
H       -2.11061734       0.55394647       1.29321519
H       -0.99189527      -0.73944751       1.35080919
H       -1.32203285       1.40057263      -1.01079334
H       -0.33076398       2.09912653       0.23049687
13
Frame=9 idx=003639 GeodesicLength=0.7156663238619555 rxn_smarts="[O:1]([N:2]=[C:3]1[C:4]([H:8])([H:9])[C:5]([H:10])([H:11])[C:6]1([H:12])[H:13])[H:7]>>[O:1]([N:2]1[C:3](=[C:4]([H:8])[H:9])[C:6]([H:12])([H:13])[C:5]1([H:10])[H:11])[H:7]"
O        2.13687478      -0.82401029       0.63664961
N        1.24333981       0.22951929       0.55164814
C        0.46083179       0.18130775      -0.52371892
C       -0.04698168      -0.96926523      -1.12288257
C       -1.16889042       0.16430474       0.81057536
C       -0.64307390       1.14933986      -0.19486288
H        2.89148490      -0.44495483       1.09204381
H       -0.60710501      -0.86714218      -2.04476122
H        0.46882535      -1.92069270      -1.06265750
H       -2.08735320       0.53047129       1.27725462
H       -0.98790021      -0.75413562       1.35389989
H       -1.32383277       1.41679730      -1.00729087
H       -0.33621945       2.10846062       0.23410252
13
Frame=10 idx=003639 GeodesicLength=0.7953882208929735 rxn_smarts="[O:1]([N:2]=[C:3]1[C:4]([H:8])([H:9])[C:5]([H:10])([H:11])[C:6]1([H:12])[H:13])[H:7]>>[O:1]([N:2]1[C:3](=[C:4]([H:8])[H:9])[C:6]([H:12])([H:13])[C:5]1([H:10])[H:11])[H:7]"
O        2.12863719      -0.82264813       0.65128550
N        1.23491969       0.23074452       0.55258414
C        0.46717022       0.18959289      -0.53489579
C       -0.06447914      -0.96473474      -1.11384039
C       -1.14120498       0.14686661       0.79820069
C       -0.63692405       1.15946176      -0.20039722
H        2.89023125      -0.43475823       1.08717014
H       -0.59490839      -0.86938681      -2.05425926
H        0.43365973      -1.92484353      -1.03809435
H       -2.06451835       0.50818053       1.26106383
H       -0.98501367      -0.76803112       1.35652973
H       -1.32581386       1.43232767      -1.00311639
H       -0.34175565       2.11722859       0.23776938
13
Frame=11 idx=003639 GeodesicLength=0.8751426586255597 rxn_smarts="[O:1]([N:2]=[C:3]1[C:4]([H:8])([H:9])[C:5]([H:10])([H:11])[C:6]1([H:12])[H:13])[H:7]>>[O:1]([N:2]1[C:3](=[C:4]([H:8])[H:9])[C:6]([H:12])([H:13])[C:5]1([H:10])[H:11])[H:7]"
O        2.12097419      -0.82105834       0.66549824
N        1.22686246       0.23185036       0.55324674
C        0.47327698       0.19718908      -0.54555855
C       -0.08141371      -0.95995691      -1.10533389
C       -1.11383842       0.13009600       0.78634046
C       -0.63084336       1.16910867      -0.20551380
H        2.88899324      -0.42504928       1.08236994
H       -0.58301163      -0.87283080      -2.06265750
H        0.39965259      -1.92788974      -1.01489944
H       -2.04214873       0.48702508       1.24464331
H       -0.98323922      -0.78117240       1.35862786
H       -1.32791585       1.44723756      -0.99831360
H       -0.34734855       2.12545072       0.24155025
13
Frame=12 idx=003639 GeodesicLength=0.9549333240270881 rxn_smarts="[O:1]([N:2]=[C:3]1[C:4]([H:8])([H:9])[C:5]([H:10])([H:11])[C:6]1([H:12])[H:13])[H:7]>>[O:1]([N:2]1[C:3](=[C:4]([H:8])[H:9])[C:6]([H:12])([H:13])[C:5]1([H:10])[H:11])[H:7]"
O        2.11383716      -0.81926403       0.67933052
N        1.21917006       0.23285744       0.55363308
C        0.47916210       0.20416469      -0.55576819
C       -0.09783890      -0.95498425      -1.09731420
C       -1.08680586       0.11393274       0.77494805
C       -0.62482963       1.17832252      -0.21024394
H        2.88777856      -0.41579717       1.07766107
H       -0.57143271      -0.87736248      -2.07003747
H        0.36675623      -1.92996690      -0.99298158
H       -2.02024104       0.46690442       1.22800028
H       -0.98242637      -0.79354003       1.36021197
H       -1.33012195       1.46158249      -0.99291431
H       -0.35300764       2.13315057       0.24547472
13
Frame=13 idx=003639 GeodesicLength=1.0347595227564041 rxn_smarts="[O:1]([N:2]=[C:3]1[C:4]([H:8])([H:9])[C:5]([H:10])([H:11])[C:6]1([H:12])[H:13])[H:7]>>[O:1]([N:2]1[C:3](=[C:4]([H:8])[H:9])[C:6]([H:12])([H:13])[C:5]1([H:10])[H:11])[H:7]"
O        2.10719129      -0.81728355       0.69284274
N        1.21182223       0.23376077       0.55378962
C        0.48483837       0.21056831      -0.56554710
C       -0.11379593      -0.94986296      -1.08972274
C       -1.06014117       0.09832309       0.76397902
C       -0.61887291       1.18714090      -0.21460706
H        2.88665404      -0.40693764       1.07293752
H       -0.56016550      -0.88287265      -2.07645477
H        0.33491504      -1.93120271      -0.97223197
H       -1.99882370       0.44773605       1.21110803
H       -0.98250167      -0.80513272       1.36127853
H       -1.33238900       1.47541861      -0.98695453
H       -0.35873108       2.14034448       0.24958270
13
Frame=14 idx=003639 GeodesicLength=1.1146206218196861 rxn_smarts="[O:1]([N:2]=[C:3]1[C:4]([H:8])([H:9])[C:5]([H:10])([H:11])[C:6]1([H:12])[H:13])[H:7]>>[O:1]([N:2]1[C:3](=[C:4]([H:8])[H:9])[C:6]([H:12])([H:13])[C:5]1([H:10])[H:11])[H:7]"
O        2.10103601      -0.81511643       0.70603942
N        1.20480434       0.23455530       0.55374067
C        0.49031555       0.21644344      -0.57492851
C       -0.12932640      -0.94463169      -1.08251660
C       -1.03386422       0.08321523       0.75339017
C       -0.61296337       1.19559838      -0.21862576
H        2.88563971      -0.39842189       1.06820144
H       -0.54923773      -0.88926982      -2.08195191
H        0.30407667      -1.93170727      -0.95256497
H       -1.97790344       0.42944309       1.19395005
H       -0.98338005      -0.81595144       1.36183129
H       -1.33468390       1.48879607      -0.98046773
H       -0.36451316       2.14704704       0.25390245
13
Frame=15 idx=003639 GeodesicLength=1.1945116771607838 rxn_smarts="[O:1]([N:2]=[C:3]1[C:4]([H:8])([H:9])[C:5]([H:10])([H:11])[C:6]1([H:12])[H:13])[H:7]>>[O:1]([N:2]1[C:3](=[C:4]([H:8])[H:9])[C:6]([H:12])([H:13])[C:5]1([H:10])[H:11])[H:7]"
O        2.09539382      -0.81275410       0.71891371
N        1.19808959       0.23521899       0.55353050
C        0.49560344       0.22181866      -0.58392759
C       -0.14446714      -0.93932805      -1.07565020
C       -1.00800242       0.06856214       0.74314261
C       -0.60708746       1.20372377      -0.22231778
H        2.88477373      -0.39017719       1.06342570
H       -0.53866805      -0.89646271      -2.08656006
H        0.27418472      -1.93158472      -0.93389227
H       -1.95748852       0.41197163       1.17651116
H       -0.98502812      -0.82601555       1.36185271
H       -1.33696363       1.50176028      -0.97348891
H       -0.37033996       2.15326685       0.25846042
13
Frame=16 idx=003639 GeodesicLength=1.2744461586771092 rxn_smarts="[O:1]([N:2]=[C:3]1[C:4]([H:8])([H:9])[C:5]([H:10])([H:11])[C:6]1([H:12])[H:13])[H:7]>>[O:1]([N:2]1[C:3](=[C:4]([H:8])[H:9])[C:6]([H:12])([H:13])[C:5]1([H:10])[H:11])[H:7]"
O        2.09014810      -0.81023694       0.73161588
N        1.19166415       0.23577975       0.55318728
C        0.50071581       0.22674461      -0.59255868
C       -0.15924057      -0.93395722      -1.06908144
C       -0.98256872       0.05432193       0.73320003
C       -0.60124168       1.21155119      -0.22569404
H        2.88410102      -0.38221483       1.05841169
H       -0.52841287      -0.90438319      -2.09032226
H        0.24520208      -1.93089343      -0.91612095
H       -1.93762976       0.39520030       1.15870527
H       -0.98731326      -0.83528072       1.36141377
H       -1.33919521       1.51435180      -0.96604786
H       -0.37622908       2.15901676       0.26329131
