12
Frame=0 idx=010751 GeodesicLength=0.0 rxn_smarts="[N:1]([c:2]1[c:3]([H:10])[o:4][n:5][c:6]1[N:7]([H:11])[H:12])([H:8])[H:9]>>[N:1]([c:2]1[c:3]([H:10])[o:4][n:5]([H:12])/[c:6]1=[N:7]/[H:11])([H:8])[H:9]"
N        0.29463246       1.85309455      -0.26077026
C        0.41458577       0.46827032      -0.17995324
C        1.50521658      -0.33641110      -0.17631184
O        1.20216432      -1.65588112      -0.10817286
N       -0.18222284      -1.68974738      -0.15978020
C       -0.66715240      -0.46240816      -0.03147359
N       -1.90374710      -0.62004433       0.44199518
H       -0.44985709       2.20792371       0.32085167
H        1.15133114       2.35056530      -0.07861625
H        2.56029494      -0.11087130      -0.20770969
H       -2.63848238      -0.03535887       0.06540392
H       -1.28676345      -1.96913162       0.37453716
12
Frame=1 idx=010751 GeodesicLength=0.04141397238896433 rxn_smarts="[N:1]([c:2]1[c:3]([H:10])[o:4][n:5][c:6]1[N:7]([H:11])[H:12])([H:8])[H:9]>>[N:1]([c:2]1[c:3]([H:10])[o:4][n:5]([H:12])/[c:6]1=[N:7]/[H:11])([H:8])[H:9]"
N        0.28151946       1.84845487      -0.25678925
C        0.41636969       0.46559631      -0.16455295
C        1.50910751      -0.33456316      -0.18212002
O        1.21085777      -1.65460994      -0.11078742
N       -0.17386026      -1.69741219      -0.13085341
C       -0.65906397      -0.46837354       0.00054722
N       -1.91192220      -0.62378398       0.42706804
H       -0.44658825       2.20491293       0.34434552
H        1.13980802       2.35349219      -0.10497282
H        2.56290889      -0.10494381      -0.22391122
H       -2.61769882      -0.00704094       0.04620665
H       -1.31143784      -1.98172873       0.35581965
12
Frame=2 idx=010751 GeodesicLength=0.08282413857593837 rxn_smarts="[N:1]([c:2]1[c:3]([H:10])[o:4][n:5][c:6]1[N:7]([H:11])[H:12])([H:8])[H:9]>>[N:1]([c:2]1[c:3]([H:10])[o:4][n:5]([H:12])/[c:6]1=[N:7]/[H:11])([H:8])[H:9]"
N        0.26805811       1.84342196      -0.25250695
C        0.41811193       0.46292668      -0.14698450
C        1.51239618      -0.33276327      -0.18904495
O        1.21879278      -1.65351168      -0.11801763
N       -0.16540278      -1.70477811      -0.09735612
C       -0.64990520      -0.47410050       0.04166953
N       -1.92026500      -0.62715489       0.41077365
H       -0.44241556       2.20304956       0.36764921
H        1.12714555       2.35591249      -0.13298097
H        2.56486211      -0.09910903      -0.24038708
H       -2.59485308       0.01978825       0.02347453
H       -1.33652504      -1.99368147       0.33371128
12
Frame=3 idx=010751 GeodesicLength=0.12421474039364647 rxn_smarts="[N:1]([c:2]1[c:3]([H:10])[o:4][n:5][c:6]1[N:7]([H:11])[H:12])([H:8])[H:9]>>[N:1]([c:2]1[c:3]([H:10])[o:4][n:5]([H:12])/[c:6]1=[N:7]/[H:11])([H:8])[H:9]"
N        0.25444082       1.83746532      -0.24845436
C        0.42011124       0.46019537      -0.12314657
C        1.51511648      -0.33111142      -0.19373056
O        1.22530028      -1.65268035      -0.12911351
N       -0.15676727      -1.71144639      -0.05885720
C       -0.63874313      -0.47955253       0.09834480
N       -1.92782116      -0.62978501       0.39420326
H       -0.43924350       2.20341852       0.38691205
H        1.11296059       2.35758757      -0.16144778
H        2.56575611      -0.09407867      -0.26307614
H       -2.56836341       0.04472443      -0.00371949
H       -1.36274706      -2.00473686       0.30208550
12
Frame=4 idx=010751 GeodesicLength=0.1658207492658743 rxn_smarts="[N:1]([c:2]1[c:3]([H:10])[o:4][n:5][c:6]1[N:7]([H:11])[H:12])([H:8])[H:9]>>[N:1]([c:2]1[c:3]([H:10])[o:4][n:5]([H:12])/[c:6]1=[N:7]/[H:11])([H:8])[H:9]"
N        0.24010676       1.83066287      -0.24332146
C        0.42128348       0.45701379      -0.09796361
C        1.51632277      -0.32972103      -0.19790824
O        1.22923251      -1.65200477      -0.14484895
N       -0.14795259      -1.71807390      -0.01423852
C       -0.62710248      -0.48509724       0.16168950
N       -1.93246780      -0.62951348       0.37749518
H       -0.43643674       2.20392631       0.40623182
H        1.09717691       2.35774030      -0.18912335
H        2.56456231      -0.08960735      -0.28889653
H       -2.53779772       0.06698687      -0.03735053
H       -1.38692740      -2.01231238       0.26823468
12
Frame=5 idx=010751 GeodesicLength=0.20785370731787167 rxn_smarts="[N:1]([c:2]1[c:3]([H:10])[o:4][n:5][c:6]1[N:7]([H:11])[H:12])([H:8])[H:9]>>[N:1]([c:2]1[c:3]([H:10])[o:4][n:5]([H:12])/[c:6]1=[N:7]/[H:11])([H:8])[H:9]"
N        0.22623416       1.82332580      -0.23872693
C        0.42217141       0.45370826      -0.07244090
C        1.51661145      -0.32872483      -0.19858599
O        1.23014863      -1.65128465      -0.16295518
N       -0.13861025      -1.72482151       0.03426884
C       -0.61720812      -0.49028581       0.21820045
N       -1.93337276      -0.62742233       0.36324255
H       -0.43507043       2.20457213       0.42188909
H        1.08089307       2.35664084      -0.21475582
H        2.56186996      -0.08625348      -0.31369257
H       -2.50625950       0.08718783      -0.06657643
H       -1.40740760      -2.01664227       0.23013290
12
Frame=6 idx=010751 GeodesicLength=0.25054680666144713 rxn_smarts="[N:1]([c:2]1[c:3]([H:10])[o:4][n:5][c:6]1[N:7]([H:11])[H:12])([H:8])[H:9]>>[N:1]([c:2]1[c:3]([H:10])[o:4][n:5]([H:12])/[c:6]1=[N:7]/[H:11])([H:8])[H:9]"
N        0.21299115       1.81615126      -0.23302727
C        0.42305190       0.45074215      -0.04688241
C        1.51596494      -0.32825444      -0.19697706
O        1.22737980      -1.65035544      -0.18214746
N       -0.12909901      -1.73118868       0.08568488
C       -0.60938736      -0.49449089       0.26752489
N       -1.93227108      -0.62453709       0.34857318
H       -0.43395194       2.20539929       0.43716758
H        1.06475064       2.35468676      -0.23767135
H        2.55728656      -0.08434977      -0.34060410
H       -2.47429484       0.10472325      -0.09642824
H       -1.42242075      -2.01852639       0.19478735
12
Frame=7 idx=010751 GeodesicLength=0.2935869288664279 rxn_smarts="[N:1]([c:2]1[c:3]([H:10])[o:4][n:5][c:6]1[N:7]([H:11])[H:12])([H:8])[H:9]>>[N:1]([c:2]1[c:3]([H:10])[o:4][n:5]([H:12])/[c:6]1=[N:7]/[H:11])([H:8])[H:9]"
N        0.20039686       1.80914097      -0.22815879
C        0.42391009       0.44806810      -0.02338433
C        1.51471966      -0.32817037      -0.19512973
O        1.22259690      -1.64925223      -0.19791325
N       -0.12067348      -1.73683667       0.13008199
C       -0.60312813      -0.49806653       0.30968297
N       -1.92946136      -0.62186483       0.33544576
H       -0.43303129       2.20630399       0.45035848
H        1.04885242       2.35205953      -0.25955900
H        2.55217645      -0.08342289      -0.36280208
H       -2.44342083       0.12124431      -0.11986850
H       -1.43293728      -2.01920339       0.16124650
12
Frame=8 idx=010751 GeodesicLength=0.33702747613888673 rxn_smarts="[N:1]([c:2]1[c:3]([H:10])[o:4][n:5][c:6]1[N:7]([H:11])[H:12])([H:8])[H:9]>>[N:1]([c:2]1[c:3]([H:10])[o:4][n:5]([H:12])/[c:6]1=[N:7]/[H:11])([H:8])[H:9]"
N        0.18806490       1.80228251      -0.22372987
C        0.42466532       0.44553185      -0.00231069
C        1.51317683      -0.32820848      -0.19347095
O        1.21733834      -1.64807476      -0.20983860
N       -0.11366393      -1.74206692       0.16559157
C       -0.59783406      -0.50145790       0.34630346
N       -1.92550205      -0.61892875       0.32389460
H       -0.43178370       2.20699902       0.46291486
H        1.03284018       2.34886064      -0.28115613
H        2.54705904      -0.08276658      -0.38064579
H       -2.41331212       0.13693790      -0.13918708
H       -1.44104874      -2.01910852       0.13163461
12
Frame=9 idx=010751 GeodesicLength=0.38061929342420675 rxn_smarts="[N:1]([c:2]1[c:3]([H:10])[o:4][n:5][c:6]1[N:7]([H:11])[H:12])([H:8])[H:9]>>[N:1]([c:2]1[c:3]([H:10])[o:4][n:5]([H:12])/[c:6]1=[N:7]/[H:11])([H:8])[H:9]"
N        0.17591054       1.79549295      -0.22004356
C        0.42522153       0.44300558       0.01614236
C        1.51159591      -0.32823450      -0.19187408
O        1.21239925      -1.64688958      -0.21863171
N       -0.10767855      -1.74714706       0.19436463
C       -0.59318296      -0.50484940       0.37850538
N       -1.92076926      -0.61582787       0.31412838
H       -0.43014433       2.20746383       0.47465787
H        1.01661680       2.34511892      -0.30294538
H        2.54240432      -0.08207822      -0.39408602
H       -2.38436269       0.15228527      -0.15373232
H       -1.44801055      -2.01833993       0.10351446
12
Frame=10 idx=010751 GeodesicLength=0.42433779595485804 rxn_smarts="[N:1]([c:2]1[c:3]([H:10])[o:4][n:5][c:6]1[N:7]([H:11])[H:12])([H:8])[H:9]>>[N:1]([c:2]1[c:3]([H:10])[o:4][n:5]([H:12])/[c:6]1=[N:7]/[H:11])([H:8])[H:9]"
N        0.16398112       1.78879594      -0.21665341
C        0.42564221       0.44049869       0.03271419
C        1.51007290      -0.32822436      -0.19001178
O        1.20780568      -1.64569495      -0.22525653
N       -0.10238541      -1.75213810       0.21883668
C       -0.58903492      -0.50821455       0.40742109
N       -1.91556475      -0.61250706       0.30548689
H       -0.42815227       2.20778273       0.48591796
H        1.00023689       2.34091971      -0.32449562
H        2.53799214      -0.08131887      -0.40526459
H       -2.35627957       0.16710324      -0.16554289
H       -1.45431402      -2.01700242       0.07684801
12
Frame=11 idx=010751 GeodesicLength=0.46820545807360786 rxn_smarts="[N:1]([c:2]1[c:3]([H:10])[o:4][n:5][c:6]1[N:7]([H:11])[H:12])([H:8])[H:9]>>[N:1]([c:2]1[c:3]([H:10])[o:4][n:5]([H:12])/[c:6]1=[N:7]/[H:11])([H:8])[H:9]"
N        0.15220963       1.78217722      -0.21331604
C        0.42595463       0.43802463       0.04798844
C        1.50862176      -0.32815978      -0.18776558
O        1.20346394      -1.64445912      -0.23044718
N       -0.09757198      -1.75706742       0.24043039
C       -0.58531379      -0.51155416       0.43384721
N       -1.91005517      -0.60902174       0.29760078
H       -0.42558473       2.20810115       0.49708259
H        0.98358409       2.33624981      -0.34614217
H        2.53371694      -0.08045252      -0.41492916
H       -2.32885174       0.18134180      -0.17559532
H       -1.46017357      -2.01517986       0.05124604
12
Frame=12 idx=010751 GeodesicLength=0.5122119509665535 rxn_smarts="[N:1]([c:2]1[c:3]([H:10])[o:4][n:5][c:6]1[N:7]([H:11])[H:12])([H:8])[H:9]>>[N:1]([c:2]1[c:3]([H:10])[o:4][n:5]([H:12])/[c:6]1=[N:7]/[H:11])([H:8])[H:9]"
N        0.14062936       1.77562656      -0.20993795
C        0.42620090       0.43559062       0.06233316
C        1.50726426      -0.32805233      -0.18506859
O        1.19933089      -1.64318659      -0.23447849
N       -0.09310614      -1.76193451       0.26006569
C       -0.58196292      -0.51484384       0.45832007
N       -1.90432577      -0.60542109       0.29026242
H       -0.42250293       2.20848258       0.50810572
H        0.96666763       2.33112731      -0.36777877
H        2.52946930      -0.07950290      -0.42376451
H       -2.30199890       0.19500688      -0.18433778
H       -1.46566568      -2.01289268       0.02627903
12
Frame=13 idx=010751 GeodesicLength=0.556377339272014 rxn_smarts="[N:1]([c:2]1[c:3]([H:10])[o:4][n:5][c:6]1[N:7]([H:11])[H:12])([H:8])[H:9]>>[N:1]([c:2]1[c:3]([H:10])[o:4][n:5]([H:12])/[c:6]1=[N:7]/[H:11])([H:8])[H:9]"
N        0.12918776       1.76913624      -0.20641118
C        0.42638416       0.43319991       0.07599752
C        1.50598942      -0.32789196      -0.18193455
O        1.19537728      -1.64186596      -0.23757316
N       -0.08891656      -1.76675024       0.27821864
C       -0.57894941      -0.51809338       0.48120861
N       -1.89844204      -0.60175154       0.28334409
H       -0.41871342       2.20901319       0.51920920
H        0.94935622       2.32550483      -0.38972120
H        2.52521248      -0.07844366      -0.43192343
H       -2.27563639       0.20810627      -0.19208128
H       -1.47084950      -2.01016370       0.00166674
12
Frame=14 idx=010751 GeodesicLength=0.6006903209263152 rxn_smarts="[N:1]([c:2]1[c:3]([H:10])[o:4][n:5][c:6]1[N:7]([H:11])[H:12])([H:8])[H:9]>>[N:1]([c:2]1[c:3]([H:10])[o:4][n:5]([H:12])/[c:6]1=[N:7]/[H:11])([H:8])[H:9]"
N        0.11793923       1.76268816      -0.20277152
C        0.42654205       0.43084879       0.08913714
C        1.50481669      -0.32770002      -0.17836934
O        1.19158237      -1.64051198      -0.23986293
N       -0.08494618      -1.77151485       0.29525482
C       -0.57622273      -0.52129069       0.50279236
N       -1.89242425      -0.59803647       0.27680650
H       -0.41440621       2.20968833       0.53013556
H        0.93169416       2.31940403      -0.41173592
H        2.52091140      -0.07731222      -0.43966908
H       -2.24975697       0.22070127      -0.19886038
H       -1.47572956      -2.00696435      -0.02285721
12
Frame=15 idx=010751 GeodesicLength=0.6451550693327904 rxn_smarts="[N:1]([c:2]1[c:3]([H:10])[o:4][n:5][c:6]1[N:7]([H:11])[H:12])([H:8])[H:9]>>[N:1]([c:2]1[c:3]([H:10])[o:4][n:5]([H:12])/[c:6]1=[N:7]/[H:11])([H:8])[H:9]"
N        0.10684459       1.75631073      -0.19894637
C        0.42664237       0.42853844       0.10177409
C        1.50371926      -0.32746056      -0.17446405
O        1.18793669      -1.63911658      -0.24146752
N       -0.08115821      -1.77623062       0.31137427
C       -0.57377321      -0.52443979       0.52322342
N       -1.88632102      -0.59431524       0.27056807
H       -0.40938455       2.21057214       0.54108369
H        0.91359113       2.31277997      -0.43399829
H        2.51656971      -0.07607905      -0.44695840
H       -2.22432397       0.23278063      -0.20487842
H       -1.48034279      -2.00334008      -0.04731049
12
Frame=16 idx=010751 GeodesicLength=0.6896950663179456 rxn_smarts="[N:1]([c:2]1[c:3]([H:10])[o:4][n:5][c:6]1[N:7]([H:11])[H:12])([H:8])[H:9]>>[N:1]([c:2]1[c:3]([H:10])[o:4][n:5]([H:12])/[c:6]1=[N:7]/[H:11])([H:8])[H:9]"
N        0.09603402       1.75002280      -0.19516442
C        0.42671384       0.42626537       0.11375915
C        1.50268556      -0.32721017      -0.17051230
O        1.18439202      -1.63771365      -0.24264570
N       -0.07749625      -1.78088047       0.32672700
C       -0.57151179      -0.52750112       0.54260603
N       -1.88012611      -0.59059028       0.26476146
H       -0.40419530       2.21154790       0.55142108
H        0.89534742       2.30579514      -0.45574980
H        2.51231624      -0.07484832      -0.45364855
H       -2.19943915       0.24439482      -0.20992307
H       -1.48472052      -1.99928200      -0.07163088
