12
Frame=0 idx=005246 GeodesicLength=0.0 rxn_smarts="[C:1]([c:2]1[c:3]([H:10])[n:4]([H:11])[n:5][c:6]1[H:12])([H:7])([H:8])[H:9]>>[C:1]([C@:2]1(/[C:3](=[N:4]/[H:11])[H:10])[N:5]=[C:6]1[H:12])([H:7])([H:8])[H:9]"
C       -1.51200696      -0.33528247       0.14335369
C       -0.13123360       0.16787133      -0.10192216
C        0.94537654      -0.71290820      -0.38672310
N        2.13076398      -0.58927026       0.08046893
N        1.25166780       1.71621638       0.74411920
C        0.14539164       1.56425559       0.21468045
H       -2.26121413       0.40806329      -0.14549782
H       -1.68202596      -1.25722947      -0.41511333
H       -1.67583702      -0.57001700       1.20018248
H        0.67823066      -1.50509565      -1.09739244
H        2.78396519      -1.18602992      -0.42805434
H       -0.67307809       2.29942634       0.19189847
12
Frame=1 idx=005246 GeodesicLength=0.07932364601350417 rxn_smarts="[C:1]([c:2]1[c:3]([H:10])[n:4]([H:11])[n:5][c:6]1[H:12])([H:7])([H:8])[H:9]>>[C:1]([C@:2]1(/[C:3](=[N:4]/[H:11])[H:10])[N:5]=[C:6]1[H:12])([H:7])([H:8])[H:9]"
C       -1.51708677      -0.33608971       0.14724126
C       -0.13505008       0.16469053      -0.09650442
C        0.94148239      -0.71155094      -0.39661898
N        2.12966979      -0.54990693       0.05618367
N        1.23897041       1.66177031       0.78245509
C        0.15299626       1.56152191       0.19594645
H       -2.26490974       0.41261526      -0.13023523
H       -1.69482024      -1.24969051      -0.42247702
H       -1.67697819      -0.58242996       1.20186111
H        0.67653940      -1.53076814      -1.07529719
H        2.79355963      -1.15722489      -0.42353746
H       -0.64437287       2.31706305       0.16098272
12
Frame=2 idx=005246 GeodesicLength=0.15876956648031437 rxn_smarts="[C:1]([c:2]1[c:3]([H:10])[n:4]([H:11])[n:5][c:6]1[H:12])([H:7])([H:8])[H:9]>>[C:1]([C@:2]1(/[C:3](=[N:4]/[H:11])[H:10])[N:5]=[C:6]1[H:12])([H:7])([H:8])[H:9]"
C       -1.52216071      -0.33704493       0.15054911
C       -0.13889587       0.16173653      -0.09106179
C        0.93745721      -0.70980320      -0.40681414
N        2.12717977      -0.51154065       0.03191821
N        1.22656199       1.61024340       0.81321067
C        0.16050909       1.55799926       0.18048289
H       -2.26843757       0.41763357      -0.11360709
H       -1.70780881      -1.24074930      -0.43228478
H       -1.67806423      -0.59743015       1.20220009
H        0.67571377      -1.55661696      -1.05044656
H        2.80243549      -1.12826598      -0.41725580
H       -0.61449014       2.33383842       0.13310917
12
Frame=3 idx=005246 GeodesicLength=0.23822463124517892 rxn_smarts="[C:1]([c:2]1[c:3]([H:10])[n:4]([H:11])[n:5][c:6]1[H:12])([H:7])([H:8])[H:9]>>[C:1]([C@:2]1(/[C:3](=[N:4]/[H:11])[H:10])[N:5]=[C:6]1[H:12])([H:7])([H:8])[H:9]"
C       -1.52716402      -0.33818852       0.15338484
C       -0.14279877       0.15913941      -0.08602042
C        0.93331343      -0.70736939      -0.41820620
N        2.12336668      -0.47415439       0.00734425
N        1.21468248       1.56127642       0.83782611
C        0.16773246       1.55411960       0.16725073
H       -2.27195402       0.42276460      -0.09553908
H       -1.72091567      -1.23064536      -0.44400113
H       -1.67868771      -0.61466159       1.20137784
H        0.67578112      -1.58243865      -1.02307504
H        2.81048535      -1.09982558      -0.40852685
H       -0.58384133       2.34998343       0.10818496
12
Frame=4 idx=005246 GeodesicLength=0.317735848132414 rxn_smarts="[C:1]([c:2]1[c:3]([H:10])[n:4]([H:11])[n:5][c:6]1[H:12])([H:7])([H:8])[H:9]>>[C:1]([C@:2]1(/[C:3](=[N:4]/[H:11])[H:10])[N:5]=[C:6]1[H:12])([H:7])([H:8])[H:9]"
C       -1.53185011      -0.33963798       0.15591430
C       -0.14674782       0.15711615      -0.08178934
C        0.92902081      -0.70370354      -0.43194011
N        2.11833511      -0.43721277      -0.01862172
N        1.20351004       1.51473549       0.85684219
C        0.17439215       1.55028120       0.15554031
H       -2.27545577       0.42752819      -0.07580463
H       -1.73387189      -1.21961998      -0.45706719
H       -1.67815410      -0.63402426       1.19957905
H        0.67676122      -1.60734773      -0.99401079
H        2.81704744      -1.07376451      -0.39507949
H       -0.55298707       2.36564976       0.08643742
12
Frame=5 idx=005246 GeodesicLength=0.39727665731093975 rxn_smarts="[C:1]([c:2]1[c:3]([H:10])[n:4]([H:11])[n:5][c:6]1[H:12])([H:7])([H:8])[H:9]>>[C:1]([C@:2]1(/[C:3](=[N:4]/[H:11])[H:10])[N:5]=[C:6]1[H:12])([H:7])([H:8])[H:9]"
C       -1.53646507      -0.34131904       0.15816342
C       -0.15073947       0.15524337      -0.07798342
C        0.92435875      -0.69967213      -0.44710128
N        2.11203186      -0.40169090      -0.04489684
N        1.19316421       1.46984257       0.87154487
C        0.18075871       1.54619780       0.14504797
H       -2.27886346       0.43205118      -0.05492279
H       -1.74696908      -1.20774199      -0.47111532
H       -1.67718281      -0.65493460       1.19680234
H        0.67872193      -1.63138470      -0.96292551
H        2.82251294      -1.04739293      -0.37933789
H       -0.52132853       2.38080137       0.06672445
12
Frame=6 idx=005246 GeodesicLength=0.4768711547975498 rxn_smarts="[C:1]([c:2]1[c:3]([H:10])[n:4]([H:11])[n:5][c:6]1[H:12])([H:7])([H:8])[H:9]>>[C:1]([C@:2]1(/[C:3](=[N:4]/[H:11])[H:10])[N:5]=[C:6]1[H:12])([H:7])([H:8])[H:9]"
C       -1.54096732      -0.34328279       0.16028601
C       -0.15475671       0.15346863      -0.07459448
C        0.91925911      -0.69544016      -0.46354270
N        2.10467487      -0.36730683      -0.07204733
N        1.18370580       1.42640293       0.88236906
C        0.18678528       1.54191982       0.13543586
H       -2.28214859       0.43610114      -0.03301621
H       -1.76014462      -1.19523955      -0.48562856
H       -1.67574065      -0.67706752       1.19323636
H        0.68175249      -1.65370953      -0.93085784
H        2.82654726      -1.02125266      -0.36045807
H       -0.48896694       2.39540651       0.04881790
12
Frame=7 idx=005246 GeodesicLength=0.5565750037145978 rxn_smarts="[C:1]([c:2]1[c:3]([H:10])[n:4]([H:11])[n:5][c:6]1[H:12])([H:7])([H:8])[H:9]>>[C:1]([C@:2]1(/[C:3](=[N:4]/[H:11])[H:10])[N:5]=[C:6]1[H:12])([H:7])([H:8])[H:9]"
C       -1.54550003      -0.34548563       0.16235573
C       -0.15879617       0.15153226      -0.07133480
C        0.91363752      -0.69167663      -0.48018757
N        2.09629853      -0.33458173      -0.09917817
N        1.17509650       1.38405305       0.89006322
C        0.19265010       1.53724604       0.12649887
H       -2.28525069       0.43970820      -0.01055004
H       -1.77350515      -1.18227666      -0.50019229
H       -1.67436125      -0.69988562       1.18900089
H        0.68587498      -1.67402121      -0.89847056
H        2.82936964      -0.99392809      -0.33998118
H       -0.45551398       2.40931602       0.03197590
12
Frame=8 idx=005246 GeodesicLength=0.6364974292644957 rxn_smarts="[C:1]([c:2]1[c:3]([H:10])[n:4]([H:11])[n:5][c:6]1[H:12])([H:7])([H:8])[H:9]>>[C:1]([C@:2]1(/[C:3](=[N:4]/[H:11])[H:10])[N:5]=[C:6]1[H:12])([H:7])([H:8])[H:9]"
C       -1.55032330      -0.34782070       0.16426645
C       -0.16288611       0.14915502      -0.06778326
C        0.90745479      -0.68912931      -0.49549579
N        2.08671534      -0.30439362      -0.12412071
N        1.16696589       1.34248114       0.89578501
C        0.19862420       1.53194111       0.11822077
H       -2.28809392       0.44311617       0.01191969
H       -1.78721577      -1.16882129      -0.51481365
H       -1.67393743      -0.72300260       1.18395873
H        0.69106423      -1.69276519      -0.86515957
H        2.83183910      -0.96315102      -0.32192434
H       -0.42020703       2.42239030       0.01514667
12
Frame=9 idx=005246 GeodesicLength=0.7166396694469386 rxn_smarts="[C:1]([c:2]1[c:3]([H:10])[n:4]([H:11])[n:5][c:6]1[H:12])([H:7])([H:8])[H:9]>>[C:1]([C@:2]1(/[C:3](=[N:4]/[H:11])[H:10])[N:5]=[C:6]1[H:12])([H:7])([H:8])[H:9]"
C       -1.55480944      -0.35052377       0.16663840
C       -0.16696876       0.14684319      -0.06460178
C        0.90092912      -0.68665510      -0.51116618
N        2.07645717      -0.27538367      -0.14926002
N        1.15957065       1.30234769       0.89837504
C        0.20412527       1.52654673       0.10989321
H       -2.29071538       0.44558842       0.03543468
H       -1.80078146      -1.15527827      -0.52849370
H       -1.67262575      -0.74656349       1.17889686
H        0.69708052      -1.70793333      -0.83556832
H        2.83219427      -0.93365974      -0.29900827
H       -0.38445623       2.43467130      -0.00113991
12
Frame=10 idx=005246 GeodesicLength=0.7968602293357822 rxn_smarts="[C:1]([c:2]1[c:3]([H:10])[n:4]([H:11])[n:5][c:6]1[H:12])([H:7])([H:8])[H:9]>>[C:1]([C@:2]1(/[C:3](=[N:4]/[H:11])[H:10])[N:5]=[C:6]1[H:12])([H:7])([H:8])[H:9]"
C       -1.55955349      -0.35335714       0.16905967
C       -0.17110224       0.14418536      -0.06106784
C        0.89415385      -0.68533690      -0.52492070
N        2.06536239      -0.24906960      -0.17078811
N        1.15221982       1.26324708       0.89985903
C        0.20962159       1.52070850       0.10188851
H       -2.29316640       0.44770796       0.05883348
H       -1.81456344      -1.14151611      -0.54172936
H       -1.67222743      -0.77001681       1.17340363
H        0.70386874      -1.72124904      -0.80710541
H        2.83235788      -0.90133690      -0.27922344
H       -0.34697129       2.44603359      -0.01820947
12
Frame=11 idx=005246 GeodesicLength=0.8771979259520067 rxn_smarts="[C:1]([c:2]1[c:3]([H:10])[n:4]([H:11])[n:5][c:6]1[H:12])([H:7])([H:8])[H:9]>>[C:1]([C@:2]1(/[C:3](=[N:4]/[H:11])[H:10])[N:5]=[C:6]1[H:12])([H:7])([H:8])[H:9]"
C       -1.56430305      -0.35638663       0.17171371
C       -0.17527365       0.14142252      -0.05745872
C        0.88726203      -0.68462853      -0.53742138
N        2.05369565      -0.22478228      -0.18954545
N        1.14482029       1.22543884       0.90007059
C        0.21486617       1.51468521       0.09395435
H       -2.29542808       0.44924909       0.08260322
H       -1.82838801      -1.12756409      -0.55429832
H       -1.67199873      -0.79353634       1.16766692
H        0.71119108      -1.73239766      -0.78104908
H        2.83177430      -0.86798391      -0.26022988
H       -0.30821800       2.45648380      -0.03600597
12
Frame=12 idx=005246 GeodesicLength=0.9575525199844337 rxn_smarts="[C:1]([c:2]1[c:3]([H:10])[n:4]([H:11])[n:5][c:6]1[H:12])([H:7])([H:8])[H:9]>>[C:1]([C@:2]1(/[C:3](=[N:4]/[H:11])[H:10])[N:5]=[C:6]1[H:12])([H:7])([H:8])[H:9]"
C       -1.56907121      -0.35961341       0.17460650
C       -0.17949550       0.13863460      -0.05381361
C        0.88036053      -0.68436169      -0.54876541
N        2.04165106      -0.20222681      -0.20563970
N        1.13724480       1.18900822       0.89931163
C        0.21979847       1.50859226       0.08608433
H       -2.29756057       0.45018430       0.10685588
H       -1.84229609      -1.11339872      -0.56624612
H       -1.67188237      -0.81717462       1.16167797
H        0.71891232      -1.74167580      -0.75741517
H        2.83054465      -0.83397318      -0.24198339
H       -0.26820610       2.46600485      -0.05467292
12
Frame=13 idx=005246 GeodesicLength=1.038205248694945 rxn_smarts="[C:1]([c:2]1[c:3]([H:10])[n:4]([H:11])[n:5][c:6]1[H:12])([H:7])([H:8])[H:9]>>[C:1]([C@:2]1(/[C:3](=[N:4]/[H:11])[H:10])[N:5]=[C:6]1[H:12])([H:7])([H:8])[H:9]"
C       -1.57383525      -0.36301019       0.17769769
C       -0.18380209       0.13582173      -0.04996740
C        0.87342599      -0.68444773      -0.55870674
N        2.02912093      -0.18130787      -0.21872433
N        1.12919330       1.15383477       0.89804713
C        0.22434826       1.50240427       0.07843124
H       -2.29946663       0.45053292       0.13145407
H       -1.85615953      -1.09892121      -0.57761358
H       -1.67199041      -0.84093634       1.15535134
H        0.72691188      -1.74930911      -0.73590510
H        2.82890239      -0.79911681      -0.22543944
H       -0.22664883       2.47445558      -0.07462488
12
Frame=14 idx=005246 GeodesicLength=1.1188527213558639 rxn_smarts="[C:1]([c:2]1[c:3]([H:10])[n:4]([H:11])[n:5][c:6]1[H:12])([H:7])([H:8])[H:9]>>[C:1]([C@:2]1(/[C:3](=[N:4]/[H:11])[H:10])[N:5]=[C:6]1[H:12])([H:7])([H:8])[H:9]"
C       -1.57857700      -0.36660697       0.18104156
C       -0.18818462       0.13312198      -0.04613447
C        0.86657983      -0.68462271      -0.56776282
N        2.01641532      -0.16157309      -0.22954538
N        1.12079332       1.12008755       0.89619654
C        0.22845475       1.49632292       0.07087876
H       -2.30127295       0.45018419       0.15657332
H       -1.87005969      -1.08426253      -0.58829911
H       -1.67205463      -0.86480396       1.14878636
H        0.73507579      -1.75542930      -0.71688847
H        2.82664628      -0.76424135      -0.20925845
H       -0.18381640       2.48182328      -0.09558785
12
Frame=15 idx=005246 GeodesicLength=1.1996009567718668 rxn_smarts="[C:1]([c:2]1[c:3]([H:10])[n:4]([H:11])[n:5][c:6]1[H:12])([H:7])([H:8])[H:9]>>[C:1]([C@:2]1(/[C:3](=[N:4]/[H:11])[H:10])[N:5]=[C:6]1[H:12])([H:7])([H:8])[H:9]"
C       -1.58331872      -0.37038636       0.18458173
C       -0.19267201       0.13053946      -0.04222823
C        0.85980491      -0.68482248      -0.57589197
N        2.00351637      -0.14281028      -0.23824824
N        1.11194902       1.08764352       0.89403221
C        0.23206374       1.49034986       0.06358994
H       -2.30296598       0.44915355       0.18215402
H       -1.88398113      -1.06932996      -0.59840472
H       -1.67216825      -0.88882211       1.14187429
H        0.74335495      -1.76027916      -0.69988087
H        2.82389841      -0.72918708      -0.19385787
H       -0.13948131       2.48795103      -0.11772029
12
Frame=16 idx=005246 GeodesicLength=1.2804603846796738 rxn_smarts="[C:1]([c:2]1[c:3]([H:10])[n:4]([H:11])[n:5][c:6]1[H:12])([H:7])([H:8])[H:9]>>[C:1]([C@:2]1(/[C:3](=[N:4]/[H:11])[H:10])[N:5]=[C:6]1[H:12])([H:7])([H:8])[H:9]"
C       -1.58807501      -0.37433548       0.18827946
C       -0.19728528       0.12810699      -0.03826347
C        0.85310107      -0.68497199      -0.58318724
N        1.99045213      -0.12479906      -0.24512778
N        1.10264255       1.05641883       0.89168193
C        0.23514093       1.48453326       0.05664505
H       -2.30457287       0.44742942       0.20808291
H       -1.89791303      -1.05415635      -0.60792451
H       -1.67235765      -0.91292272       1.13459414
H        0.75171539      -1.76403240      -0.68460036
H        2.82069594      -0.69395563      -0.17924598
H       -0.09354416       2.49268512      -0.14093415
