14
Frame=0 idx=005618 GeodesicLength=0.0 rxn_smarts="[C:1]([C:2]1([H:10])[O:3][C:4]([H:11])([H:12])[C:5]([H:13])([H:14])[O:6]1)([H:7])([H:8])[H:9]>>[C:1]([O:3][C:4]([C:5]([O+:6]=[C-:2][H:10])([H:13])[H:14])([H:11])[H:12])([H:7])([H:8])[H:9]"
C       -1.86445480       0.16018054       0.24042773
C       -0.39914679      -1.22184840      -0.17923716
O       -0.42661448       0.22008668      -0.77351088
C        0.76802899       0.89105485      -0.34824327
C        1.57373737      -0.23307625       0.29356836
O        0.56189865      -1.07586265       0.81442402
H       -1.72526559      -0.12266306       1.27593163
H       -2.66304101      -0.38301223      -0.24306156
H       -1.98333519       1.24462759       0.12600389
H        0.01929107      -1.82521341      -1.00506197
H        1.24497777       1.33701631      -1.22178123
H        0.50478585       1.67356074       0.36849411
H        2.21456615       0.09848660       1.10884776
H        2.17457207      -0.76333735      -0.45680142
14
Frame=1 idx=005618 GeodesicLength=0.06175196154447338 rxn_smarts="[C:1]([C:2]1([H:10])[O:3][C:4]([H:11])([H:12])[C:5]([H:13])([H:14])[O:6]1)([H:7])([H:8])[H:9]>>[C:1]([O:3][C:4]([C:5]([O+:6]=[C-:2][H:10])([H:13])[H:14])([H:11])[H:12])([H:7])([H:8])[H:9]"
C       -1.86809115       0.15987785       0.23565387
C       -0.39314933      -1.23382403      -0.16317755
O       -0.42540131       0.22352285      -0.77215544
C        0.76822367       0.89288589      -0.34651563
C        1.57904074      -0.23194099       0.28724946
O        0.57269105      -1.07585872       0.81983963
H       -1.75552408      -0.12408480       1.27484396
H       -2.66487600      -0.37191571      -0.26442161
H       -1.98910593       1.24551663       0.13611675
H        0.02161092      -1.83616209      -0.99179268
H        1.24321318       1.34383263      -1.21890349
H        0.51234544       1.67246412       0.37622101
H        2.22816384       0.09959019       1.09588096
H        2.17085895      -0.76390381      -0.46883922
14
Frame=2 idx=005618 GeodesicLength=0.1234848646397572 rxn_smarts="[C:1]([C:2]1([H:10])[O:3][C:4]([H:11])([H:12])[C:5]([H:13])([H:14])[O:6]1)([H:7])([H:8])[H:9]>>[C:1]([O:3][C:4]([C:5]([O+:6]=[C-:2][H:10])([H:13])[H:14])([H:11])[H:12])([H:7])([H:8])[H:9]"
C       -1.87167403       0.15954535       0.23090698
C       -0.38706049      -1.24578998      -0.14653185
O       -0.42416138       0.22718085      -0.77076248
C        0.76847630       0.89478993      -0.34463750
C        1.58439197      -0.23084974       0.28073345
O        0.58377279      -1.07578258       0.82535660
H       -1.78651300      -0.12559928       1.27314667
H       -2.66619935      -0.36069585      -0.28585451
H       -1.99516946       1.24613135       0.14610157
H        0.02371866      -1.84708793      -0.97807502
H        1.24147587       1.35084718      -1.21579772
H        0.52005599       1.67130260       0.38414343
H        2.24204267       0.10057256       1.08242314
H        2.16684346      -0.76456444      -0.48115276
14
Frame=3 idx=005618 GeodesicLength=0.1851537809200675 rxn_smarts="[C:1]([C:2]1([H:10])[O:3][C:4]([H:11])([H:12])[C:5]([H:13])([H:14])[O:6]1)([H:7])([H:8])[H:9]>>[C:1]([O:3][C:4]([C:5]([O+:6]=[C-:2][H:10])([H:13])[H:14])([H:11])[H:12])([H:7])([H:8])[H:9]"
C       -1.87518288       0.15917972       0.22620958
C       -0.38086574      -1.25773291      -0.12931840
O       -0.42290185       0.23107801      -0.76933789
C        0.76878688       0.89676224      -0.34261681
C        1.58976319      -0.22980346       0.27402724
O        0.59513598      -1.07564462       0.83094219
H       -1.81818108      -0.12719706       1.27081205
H       -2.66699062      -0.34936876      -0.30728685
H       -2.00152379       1.24645833       0.15595077
H        0.02562200      -1.85795641      -0.96393928
H        1.23977867       1.35803252      -1.21246910
H        0.52791777       1.67008081       0.39223876
H        2.25612847       0.10143384       1.06849345
H        2.16251299      -0.76532227      -0.49370571
14
Frame=4 idx=005618 GeodesicLength=0.24678511036260445 rxn_smarts="[C:1]([C:2]1([H:10])[O:3][C:4]([H:11])([H:12])[C:5]([H:13])([H:14])[O:6]1)([H:7])([H:8])[H:9]>>[C:1]([O:3][C:4]([C:5]([O+:6]=[C-:2][H:10])([H:13])[H:14])([H:11])[H:12])([H:7])([H:8])[H:9]"
C       -1.87862367       0.15877053       0.22157180
C       -0.37456672      -1.26965428      -0.11152049
O       -0.42162508       0.23523211      -0.76788190
C        0.76916398       0.89880995      -0.34044963
C        1.59515672      -0.22880340       0.26712868
O        0.60679042      -1.07545469       0.83659943
H       -1.85052026      -0.12887827       1.26779739
H       -2.66725921      -0.33795610      -0.32868959
H       -2.00818459       1.24649925       0.16563830
H        0.02730191      -1.86875859      -0.94937904
H        1.23813447       1.36540238      -1.20891178
H        0.53594548       1.66879801       0.40051544
H        2.27043159       0.10216742       1.05408206
H        2.15785495      -0.76617432      -0.50650068
14
Frame=5 idx=005618 GeodesicLength=0.30836912115098447 rxn_smarts="[C:1]([C:2]1([H:10])[O:3][C:4]([H:11])([H:12])[C:5]([H:13])([H:14])[O:6]1)([H:7])([H:8])[H:9]>>[C:1]([O:3][C:4]([C:5]([O+:6]=[C-:2][H:10])([H:13])[H:14])([H:11])[H:12])([H:7])([H:8])[H:9]"
C       -1.88199162       0.15830991       0.21700531
C       -0.36815230      -1.28154535      -0.09312195
O       -0.42033393       0.23965654      -0.76639252
C        0.76960972       0.90093500      -0.33813378
C        1.60056261      -0.22785031       0.26003333
O        0.61874159      -1.07520931       0.84232419
H       -1.88352356      -0.13065646       1.26405609
H       -2.66699519      -0.32646047      -0.35004243
H       -2.01515070       1.24624840       0.17516113
H        0.02875212      -1.87948251      -0.93438203
H        1.23654880       1.37295648      -1.20511970
H        0.54414644       1.66745280       0.40897548
H        2.28493934       0.10276992       1.03917114
H        2.15284668      -0.76712465      -0.51953424
14
Frame=6 idx=005618 GeodesicLength=0.36993607698043635 rxn_smarts="[C:1]([C:2]1([H:10])[O:3][C:4]([H:11])([H:12])[C:5]([H:13])([H:14])[O:6]1)([H:7])([H:8])[H:9]>>[C:1]([O:3][C:4]([C:5]([O+:6]=[C-:2][H:10])([H:13])[H:14])([H:11])[H:12])([H:7])([H:8])[H:9]"
C       -1.88528764       0.15778617       0.21252229
C       -0.36162030      -1.29340654      -0.07410212
O       -0.41903242       0.24436666      -0.76487827
C        0.77013440       0.90315067      -0.33567201
C        1.60597528      -0.22694297       0.25274049
O        0.63099281      -1.07491117       0.84812494
H       -1.91719163      -0.13256329       1.25954874
H       -2.66620052      -0.31489034      -0.37133403
H       -2.02241778       1.24570419       0.18452032
H        0.02995104      -1.89013016      -0.91893850
H        1.23503829       1.38071304      -1.20110154
H        0.55254272       1.66605980       0.41762356
H        2.29965186       0.10324169       1.02375215
H        2.14746389      -0.76817777      -0.53280603
14
Frame=7 idx=005618 GeodesicLength=0.4313948330227364 rxn_smarts="[C:1]([C:2]1([H:10])[O:3][C:4]([H:11])([H:12])[C:5]([H:13])([H:14])[O:6]1)([H:7])([H:8])[H:9]>>[C:1]([O:3][C:4]([C:5]([O+:6]=[C-:2][H:10])([H:13])[H:14])([H:11])[H:12])([H:7])([H:8])[H:9]"
C       -1.88850690       0.15718949       0.20812202
C       -0.35494274      -1.30521690      -0.05444964
O       -0.41771656       0.24937705      -0.76329911
C        0.77071726       0.90542934      -0.33303279
C        1.61137809      -0.22609025       0.24522915
O        0.64355912      -1.07454855       0.85396747
H       -1.95145327      -0.13450652       1.25420429
H       -2.66485246      -0.30326417      -0.39251848
H       -2.03001028       1.24485251       0.19365979
H        0.03092311      -1.90065548      -0.90302475
H        1.23357996       1.38864062      -1.19678186
H        0.56109767       1.66456123       0.42648137
H        2.31454374       0.10356360       1.00776571
H        2.14168325      -0.76933195      -0.54632316
14
Frame=8 idx=005618 GeodesicLength=0.49282696110780266 rxn_smarts="[C:1]([C:2]1([H:10])[O:3][C:4]([H:11])([H:12])[C:5]([H:13])([H:14])[O:6]1)([H:7])([H:8])[H:9]>>[C:1]([O:3][C:4]([C:5]([O+:6]=[C-:2][H:10])([H:13])[H:14])([H:11])[H:12])([H:7])([H:8])[H:9]"
C       -1.89164301       0.15652031       0.20381924
C       -0.34810735      -1.31697042      -0.03411086
O       -0.41639645       0.25470844      -0.76167460
C        0.77137445       0.90780539      -0.33023283
C        1.61677001      -0.22528991       0.23750201
O        0.65645805      -1.07411815       0.85988865
H       -1.98637858      -0.13663693       1.24794749
H       -2.66293458      -0.29154757      -0.41363219
H       -2.03790663       1.24370609       0.20263851
H        0.03162891      -1.91108575      -0.88658707
H        1.23217831       1.39678169      -1.19220811
H        0.56986153       1.66300050       0.43553977
H        2.32964275       0.10372743       0.99119179
H        2.13545260      -0.77060111      -0.56008180
14
Frame=9 idx=005618 GeodesicLength=0.5541839892620497 rxn_smarts="[C:1]([C:2]1([H:10])[O:3][C:4]([H:11])([H:12])[C:5]([H:13])([H:14])[O:6]1)([H:7])([H:8])[H:9]>>[C:1]([O:3][C:4]([C:5]([O+:6]=[C-:2][H:10])([H:13])[H:14])([H:11])[H:12])([H:7])([H:8])[H:9]"
C       -1.89470238       0.15575635       0.19963225
C       -0.34111458      -1.32865675      -0.01311081
O       -0.41507892       0.26037550      -0.76001215
C        0.77211394       0.91026905      -0.32727709
C        1.62212881      -0.22454012       0.22956423
O        0.66966531      -1.07362277       0.86585903
H       -2.02188510      -0.13890736       1.24076777
H       -2.66046789      -0.27977160      -0.43460302
H       -2.04610878       1.24223538       0.21144020
H        0.03207403      -1.92137961      -0.86966694
H        1.23087651       1.40510747      -1.18737707
H        0.57883467       1.66137287       0.44478736
H        2.34488581       0.10374187       0.97405141
H        2.12877858      -0.77198026      -0.57405517
14
Frame=10 idx=005618 GeodesicLength=0.6154941469247122 rxn_smarts="[C:1]([C:2]1([H:10])[O:3][C:4]([H:11])([H:12])[C:5]([H:13])([H:14])[O:6]1)([H:7])([H:8])[H:9]>>[C:1]([O:3][C:4]([C:5]([O+:6]=[C-:2][H:10])([H:13])[H:14])([H:11])[H:12])([H:7])([H:8])[H:9]"
C       -1.89768276       0.15488832       0.19556833
C       -0.33394939      -1.34028107       0.00856707
O       -0.41376920       0.26640676      -0.75830281
C        0.77293507       0.91282743      -0.32415697
C        1.62744260      -0.22384459       0.22141332
O        0.68319338      -1.07307431       0.87187579
H       -2.05792253      -0.14131063       1.23260632
H       -2.65745151      -0.26796351      -0.45540648
H       -2.05462866       1.24045094       0.22003958
H        0.03224411      -1.93152942      -0.85225051
H        1.22967248       1.41362910      -1.18227196
H        0.58802757       1.65967582       0.45423323
H        2.36026547       0.10359634       0.95632342
H        2.12162338      -0.77347119      -0.58823835
14
Frame=11 idx=005618 GeodesicLength=0.6767417777841991 rxn_smarts="[C:1]([C:2]1([H:10])[O:3][C:4]([H:11])([H:12])[C:5]([H:13])([H:14])[O:6]1)([H:7])([H:8])[H:9]>>[C:1]([O:3][C:4]([C:5]([O+:6]=[C-:2][H:10])([H:13])[H:14])([H:11])[H:12])([H:7])([H:8])[H:9]"
C       -1.90058326       0.15390470       0.19163627
C       -0.32659709      -1.35182990       0.03093906
O       -0.41247404       0.27282242      -0.75654455
C        0.77383869       0.91548252      -0.32087125
C        1.63269453      -0.22320469       0.21304630
O        0.69704175      -1.07246652       0.87793371
H       -2.09445045      -0.14386473       1.22340698
H       -2.65388113      -0.25612404      -0.47602185
H       -2.06346201       1.23834072       0.22843968
H        0.03213244      -1.94151650      -0.83432091
H        1.22857590       1.42234395      -1.17688613
H        0.59744756       1.65790677       0.46387573
H        2.37575997       0.10328300       0.93798737
H        2.11395714      -0.77507770      -0.60262041
14
Frame=12 idx=005618 GeodesicLength=0.7379527276541937 rxn_smarts="[C:1]([C:2]1([H:10])[O:3][C:4]([H:11])([H:12])[C:5]([H:13])([H:14])[O:6]1)([H:7])([H:8])[H:9]>>[C:1]([O:3][C:4]([C:5]([O+:6]=[C-:2][H:10])([H:13])[H:14])([H:11])[H:12])([H:7])([H:8])[H:9]"
C       -1.90341185       0.15279022       0.18784220
C       -0.31904912      -1.36330049       0.05402608
O       -0.41120440       0.27964806      -0.75474002
C        0.77483253       0.91824633      -0.31741994
C        1.63787548      -0.22262135       0.20446285
O        0.71121480      -1.07180214       0.88403739
H       -2.13143202      -0.14659506       1.21312063
H       -2.64977086      -0.24426269      -0.49643948
H       -2.07260950       1.23589822       0.23663856
H        0.03171822      -1.95133306      -0.81585958
H        1.22760276       1.43126816      -1.17122108
H        0.60711753       1.65607287       0.47371843
H        2.39136780       0.10279304       0.91902705
H        2.10574863      -0.77680210      -0.61719310
14
Frame=13 idx=005618 GeodesicLength=0.7990643727089466 rxn_smarts="[C:1]([C:2]1([H:10])[O:3][C:4]([H:11])([H:12])[C:5]([H:13])([H:14])[O:6]1)([H:7])([H:8])[H:9]>>[C:1]([O:3][C:4]([C:5]([O+:6]=[C-:2][H:10])([H:13])[H:14])([H:11])[H:12])([H:7])([H:8])[H:9]"
C       -1.90615697       0.15153322       0.18418244
C       -0.31127672      -1.37467821       0.07783809
O       -0.40995070       0.28690447      -0.75286315
C        0.77589849       0.92110418      -0.31377263
C        1.64294949      -0.22210103       0.19564819
O        0.72571025      -1.07107468       0.89015934
H       -2.16874877      -0.14941850       1.20169140
H       -2.64508176      -0.23242005      -0.51661770
H       -2.08208483       1.23311423       0.24458121
H        0.03101283      -1.96095019      -0.79685250
H        1.22673691       1.44038283      -1.16521509
H        0.61700863       1.65413699       0.48379108
H        2.40703767       0.10211086       0.89939139
H        2.09694548      -0.77864413      -0.63196209
14
Frame=14 idx=005618 GeodesicLength=0.8600990859161629 rxn_smarts="[C:1]([C:2]1([H:10])[O:3][C:4]([H:11])([H:12])[C:5]([H:13])([H:14])[O:6]1)([H:7])([H:8])[H:9]>>[C:1]([O:3][C:4]([C:5]([O+:6]=[C-:2][H:10])([H:13])[H:14])([H:11])[H:12])([H:7])([H:8])[H:9]"
C       -1.90882246       0.15012892       0.18066570
C       -0.30325268      -1.38593285       0.10242503
O       -0.40873184       0.29461579      -0.75091368
C        0.77704610       0.92407053      -0.30994867
C        1.64790947      -0.22164409       0.18659711
O        0.74054322      -1.07025571       0.89631729
H       -2.20645663      -0.15249070       1.18901177
H       -2.63981118      -0.22051963      -0.53659410
H       -2.09186007       1.22997632       0.25236891
H        0.03000420      -1.97036278      -0.77722479
H        1.22599345       1.44969307      -1.15889820
H        0.62715470       1.65211929       0.49406413
H        2.42277719       0.10122260       0.87903689
H        2.08750653      -0.78062075      -0.64690740
14
Frame=15 idx=005618 GeodesicLength=0.9211594673160842 rxn_smarts="[C:1]([C:2]1([H:10])[O:3][C:4]([H:11])([H:12])[C:5]([H:13])([H:14])[O:6]1)([H:7])([H:8])[H:9]>>[C:1]([O:3][C:4]([C:5]([O+:6]=[C-:2][H:10])([H:13])[H:14])([H:11])[H:12])([H:7])([H:8])[H:9]"
C       -1.91144317       0.14854182       0.17728257
C       -0.29499799      -1.39708895       0.12781770
O       -0.40755610       0.30282189      -0.74890660
C        0.77830538       0.92717642      -0.30593884
C        1.65275978      -0.22124599       0.17731024
O        0.75571594      -1.06936999       0.90253654
H       -2.24447584      -0.15580217       1.17507500
H       -2.63401961      -0.20862802      -0.55637273
H       -2.10195891       1.22647483       0.25994646
H        0.02862114      -1.97958658      -0.75696929
H        1.22542248       1.45926323      -1.15226860
H        0.63761444       1.65003559       0.50457868
H        2.43862099       0.10013066       0.85795502
H        2.07739147      -0.78272275      -0.66204616
14
Frame=16 idx=005618 GeodesicLength=0.9820658829010169 rxn_smarts="[C:1]([C:2]1([H:10])[O:3][C:4]([H:11])([H:12])[C:5]([H:13])([H:14])[O:6]1)([H:7])([H:8])[H:9]>>[C:1]([O:3][C:4]([C:5]([O+:6]=[C-:2][H:10])([H:13])[H:14])([H:11])[H:12])([H:7])([H:8])[H:9]"
C       -1.91397115       0.14678258       0.17402425
C       -0.28643465      -1.40809170       0.15399816
O       -0.40641803       0.31154416      -0.74679233
C        0.77961712       0.93037958      -0.30170523
C        1.65742611      -0.22093124       0.16776937
O        0.77122506      -1.06839815       0.90873714
H       -2.28260318      -0.15923044       1.15980407
H       -2.62761255      -0.19676877      -0.57586724
H       -2.11239310       1.22259620       0.26724565
H        0.02693984      -1.98854813      -0.73606021
H        1.22496017       1.46902618      -1.14522076
H        0.64829678       1.64781561       0.51533852
H        2.45443452       0.09878789       0.83607153
H        2.06653305      -0.78496377      -0.67734292
