15
Frame=0 idx=010508 GeodesicLength=0.0 rxn_smarts="[C:1]([C:2]([C:3]([C:4](=[O:5])[C:6](=[O:7])[H:15])([H:13])[H:14])([H:11])[H:12])([H:8])([H:9])[H:10]>>[C:1]([C:2](=[C:3]([H:13])[H:14])[H:12])([H:8])([H:9])[H:10].[C:4](=[O:5])=[C:6]([O:7][H:11])[H:15]"
C       -1.63757628       0.11446365      -1.12195320
C       -0.93287321      -0.30316013       0.15303528
C       -0.19073835       0.62876379       0.88343186
C        1.95161529       0.60145562       0.31643174
O        2.37653108       1.68187029       0.22854837
C        1.94227729      -0.77620316       0.29613033
O        1.22195052      -1.41459702      -0.55559556
H       -2.58352230       0.61778511      -0.90818376
H       -1.85521502      -0.74532688      -1.75674339
H       -1.01665330       0.80106548      -1.70121196
H        0.07405044      -1.06125319      -0.29713142
H       -1.43657793      -1.07268786       0.73774940
H       -0.10130905       1.64844212       0.52487008
H       -0.05117591       0.50744210       1.95062005
H        2.23921669      -1.22805992       1.25000219
15
Frame=1 idx=010508 GeodesicLength=0.10711567812075919 rxn_smarts="[C:1]([C:2]([C:3]([C:4](=[O:5])[C:6](=[O:7])[H:15])([H:13])[H:14])([H:11])[H:12])([H:8])([H:9])[H:10]>>[C:1]([C:2](=[C:3]([H:13])[H:14])[H:12])([H:8])([H:9])[H:10].[C:4](=[O:5])=[C:6]([O:7][H:11])[H:15]"
C       -1.64292511       0.13347107      -1.12555784
C       -0.94171135      -0.30433250       0.14358611
C       -0.19677658       0.61793730       0.88546119
C        1.94312273       0.59731050       0.30580723
O        2.37596778       1.66766191       0.14832334
C        1.96432478      -0.78273283       0.32184960
O        1.24721438      -1.45851650      -0.50277910
H       -2.59457070       0.62278245      -0.90413325
H       -1.85149354      -0.71438835      -1.77926883
H       -1.02831846       0.83923760      -1.68821955
H        0.07168403      -1.06889996      -0.30574729
H       -1.45127481      -1.07794050       0.71770927
H       -0.11825168       1.64763722       0.55367803
H       -0.08137823       0.48538302       1.95460495
H        2.30438676      -1.20461042       1.27468613
15
Frame=2 idx=010508 GeodesicLength=0.21382408892125676 rxn_smarts="[C:1]([C:2]([C:3]([C:4](=[O:5])[C:6](=[O:7])[H:15])([H:13])[H:14])([H:11])[H:12])([H:8])([H:9])[H:10]>>[C:1]([C:2](=[C:3]([H:13])[H:14])[H:12])([H:8])([H:9])[H:10].[C:4](=[O:5])=[C:6]([O:7][H:11])[H:15]"
C       -1.64847969       0.15343410      -1.12910074
C       -0.95013723      -0.30557589       0.13314575
C       -0.20320746       0.60666704       0.88753459
C        1.93460743       0.59224836       0.29474440
O        2.37275030       1.64854151       0.06559396
C        1.98700313      -0.78856942       0.34906195
O        1.27139248      -1.50248092      -0.44367614
H       -2.60601001       0.62763169      -0.89977872
H       -1.84745237      -0.68141137      -1.80236902
H       -1.04090716       0.87892041      -1.67397621
H        0.07040139      -1.07573356      -0.31629512
H       -1.46532644      -1.08377652       0.69591273
H       -0.13444501       1.64552317       0.58286142
H       -0.11225997       0.46210667       1.95790309
H        2.37207061      -1.17752528       1.29843803
15
Frame=3 idx=010508 GeodesicLength=0.32004340769062023 rxn_smarts="[C:1]([C:2]([C:3]([C:4](=[O:5])[C:6](=[O:7])[H:15])([H:13])[H:14])([H:11])[H:12])([H:8])([H:9])[H:10]>>[C:1]([C:2](=[C:3]([H:13])[H:14])[H:12])([H:8])([H:9])[H:10].[C:4](=[O:5])=[C:6]([O:7][H:11])[H:15]"
C       -1.65419989       0.17414642      -1.13257286
C       -0.95811713      -0.30684837       0.12175732
C       -0.21003438       0.59509071       0.88956140
C        1.92618342       0.58629441       0.28344941
O        2.36709594       1.62424405      -0.01836350
C        2.01030098      -0.79353756       0.37734143
O        1.29398845      -1.54550420      -0.37837797
H       -2.61775956       0.63217765      -0.89529877
H       -1.84305080      -0.64666157      -1.82582649
H       -1.05433634       0.91967815      -1.65853410
H        0.07026829      -1.08201057      -0.32829311
H       -1.47877084      -1.08997536       0.67253765
H       -0.14982666       1.64218782       0.61207527
H       -0.14373805       0.43784500       1.96038592
H        2.44199659      -1.14712657       1.32015842
15
Frame=4 idx=010508 GeodesicLength=0.4257234858829183 rxn_smarts="[C:1]([C:2]([C:3]([C:4](=[O:5])[C:6](=[O:7])[H:15])([H:13])[H:14])([H:11])[H:12])([H:8])([H:9])[H:10]>>[C:1]([C:2](=[C:3]([H:13])[H:14])[H:12])([H:8])([H:9])[H:10].[C:4](=[O:5])=[C:6]([O:7][H:11])[H:15]"
C       -1.65995202       0.19535793      -1.13599527
C       -0.96570253      -0.30808828       0.10957494
C       -0.21726803       0.58335823       0.89151387
C        1.91790401       0.57955108       0.27207024
O        2.35930377       1.59479456      -0.10216564
C        2.03415810      -0.79747167       0.40611680
O        1.31462856      -1.58653277      -0.30735819
H       -2.62964651       0.63631022      -0.89102821
H       -1.83813086      -0.61050857      -1.84942094
H       -1.06833089       0.96097845      -1.64198531
H        0.07114412      -1.08821452      -0.34091876
H       -1.49180982      -1.09623195       0.64790892
H       -0.16444576       1.63777863       0.64109007
H       -0.17568330       0.41285938       1.96200213
H        2.51383114      -1.11394071       1.33859536
15
Frame=5 idx=010508 GeodesicLength=0.5307087466201017 rxn_smarts="[C:1]([C:2]([C:3]([C:4](=[O:5])[C:6](=[O:7])[H:15])([H:13])[H:14])([H:11])[H:12])([H:8])([H:9])[H:10]>>[C:1]([C:2](=[C:3]([H:13])[H:14])[H:12])([H:8])([H:9])[H:10].[C:4](=[O:5])=[C:6]([O:7][H:11])[H:15]"
C       -1.66562551       0.21679183      -1.13932640
C       -0.97289499      -0.30925903       0.09679023
C       -0.22482864       0.57159038       0.89334308
C        1.90993492       0.57220612       0.26089416
O        2.34980275       1.56040123      -0.18465124
C        2.05853060      -0.80022693       0.43479698
O        1.33337200      -1.62440470      -0.23171999
H       -2.64146745       0.63998321      -0.88715323
H       -1.83266666      -0.57338446      -1.87282152
H       -1.08263619       1.00221392      -1.62448627
H        0.07285991      -1.09478521      -0.35344170
H       -1.50445083      -1.10236363       0.62239855
H       -0.17835835       1.63243143       0.66967260
H       -0.20797609       0.38749047       1.96271472
H        2.58640452      -1.07868462       1.35299004
15
Frame=6 idx=010508 GeodesicLength=0.6350972289199228 rxn_smarts="[C:1]([C:2]([C:3]([C:4](=[O:5])[C:6](=[O:7])[H:15])([H:13])[H:14])([H:11])[H:12])([H:8])([H:9])[H:10]>>[C:1]([C:2](=[C:3]([H:13])[H:14])[H:12])([H:8])([H:9])[H:10].[C:4](=[O:5])=[C:6]([O:7][H:11])[H:15]"
C       -1.67118634       0.23824543      -1.14259476
C       -0.97979883      -0.31028780       0.08355626
C       -0.23270092       0.55993514       0.89499640
C        1.90231311       0.56436268       0.24997787
O        2.33909738       1.52147466      -0.26458496
C        2.08331356      -0.80178421       0.46303580
O        1.35037188      -1.65850331      -0.15215796
H       -2.65317748       0.64311310      -0.88391772
H       -1.82660896      -0.53562560      -1.89587351
H       -1.09714944       1.04301514      -1.60617113
H        0.07511784      -1.10209147      -0.36529181
H       -1.51680761      -1.10818263       0.59630711
H       -0.19169397       1.62633795       0.69765497
H       -0.24052115       0.36206899       1.96249076
H        2.65943092      -1.04207808       1.36257269
15
Frame=7 idx=010508 GeodesicLength=0.7388826587748372 rxn_smarts="[C:1]([C:2]([C:3]([C:4](=[O:5])[C:6](=[O:7])[H:15])([H:13])[H:14])([H:11])[H:12])([H:8])([H:9])[H:10]>>[C:1]([C:2](=[C:3]([H:13])[H:14])[H:12])([H:8])([H:9])[H:10].[C:4](=[O:5])=[C:6]([O:7][H:11])[H:15]"
C       -1.67667214       0.25957532      -1.14576325
C       -0.98641842      -0.31114111       0.06995581
C       -0.24080552       0.54848360       0.89638346
C        1.89515761       0.55610901       0.23943782
O        2.32768002       1.47838901      -0.34124326
C        2.10841809      -0.80216688       0.49067212
O        1.36600343      -1.68834187      -0.06937959
H       -2.66478641       0.64559691      -0.88132529
H       -1.82002383      -0.49744649      -1.91841597
H       -1.11194440       1.08315867      -1.58712834
H        0.07775700      -1.11025730      -0.37629151
H       -1.52874803      -1.11368177       0.56981416
H       -0.20452421       1.61963638       0.72487319
H       -0.27328166       0.33689321       1.96126714
H        2.73218847      -1.00480669       1.36714349
15
Frame=8 idx=010508 GeodesicLength=0.8422599857945641 rxn_smarts="[C:1]([C:2]([C:3]([C:4](=[O:5])[C:6](=[O:7])[H:15])([H:13])[H:14])([H:11])[H:12])([H:8])([H:9])[H:10]>>[C:1]([C:2](=[C:3]([H:13])[H:14])[H:12])([H:8])([H:9])[H:10].[C:4](=[O:5])=[C:6]([O:7][H:11])[H:15]"
C       -1.68218703       0.28071225      -1.14882200
C       -0.99278373      -0.31178907       0.05600841
C       -0.24911004       0.53733208       0.89742781
C        1.88857786       0.54746691       0.22930029
O        2.31604549       1.43152777      -0.41413926
C        2.13377988      -0.80147220       0.51774623
O        1.38061342      -1.71373721       0.01631805
H       -2.67645188       0.64725413      -0.87937699
H       -1.81293170      -0.45892876      -1.94043324
H       -1.12725016       1.12264760      -1.56735431
H        0.08066318      -1.11932574      -0.38645239
H       -1.54018849      -1.11890151       0.54298698
H       -0.21692958       1.61250098       0.75123436
H       -0.30629065       0.31221163       1.95898918
H        2.80444342      -0.96749886       1.36656688
15
Frame=9 idx=010508 GeodesicLength=0.9447989275676381 rxn_smarts="[C:1]([C:2]([C:3]([C:4](=[O:5])[C:6](=[O:7])[H:15])([H:13])[H:14])([H:11])[H:12])([H:8])([H:9])[H:10]>>[C:1]([C:2](=[C:3]([H:13])[H:14])[H:12])([H:8])([H:9])[H:10].[C:4](=[O:5])=[C:6]([O:7][H:11])[H:15]"
C       -1.68796871       0.30157276      -1.15158396
C       -0.99859531      -0.31227572       0.04164662
C       -0.25724441       0.52641243       0.89790923
C        1.88281663       0.53848304       0.21954965
O        2.30475626       1.38105053      -0.48315091
C        2.15943115      -0.79973011       0.54406199
O        1.39485302      -1.73428347       0.10376446
H       -2.68818120       0.64808824      -0.87750208
H       -1.80597754      -0.42013195      -1.96162781
H       -1.14349228       1.16128083      -1.54696684
H        0.08401274      -1.12894042      -0.39634792
H       -1.55034971      -1.12410789       0.51582680
H       -0.22877723       1.60485094       0.77647100
H       -0.33924982       0.28822878       1.95551045
H        2.87396642      -0.93049797       1.36243933
15
Frame=10 idx=010508 GeodesicLength=1.0469874608055822 rxn_smarts="[C:1]([C:2]([C:3]([C:4](=[O:5])[C:6](=[O:7])[H:15])([H:13])[H:14])([H:11])[H:12])([H:8])([H:9])[H:10]>>[C:1]([C:2](=[C:3]([H:13])[H:14])[H:12])([H:8])([H:9])[H:10].[C:4](=[O:5])=[C:6]([O:7][H:11])[H:15]"
C       -1.69434994       0.32209400      -1.15409529
C       -1.00399380      -0.31253101       0.02676284
C       -0.26530934       0.51596186       0.89764007
C        1.87809122       0.52909948       0.21041458
O        2.29462945       1.32746205      -0.54753613
C        2.18525814      -0.79717379       0.57012180
O        1.40884575      -1.75011379       0.19319683
H       -2.70045680       0.64767803      -0.87569920
H       -1.79930583      -0.38110350      -1.98211617
H       -1.16126734       1.19924106      -1.52591943
H        0.08778622      -1.13892820      -0.40626081
H       -1.55927921      -1.12934000       0.48828481
H       -0.24014522       1.59703071       0.80030818
H       -0.37243048       0.26535324       1.95065166
H        2.94192717      -0.89473013       1.35424628
15
Frame=11 idx=010508 GeodesicLength=1.1487630601592043 rxn_smarts="[C:1]([C:2]([C:3]([C:4](=[O:5])[C:6](=[O:7])[H:15])([H:13])[H:14])([H:11])[H:12])([H:8])([H:9])[H:10]>>[C:1]([C:2](=[C:3]([H:13])[H:14])[H:12])([H:8])([H:9])[H:10].[C:4](=[O:5])=[C:6]([O:7][H:11])[H:15]"
C       -1.70150808       0.34228118      -1.15628220
C       -1.00885605      -0.31255128       0.01125850
C       -0.27317112       0.50596041       0.89650723
C        1.87452175       0.51930722       0.20189486
O        2.28595635       1.27087072      -0.60743138
C        2.21121223      -0.79386255       0.59610945
O        1.42284381      -1.76112770       0.28441755
H       -2.71335963       0.64591236      -0.87370145
H       -1.79324225      -0.34173505      -2.00185097
H       -1.18092400       1.23655189      -1.50417246
H        0.09211474      -1.14897832      -0.41665132
H       -1.56662068      -1.13474907       0.46025407
H       -0.25101694       1.58905688       0.82266882
H       -0.40576156       0.24365334       1.94431559
H        3.00781143      -0.86059004       1.34266371
15
Frame=12 idx=010508 GeodesicLength=1.2504207504335318 rxn_smarts="[C:1]([C:2]([C:3]([C:4](=[O:5])[C:6](=[O:7])[H:15])([H:13])[H:14])([H:11])[H:12])([H:8])([H:9])[H:10]>>[C:1]([C:2](=[C:3]([H:13])[H:14])[H:12])([H:8])([H:9])[H:10].[C:4](=[O:5])=[C:6]([O:7][H:11])[H:15]"
C       -1.70968983       0.36215704      -1.15813686
C       -1.01316706      -0.31230235      -0.00499256
C       -0.28080020       0.49647836       0.89440742
C        1.87227305       0.50906340       0.19403824
O        2.27911629       1.21139421      -0.66285659
C        2.23729161      -0.78989991       0.62240537
O        1.43696892      -1.76732778       0.37763849
H       -2.72717669       0.64247557      -0.87143422
H       -1.78795426      -0.30185880      -2.02093911
H       -1.20298702       1.27341227      -1.48155765
H        0.09710811      -1.15886330      -0.42790734
H       -1.57222428      -1.14043909       0.43158538
H       -0.26140733       1.58108400       0.84348021
H       -0.43927861       0.22325559       1.93639937
H        3.07192730      -0.82862922       1.32786984
15
Frame=13 idx=010508 GeodesicLength=1.3515095789712326 rxn_smarts="[C:1]([C:2]([C:3]([C:4](=[O:5])[C:6](=[O:7])[H:15])([H:13])[H:14])([H:11])[H:12])([H:8])([H:9])[H:10]>>[C:1]([C:2](=[C:3]([H:13])[H:14])[H:12])([H:8])([H:9])[H:10].[C:4](=[O:5])=[C:6]([O:7][H:11])[H:15]"
C       -1.71908628       0.38175009      -1.15939367
C       -1.01660763      -0.31183722      -0.02214618
C       -0.28775118       0.48726367       0.89114865
C        1.87145614       0.49829255       0.18638195
O        2.27425994       1.14888752      -0.71441844
C        2.26360443      -0.78531763       0.64860443
O        1.45160457      -1.76855177       0.47193487
H       -2.74171261       0.63769021      -0.86809401
H       -1.78437977      -0.26134515      -2.03904189
H       -1.22756760       1.30956201      -1.45810248
H        0.10301160      -1.16812268      -0.44093226
H       -1.57540931      -1.14663309       0.40210834
H       -0.27100674       1.57281409       0.86265871
H       -0.47247986       0.20395715       1.92672031
H        3.13206429      -0.79840976       1.31257168
15
Frame=14 idx=010508 GeodesicLength=1.4527198665910348 rxn_smarts="[C:1]([C:2]([C:3]([C:4](=[O:5])[C:6](=[O:7])[H:15])([H:13])[H:14])([H:11])[H:12])([H:8])([H:9])[H:10]>>[C:1]([C:2](=[C:3]([H:13])[H:14])[H:12])([H:8])([H:9])[H:10].[C:4](=[O:5])=[C:6]([O:7][H:11])[H:15]"
C       -1.73023597       0.40099259      -1.16012964
C       -1.01931662      -0.31103048      -0.04044213
C       -0.29416620       0.47864250       0.88645586
C        1.87247990       0.48695972       0.17951041
O        2.27228290       1.08361262      -0.76134674
C        2.29007996      -0.78029679       0.67570219
O        1.46657927      -1.76481332       0.56803173
H       -2.75764390       0.63081444      -0.86371937
H       -1.78282850      -0.22011447      -2.05636917
H       -1.25570086       1.34526178      -1.43361157
H        0.11002578      -1.17632652      -0.45624058
H       -1.57614015      -1.15337734       0.37161108
H       -0.27989449       1.56470294       0.87978336
H       -0.50567277       0.18623741       1.91500257
H        3.19015164      -0.77126509       1.29576201
15
Frame=15 idx=010508 GeodesicLength=1.554033407700919 rxn_smarts="[C:1]([C:2]([C:3]([C:4](=[O:5])[C:6](=[O:7])[H:15])([H:13])[H:14])([H:11])[H:12])([H:8])([H:9])[H:10]>>[C:1]([C:2](=[C:3]([H:13])[H:14])[H:12])([H:8])([H:9])[H:10].[C:4](=[O:5])=[C:6]([O:7][H:11])[H:15]"
C       -1.74339813       0.41988441      -1.16020157
C       -1.02114641      -0.30982989      -0.06008844
C       -0.29983887       0.47056263       0.88013025
C        1.87548943       0.47498158       0.17331920
O        2.27341062       1.01538862      -0.80384821
C        2.31672309      -0.77488093       0.70381774
O        1.48186422      -1.75589468       0.66594618
H       -2.77500200       0.62172603      -0.85787457
H       -1.78393211      -0.17798454      -2.07281319
H       -1.28777061       1.38041472      -1.40792042
H        0.11838540      -1.18298007      -0.47460865
H       -1.57399455      -1.16075587       0.33983730
H       -0.28790573       1.55669991       0.89471803
H       -0.53860135       0.17005046       1.90103739
H        3.24571699      -0.74738238       1.27854897
15
Frame=16 idx=010508 GeodesicLength=1.655635726374221 rxn_smarts="[C:1]([C:2]([C:3]([C:4](=[O:5])[C:6](=[O:7])[H:15])([H:13])[H:14])([H:11])[H:12])([H:8])([H:9])[H:10]>>[C:1]([C:2](=[C:3]([H:13])[H:14])[H:12])([H:8])([H:9])[H:10].[C:4](=[O:5])=[C:6]([O:7][H:11])[H:15]"
C       -1.75896832       0.43836867      -1.15948619
C       -1.02198809      -0.30810366      -0.08136351
C       -0.30460670       0.46313852       0.87187347
C        1.88073478       0.46223571       0.16792359
O        2.27813015       0.94403138      -0.84174710
C        2.34346485      -0.76916920       0.73336693
O        1.49722543      -1.74149487       0.76603293
H       -2.79404215       0.60981303      -0.85024264
H       -1.78819648      -0.13472775      -2.08836722
H       -1.32461614       1.41505616      -1.38063849
H        0.12836668      -1.18746241      -0.49687726
H       -1.56852922      -1.16878746       0.30647005
H       -0.29484859       1.54893855       0.90714711
H       -0.57106788       0.15558931       1.88452337
H        3.29894168      -0.72742599       1.26138496
