14
Frame=0 idx=003803 GeodesicLength=0.0 rxn_smarts="[C:1]([C@@:2]1([H:10])[C@@:3]2([H:11])[C:4]([H:12])([H:13])[O:5][C@@:6]12[H:14])([H:7])([H:8])[H:9]>>[C:1]([C:2]([C@@:3]1([H:11])[C:4]([H:12])([H:13])[O+:5]=[C-:6]1)([H:10])[H:14])([H:7])([H:8])[H:9]"
C        1.50985643      -0.18715504       0.46554725
C        0.60185232       0.65732420      -0.38092174
C       -0.70858680       0.16627634      -0.88679663
C       -1.30510369      -0.89335944       0.01831097
O       -1.39232622       0.07760061       1.08300778
C       -1.12204766       1.14704787       0.22456297
H        0.99507491      -0.52269141       1.36827243
H        2.39058772       0.37706475       0.77162807
H        1.84314077      -1.07521977      -0.07830531
H        1.07079710       1.35392252      -1.07066676
H       -0.95503870       0.27398532      -1.93491871
H       -0.69534713      -1.76166791       0.28099136
H       -2.30286707      -1.21731778      -0.27942245
H        0.07000801       1.60418973       0.41871078
14
Frame=1 idx=003803 GeodesicLength=0.05786731942080611 rxn_smarts="[C:1]([C@@:2]1([H:10])[C@@:3]2([H:11])[C:4]([H:12])([H:13])[O:5][C@@:6]12[H:14])([H:7])([H:8])[H:9]>>[C:1]([C:2]([C@@:3]1([H:11])[C:4]([H:12])([H:13])[O+:5]=[C-:6]1)([H:10])[H:14])([H:7])([H:8])[H:9]"
C        1.51778539      -0.18935436       0.45988592
C        0.60197050       0.66176233      -0.37230861
C       -0.70451438       0.16145732      -0.88278944
C       -1.31268552      -0.89259250       0.02112520
O       -1.41740496       0.08583316       1.07771551
C       -1.12734847       1.14678502       0.21820097
H        1.00764321      -0.53890625       1.35990371
H        2.39658712       0.37509817       0.77136243
H        1.85521810      -1.06759480      -0.09707238
H        1.06929096       1.35540939      -1.06636417
H       -0.94366338       0.26338030      -1.93325930
H       -0.70756156      -1.75771076       0.30362084
H       -2.30509691      -1.22246601      -0.28815026
H        0.06977990       1.61889899       0.42812956
14
Frame=2 idx=003803 GeodesicLength=0.11568268384671809 rxn_smarts="[C:1]([C@@:2]1([H:10])[C@@:3]2([H:11])[C:4]([H:12])([H:13])[O:5][C@@:6]12[H:14])([H:7])([H:8])[H:9]>>[C:1]([C:2]([C@@:3]1([H:11])[C:4]([H:12])([H:13])[O+:5]=[C-:6]1)([H:10])[H:14])([H:7])([H:8])[H:9]"
C        1.52582092      -0.19163361       0.45400994
C        0.60205567       0.66614048      -0.36340196
C       -0.70037130       0.15655056      -0.87856478
C       -1.32031052      -0.89176240       0.02407457
O       -1.44328716       0.09443276       1.07176746
C       -1.13262591       1.14660396       0.21168435
H        1.02055827      -0.55561864       1.35102465
H        2.40265014       0.37295514       0.77104975
H        1.86736641      -1.05959374      -0.11626439
H        1.06768470       1.35686922      -1.06175788
H       -0.93201845       0.25253600      -1.93134789
H       -0.72005916      -1.75319009       0.32689772
H       -2.30695412      -1.22796976      -0.29694892
H        0.06949050       1.63368011       0.43777737
14
Frame=3 idx=003803 GeodesicLength=0.17349056192903242 rxn_smarts="[C:1]([C@@:2]1([H:10])[C@@:3]2([H:11])[C:4]([H:12])([H:13])[O:5][C@@:6]12[H:14])([H:7])([H:8])[H:9]>>[C:1]([C:2]([C@@:3]1([H:11])[C:4]([H:12])([H:13])[O+:5]=[C-:6]1)([H:10])[H:14])([H:7])([H:8])[H:9]"
C        1.53397746      -0.19399311       0.44791150
C        0.60211452       0.67045091      -0.35418994
C       -0.69616380       0.15155260      -0.87412006
C       -1.32799340      -0.89086646       0.02717011
O       -1.47001387       0.10341477       1.06510385
C       -1.13788429       1.14650522       0.20501150
H        1.03383672      -0.57285771       1.34159957
H        2.40879395       0.37062910       0.77070675
H        1.87960190      -1.05118457      -0.13590545
H        1.06598711       1.35830528      -1.05683491
H       -0.92010663       0.24144051      -1.92918560
H       -0.73286806      -1.74805890       0.35085332
H       -2.30842924      -1.23386558      -0.30579950
H        0.06914763       1.64852795       0.44767886
14
Frame=4 idx=003803 GeodesicLength=0.2312739446346868 rxn_smarts="[C:1]([C@@:2]1([H:10])[C@@:3]2([H:11])[C:4]([H:12])([H:13])[O:5][C@@:6]12[H:14])([H:7])([H:8])[H:9]>>[C:1]([C:2]([C@@:3]1([H:11])[C:4]([H:12])([H:13])[O+:5]=[C-:6]1)([H:10])[H:14])([H:7])([H:8])[H:9]"
C        1.54225257      -0.19643847       0.44157805
C        0.60214512       0.67468274      -0.34465755
C       -0.69189139       0.14646342      -0.86944294
C       -1.33572991      -0.88989638       0.03042545
O       -1.49761322       0.11279639       1.05764634
C       -1.14311880       1.14649091       0.19817472
H        1.04748202      -0.59066076       1.33157174
H        2.41500614       0.36810429       0.77034406
H        1.89192680      -1.04233638      -0.15601403
H        1.06418994       1.35971637      -1.05157347
H       -0.90792129       0.23008696      -1.92675206
H       -0.74600184      -1.74225983       0.37552555
H       -2.30948020      -1.24018354      -0.31467479
H        0.06875406       1.66343430       0.45784892
14
Frame=5 idx=003803 GeodesicLength=0.289029688291938 rxn_smarts="[C:1]([C@@:2]1([H:10])[C@@:3]2([H:11])[C:4]([H:12])([H:13])[O:5][C@@:6]12[H:14])([H:7])([H:8])[H:9]>>[C:1]([C:2]([C@@:3]1([H:11])[C:4]([H:12])([H:13])[O+:5]=[C-:6]1)([H:10])[H:14])([H:7])([H:8])[H:9]"
C        1.55064698      -0.19897410       0.43499729
C        0.60214789       0.67882472      -0.33478990
C       -0.68755546       0.14128212      -0.86452297
C       -1.34352010      -0.88884457       0.03385541
O       -1.52611569       0.12259350       1.04931115
C       -1.14832553       1.14656191       0.19116823
H        1.06149870      -0.60906544       1.32088169
H        2.42127965       0.36536482       0.76997595
H        1.90434667      -1.03301331      -0.17661040
H        1.06228892       1.36110297      -1.04595225
H       -0.89545834       0.21846682      -1.92403091
H       -0.75947942      -1.73573066       0.40095349
H       -2.31006890      -1.24695839      -0.32354387
H        0.06831464       1.67838961       0.46830709
14
Frame=6 idx=003803 GeodesicLength=0.3467548169657949 rxn_smarts="[C:1]([C@@:2]1([H:10])[C@@:3]2([H:11])[C:4]([H:12])([H:13])[O:5][C@@:6]12[H:14])([H:7])([H:8])[H:9]>>[C:1]([C:2]([C@@:3]1([H:11])[C:4]([H:12])([H:13])[O+:5]=[C-:6]1)([H:10])[H:14])([H:7])([H:8])[H:9]"
C        1.55916090      -0.20160471       0.42815606
C        0.60212328       0.68286475      -0.32457158
C       -0.68315775       0.13600773      -0.85934952
C       -1.35136396      -0.88770258       0.03747646
O       -1.55555082       0.13282147       1.04000523
C       -1.15349988       1.14671858       0.18398635
H        1.07588961      -0.62811218       1.30946239
H        2.42760591       0.36239213       0.76961953
H        1.91686776      -1.02317485      -0.19771596
H        1.06027953       1.36246648      -1.03994820
H       -0.88271355       0.20657023      -1.92100526
H       -0.77332142      -1.72840169       0.42717883
H       -2.31015410      -1.25422777      -0.33236978
H        0.06783449       1.69338240       0.47907544
14
Frame=7 idx=003803 GeodesicLength=0.4044463666079353 rxn_smarts="[C:1]([C@@:2]1([H:10])[C@@:3]2([H:11])[C:4]([H:12])([H:13])[O:5][C@@:6]12[H:14])([H:7])([H:8])[H:9]>>[C:1]([C:2]([C@@:3]1([H:11])[C:4]([H:12])([H:13])[O+:5]=[C-:6]1)([H:10])[H:14])([H:7])([H:8])[H:9]"
C        1.56779384      -0.20433506       0.42104064
C        0.60207195       0.68678967      -0.31398676
C       -0.67870052       0.13063933      -0.85391200
C       -1.35926127      -0.88646136       0.04130654
O       -1.58594596       0.14349384       1.02962543
C       -1.15863636       1.14696031       0.17662429
H        1.09065549      -0.64784237       1.29723953
H        2.43397499       0.35916494       0.76929453
H        1.92949620      -1.01277652      -0.21935155
H        1.05815733       1.36380867      -1.03353700
H       -0.86968368       0.19438716      -1.91765758
H       -0.78754973      -1.72019582       0.45424403
H       -2.30969151      -1.26203216      -0.34110849
H        0.06731923       1.70839935       0.49017839
14
Frame=8 idx=003803 GeodesicLength=0.46209960616186097 rxn_smarts="[C:1]([C@@:2]1([H:10])[C@@:3]2([H:11])[C:4]([H:12])([H:13])[O:5][C@@:6]12[H:14])([H:7])([H:8])[H:9]>>[C:1]([C:2]([C@@:3]1([H:11])[C:4]([H:12])([H:13])[O+:5]=[C-:6]1)([H:10])[H:14])([H:7])([H:8])[H:9]"
C        1.57654380      -0.20717002       0.41363671
C        0.60199497       0.69058572      -0.30301913
C       -0.67418601       0.12517554      -0.84819986
C       -1.36721091      -0.88511085       0.04536584
O       -1.61732372       0.15462218       1.01805714
C       -1.16372854       1.14728550       0.16907731
H        1.10579545      -0.66829933       1.28412946
H        2.44037396       0.35565769       0.76902393
H        1.94223563      -1.00176778      -0.24153802
H        1.05591685       1.36513253      -1.02669223
H       -0.85636565       0.18190557      -1.91396975
H       -0.80218882      -1.71102761       0.48219313
H       -2.30863122      -1.27041380      -0.34970798
H        0.06677422       1.72342466       0.50164344
14
Frame=9 idx=003803 GeodesicLength=0.5197131089621966 rxn_smarts="[C:1]([C@@:2]1([H:10])[C@@:3]2([H:11])[C:4]([H:12])([H:13])[O:5][C@@:6]12[H:14])([H:7])([H:8])[H:9]>>[C:1]([C:2]([C@@:3]1([H:11])[C:4]([H:12])([H:13])[O+:5]=[C-:6]1)([H:10])[H:14])([H:7])([H:8])[H:9]"
C        1.58540841      -0.21011522       0.40592839
C        0.60189333       0.69423698      -0.29165280
C       -0.66961760       0.11961526      -0.84220291
C       -1.37521224      -0.88363936       0.04967702
O       -1.64970700       0.16621758       1.00517215
C       -1.16876855       1.14769250       0.16134127
H        1.12130283      -0.68953438       1.27003422
H        2.44678564       0.35184155       0.76884085
H        1.95509843      -0.99008904      -0.26429887
H        1.05355429       1.36644044      -1.01938729
H       -0.84275930       0.16911452      -1.90992298
H       -0.81726357      -1.70079874       0.51107445
H       -2.30692135      -1.27942213      -0.35810386
H        0.06620669       1.73844002       0.51350037
14
Frame=10 idx=003803 GeodesicLength=0.5772840091512408 rxn_smarts="[C:1]([C@@:2]1([H:10])[C@@:3]2([H:11])[C:4]([H:12])([H:13])[O:5][C@@:6]12[H:14])([H:7])([H:8])[H:9]>>[C:1]([C:2]([C@@:3]1([H:11])[C:4]([H:12])([H:13])[O+:5]=[C-:6]1)([H:10])[H:14])([H:7])([H:8])[H:9]"
C        1.59438344      -0.21317647       0.39789911
C        0.60176832       0.69772665      -0.27987177
C       -0.66499881       0.11395697      -0.83591135
C       -1.38326356      -0.88203382       0.05426557
O       -1.68311201       0.17828776       0.99082804
C       -1.17374743       1.14817820       0.15341262
H        1.13716781      -0.71160084       1.25484308
H        2.45318880       0.34768162       0.76878372
H        1.96809577      -0.97767228      -0.28765680
H        1.05106488       1.36773577      -1.01159373
H       -0.82886538       0.15600124      -1.90549808
H       -0.83280142      -1.68939965       0.54093740
H       -2.30450403      -1.28910887      -0.36622036
H        0.06562362       1.75342372       0.52578254
14
Frame=11 idx=003803 GeodesicLength=0.6348099033669614 rxn_smarts="[C:1]([C@@:2]1([H:10])[C@@:3]2([H:11])[C:4]([H:12])([H:13])[O:5][C@@:6]12[H:14])([H:7])([H:8])[H:9]>>[C:1]([C:2]([C@@:3]1([H:11])[C:4]([H:12])([H:13])[O+:5]=[C-:6]1)([H:10])[H:14])([H:7])([H:8])[H:9]"
C        1.60346287      -0.21635951       0.38953197
C        0.60162163       0.70103685      -0.26766042
C       -0.66033370       0.10819900      -0.82931610
C       -1.39136260      -0.88028025       0.05915949
O       -1.71754671       0.19083487       0.97486787
C       -1.17865524       1.14873749       0.14528994
H        1.15337609      -0.73455144       1.23843290
H        2.45955894       0.34313679       0.76889571
H        1.98123807      -0.96444238      -0.31163132
H        1.04844407       1.36902284      -1.00328214
H       -0.81468640       0.14255245      -1.90067580
H       -0.84883169      -1.67670950       0.57182945
H       -2.30131738      -1.29952852      -0.37396829
H        0.06503206       1.76835133       0.53852674
14
Frame=12 idx=003803 GeodesicLength=0.6922887193441393 rxn_smarts="[C:1]([C@@:2]1([H:10])[C@@:3]2([H:11])[C:4]([H:12])([H:13])[O:5][C@@:6]12[H:14])([H:7])([H:8])[H:9]>>[C:1]([C:2]([C@@:3]1([H:11])[C:4]([H:12])([H:13])[O+:5]=[C-:6]1)([H:10])[H:14])([H:7])([H:8])[H:9]"
C        1.61263864      -0.21967031       0.38080993
C        0.60145488       0.70414823      -0.25500408
C       -0.65562722       0.10233989      -0.82240927
C       -1.39950616      -0.87836341       0.06438927
O       -1.75300898       0.20385417       0.95711958
C       -1.18348112       1.14936294       0.13697473
H        1.16990747      -0.75843785       1.22066682
H        2.46586758       0.33815849       0.76922627
H        1.99453685      -0.95031603      -0.33623788
H        1.04568710       1.37030626      -0.99442297
H       -0.80022758       0.12875530      -1.89543738
H       -0.86538484      -1.66259479       0.60379544
H       -2.29729566      -1.31073808      -0.38124322
H        0.06443903       1.78319519       0.55177276
14
Frame=13 idx=003803 GeodesicLength=0.7497209215097939 rxn_smarts="[C:1]([C@@:2]1([H:10])[C@@:3]2([H:11])[C:4]([H:12])([H:13])[O:5][C@@:6]12[H:14])([H:7])([H:8])[H:9]>>[C:1]([C:2]([C@@:3]1([H:11])[C:4]([H:12])([H:13])[O+:5]=[C-:6]1)([H:10])[H:14])([H:7])([H:8])[H:9]"
C        1.62190039      -0.22311513       0.37171702
C        0.60126987       0.70704063      -0.24188981
C       -0.65088522       0.09637818      -0.81518521
C       -1.40769019      -0.87626741       0.06998824
O       -1.78948169       0.21733220       0.93739743
C       -1.18821394       1.15004539       0.12847266
H        1.18673575      -0.78330936       1.20139466
H        2.47208144       0.33268961       0.76983238
H        2.00800411      -0.93520233      -0.36148557
H        1.04278899       1.37159123      -0.98498842
H       -0.78549820       0.11459769      -1.88976653
H       -0.88249232      -1.64691186       0.63687372
H       -2.29236993      -1.32279560      -0.38792360
H        0.06385094       1.79792676       0.56556303
14
Frame=14 idx=003803 GeodesicLength=0.8071141893590487 rxn_smarts="[C:1]([C@@:2]1([H:10])[C@@:3]2([H:11])[C:4]([H:12])([H:13])[O:5][C@@:6]12[H:14])([H:7])([H:8])[H:9]>>[C:1]([C:2]([C@@:3]1([H:11])[C:4]([H:12])([H:13])[O+:5]=[C-:6]1)([H:10])[H:14])([H:7])([H:8])[H:9]"
C        1.63123980      -0.22670071       0.36223987
C        0.60106812       0.70969135      -0.22830666
C       -0.64611670       0.09031340      -0.80764138
C       -1.41591012      -0.87397335       0.07599069
O       -1.82693373       0.23124123       0.91550346
C       -1.19284874       1.15077072       0.11979600
H        1.20383189      -0.80920499       1.18045722
H        2.47817043       0.32666135       0.77077625
H        2.02165699      -0.91900637      -0.38737235
H        1.03974344       1.37287965      -0.97495335
H       -0.77051502       0.10007082      -1.88365088
H       -0.90018410      -1.62950418       0.67109154
H       -2.28647121      -1.33575309      -0.39387142
H        0.06326895       1.81251418       0.57994101
14
Frame=15 idx=003803 GeodesicLength=0.8647534289590423 rxn_smarts="[C:1]([C@@:2]1([H:10])[C@@:3]2([H:11])[C:4]([H:12])([H:13])[O:5][C@@:6]12[H:14])([H:7])([H:8])[H:9]>>[C:1]([C:2]([C@@:3]1([H:11])[C:4]([H:12])([H:13])[O+:5]=[C-:6]1)([H:10])[H:14])([H:7])([H:8])[H:9]"
C        1.64075457      -0.23042258       0.35237832
C        0.60088309       0.71207243      -0.21423992
C       -0.64137771       0.08412777      -0.79981509
C       -1.42424413      -0.87146091       0.08241756
O       -1.86543317       0.24554615       0.89127543
C       -1.19746593       1.15151450       0.11099090
H        1.22124370      -0.83611496       1.15772876
H        2.48426535       0.32001634       0.77216707
H        2.03564662      -0.90163446      -0.41392082
H        1.03659516       1.37415088      -0.96431354
H       -0.75535688       0.08512713      -1.87717085
H       -0.91852978      -1.61018605       0.70646621
H       -2.27967040      -1.34966670      -0.39897984
H        0.06268951       1.82693045       0.59501579
14
Frame=16 idx=003803 GeodesicLength=0.9216953755272964 rxn_smarts="[C:1]([C@@:2]1([H:10])[C@@:3]2([H:11])[C:4]([H:12])([H:13])[O:5][C@@:6]12[H:14])([H:7])([H:8])[H:9]>>[C:1]([C:2]([C@@:3]1([H:11])[C:4]([H:12])([H:13])[O+:5]=[C-:6]1)([H:10])[H:14])([H:7])([H:8])[H:9]"
C        1.65003346      -0.23427842       0.34206411
C        0.60063163       0.71418028      -0.19967197
C       -0.63650330       0.07785557      -0.79155107
C       -1.43243728      -0.86872002       0.08934392
O       -1.90441848       0.26010517       0.86431020
C       -1.20172643       1.15221797       0.10197159
H        1.23860895      -0.86409170       1.13285845
H        2.48977313       0.31263394       0.77386957
H        2.04941796      -0.88290821      -0.44098128
H        1.03321429       1.37548188      -0.95291658
H       -0.73979125       0.06983543      -1.86994171
H       -0.93748841      -1.58883750       0.74289339
H       -2.27149329      -1.36455396      -0.40286519
H        0.06217902       1.84107957       0.61061658
