16
Frame=0 idx=007249 GeodesicLength=0.0 rxn_smarts="[C:1]([C:2]1([C:3]([H:11])([H:12])[H:13])[C:4]([H:14])([H:15])[O:5][C:6]([H:16])=[N:7]1)([H:8])([H:9])[H:10]>>[C:1]([C:2]([C:3]([H:11])([H:12])[H:13])=[C:4]([H:14])[H:15])([H:8])([H:9])[H:10].[O:5]=[C:6]=[N:7][H:16]"
C        0.84252186       1.06974253       0.74244738
C        0.54039165      -0.32070944       0.27764970
C        1.46991622      -0.89604263      -0.74273739
C       -0.48113903      -1.04014749       0.79105959
O       -2.49501753       1.46833448       0.38913026
C       -2.13636328       0.74550994      -0.49561663
N       -1.40692562      -0.17522387      -0.97577099
H        0.89980325       1.75343080      -0.10731865
H        1.82052789       1.08473352       1.23180968
H        0.09047702       1.44031299       1.43639058
H        2.48734832      -0.92713036      -0.34349408
H        1.17689755      -1.90216319      -1.03824698
H        1.48888886      -0.26435934      -1.63334437
H       -0.63546555      -2.07233860       0.50596052
H       -1.10685973      -0.63758755       1.57861542
H       -2.55500193       0.67363817      -1.61653407
16
Frame=1 idx=007249 GeodesicLength=0.08534863804819291 rxn_smarts="[C:1]([C:2]1([C:3]([H:11])([H:12])[H:13])[C:4]([H:14])([H:15])[O:5][C:6]([H:16])=[N:7]1)([H:8])([H:9])[H:10]>>[C:1]([C:2]([C:3]([H:11])([H:12])[H:13])=[C:4]([H:14])[H:15])([H:8])([H:9])[H:10].[O:5]=[C:6]=[N:7][H:16]"
C        0.85173592       1.07300808       0.74160945
C        0.52610347      -0.30587156       0.25681960
C        1.47130751      -0.89751611      -0.74022889
C       -0.49791801      -1.02350623       0.77972078
O       -2.50404767       1.42590530       0.41587043
C       -2.11505844       0.77667940      -0.51560140
N       -1.38099086      -0.12242955      -1.02170256
H        0.93050185       1.76278757      -0.10152237
H        1.82294159       1.06596019       1.24430528
H        0.10001391       1.45126964       1.43197036
H        2.47823309      -0.94921249      -0.31728035
H        1.16791054      -1.89754993      -1.04596811
H        1.52350057      -0.26272489      -1.62737786
H       -0.65100949      -2.05671015       0.49625075
H       -1.09186790      -0.63195746       1.59664065
H       -2.63135607       0.59186820      -1.59350577
16
Frame=2 idx=007249 GeodesicLength=0.17084411417402212 rxn_smarts="[C:1]([C:2]1([C:3]([H:11])([H:12])[H:13])[C:4]([H:14])([H:15])[O:5][C:6]([H:16])=[N:7]1)([H:8])([H:9])[H:10]>>[C:1]([C:2]([C:3]([H:11])([H:12])[H:13])=[C:4]([H:14])[H:15])([H:8])([H:9])[H:10].[O:5]=[C:6]=[N:7][H:16]"
C        0.86061224       1.07640123       0.74123909
C        0.51072817      -0.28969656       0.23545212
C        1.47000626      -0.89789972      -0.73887697
C       -0.51543738      -1.00559515       0.76870187
O       -2.50896894       1.38379097       0.43679138
C       -2.10255713       0.80354209      -0.53598334
N       -1.35558177      -0.06701932      -1.06622087
H        0.96111182       1.77239610      -0.09448426
H        1.82457143       1.04637863       1.25675349
H        0.10981202       1.46250003       1.42855594
H        2.46556543      -0.97147248      -0.29289222
H        1.15559515      -1.89104860      -1.05598265
H        1.55569136      -0.26002677      -1.62129129
H       -0.66701695      -2.03998284       0.48722247
H       -1.07513274      -0.62695820       1.61525510
H       -2.68899898       0.50469057      -1.56423986
16
Frame=3 idx=007249 GeodesicLength=0.2567428122810805 rxn_smarts="[C:1]([C:2]1([C:3]([H:11])([H:12])[H:13])[C:4]([H:14])([H:15])[O:5][C:6]([H:16])=[N:7]1)([H:8])([H:9])[H:10]>>[C:1]([C:2]([C:3]([H:11])([H:12])[H:13])=[C:4]([H:14])[H:15])([H:8])([H:9])[H:10].[O:5]=[C:6]=[N:7][H:16]"
C        0.86797391       1.07965667       0.74118668
C        0.49403261      -0.27278001       0.21398158
C        1.46580763      -0.89707302      -0.73860125
C       -0.53344448      -0.98746675       0.75866559
O       -2.50737295       1.34562794       0.45229768
C       -2.09597056       0.82600655      -0.55620467
N       -1.33200877      -0.01153329      -1.10892774
H        0.98811782       1.78220795      -0.08643644
H        1.82504476       1.02692715       1.26742187
H        0.11995679       1.47261469       1.42787627
H        2.44936994      -0.99292547      -0.27084098
H        1.14060174      -1.88291352      -1.06762465
H        1.58426919      -0.25620684      -1.61510599
H       -0.68239581      -2.02342179       0.47997668
H       -1.05678913      -0.62356860       1.63440782
H       -2.72719270       0.41484835      -1.53207247
16
Frame=4 idx=007249 GeodesicLength=0.34365304158078835 rxn_smarts="[C:1]([C:2]1([C:3]([H:11])([H:12])[H:13])[C:4]([H:14])([H:15])[O:5][C:6]([H:16])=[N:7]1)([H:8])([H:9])[H:10]>>[C:1]([C:2]([C:3]([H:11])([H:12])[H:13])=[C:4]([H:14])[H:15])([H:8])([H:9])[H:10].[O:5]=[C:6]=[N:7][H:16]"
C        0.87482607       1.08313234       0.74065130
C        0.47674811      -0.25520819       0.19298012
C        1.45862369      -0.89576952      -0.73945970
C       -0.55068162      -0.96901346       0.75129127
O       -2.50836354       1.30367574       0.46680709
C       -2.09546167       0.84359827      -0.57360150
N       -1.30981642       0.04518968      -1.14764993
H        1.01517007       1.79134236      -0.07894519
H        1.82439486       1.00764652       1.27734818
H        0.12912331       1.48383352       1.42556946
H        2.42979894      -1.01439310      -0.25160630
H        1.12209622      -1.87367783      -1.08071397
H        1.60893161      -0.25242241      -1.60929303
H       -0.69701113      -2.00664480       0.47581025
H       -1.03521990      -0.62146103       1.65557060
H       -2.74315861       0.33017189      -1.50475866
16
Frame=5 idx=007249 GeodesicLength=0.43126434142285874 rxn_smarts="[C:1]([C:2]1([C:3]([H:11])([H:12])[H:13])[C:4]([H:14])([H:15])[O:5][C:6]([H:16])=[N:7]1)([H:8])([H:9])[H:10]>>[C:1]([C:2]([C:3]([H:11])([H:12])[H:13])=[C:4]([H:14])[H:15])([H:8])([H:9])[H:10].[O:5]=[C:6]=[N:7][H:16]"
C        0.88076767       1.08656090       0.74002430
C        0.45889823      -0.23747228       0.17284470
C        1.44887625      -0.89393290      -0.74129616
C       -0.56723830      -0.95084791       0.74661258
O       -2.50910202       1.26094920       0.47944477
C       -2.09826962       0.85776147      -0.58913321
N       -1.28955728       0.10171798      -1.18275883
H        1.04039354       1.79982382      -0.07165117
H        1.82288425       0.98893843       1.28604174
H        0.13773683       1.49512422       1.42348219
H        2.40767370      -1.03503485      -0.23532083
H        1.10113979      -1.86366594      -1.09467037
H        1.62942638      -0.24864885      -1.60397379
H       -0.71036397      -1.99041777       0.47492637
H       -1.01139004      -0.62080922       1.67795142
H       -2.74187540       0.24995370      -1.48252371
16
Frame=6 idx=007249 GeodesicLength=0.5194019062515516 rxn_smarts="[C:1]([C:2]1([C:3]([H:11])([H:12])[H:13])[C:4]([H:14])([H:15])[O:5][C:6]([H:16])=[N:7]1)([H:8])([H:9])[H:10]>>[C:1]([C:2]([C:3]([H:11])([H:12])[H:13])=[C:4]([H:14])[H:15])([H:8])([H:9])[H:10].[O:5]=[C:6]=[N:7][H:16]"
C        0.88547605       1.08977180       0.73929591
C        0.44038821      -0.21985214       0.15362539
C        1.43687505      -0.89156820      -0.74385475
C       -0.58322630      -0.93330015       0.74438725
O       -2.50820044       1.21878247       0.48980074
C       -2.10260925       0.86948156      -0.60354765
N       -1.27138364       0.15724667      -1.21474633
H        1.06290685       1.80769480      -0.06455308
H        1.82036633       0.97089371       1.29328199
H        0.14588318       1.50593438       1.42216068
H        2.38331924      -1.05461149      -0.22152740
H        1.07831639      -1.85300115      -1.10911099
H        1.64604619      -0.24478524      -1.59896307
H       -0.72213928      -1.97513932       0.47725608
H       -0.98530173      -0.62170370       1.70108255
H       -2.72671684       0.17415599      -1.46458730
16
Frame=7 idx=007249 GeodesicLength=0.608298986083676 rxn_smarts="[C:1]([C:2]1([C:3]([H:11])([H:12])[H:13])[C:4]([H:14])([H:15])[O:5][C:6]([H:16])=[N:7]1)([H:8])([H:9])[H:10]>>[C:1]([C:2]([C:3]([H:11])([H:12])[H:13])=[C:4]([H:14])[H:15])([H:8])([H:9])[H:10].[O:5]=[C:6]=[N:7][H:16]"
C        0.88973905       1.09290714       0.73843472
C        0.42159398      -0.20226975       0.13559383
C        1.42277229      -0.88893324      -0.74705340
C       -0.59820424      -0.91613193       0.74499682
O       -2.50846802       1.17459439       0.49904353
C       -2.10913387       0.87828585      -0.61605874
N       -1.25458961       0.21329594      -1.24304927
H        1.08473874       1.81463449      -0.05792018
H        1.81725561       0.95332353       1.29975601
H        0.15345244       1.51718602       1.42016309
H        2.35714675      -1.07335170      -0.21033974
H        1.05352168      -1.84200238      -1.12361501
H        1.65880950      -0.24134124      -1.59456013
H       -0.73269844      -1.96031284       0.48267404
H       -0.95715036      -0.62361588       1.72488650
H       -2.69878551       0.10373160      -1.45295206
16
Frame=8 idx=007249 GeodesicLength=0.697842804725874 rxn_smarts="[C:1]([C:2]1([C:3]([H:11])([H:12])[H:13])[C:4]([H:14])([H:15])[O:5][C:6]([H:16])=[N:7]1)([H:8])([H:9])[H:10]>>[C:1]([C:2]([C:3]([H:11])([H:12])[H:13])=[C:4]([H:14])[H:15])([H:8])([H:9])[H:10].[O:5]=[C:6]=[N:7][H:16]"
C        0.89340528       1.09586015       0.73756951
C        0.40245906      -0.18492255       0.11881710
C        1.40680503      -0.88598428      -0.75082972
C       -0.61227928      -0.89958324       0.74829412
O       -2.50876422       1.12972929       0.50660161
C       -2.11682071       0.88464439      -0.62742000
N       -1.23929597       0.26905192      -1.26809240
H        1.10526787       1.82073775      -0.05161712
H        1.81363188       0.93629918       1.30537784
H        0.16062956       1.52846264       1.41818639
H        2.32946075      -1.09117557      -0.20153401
H        1.02701710      -1.83062904      -1.13824546
H        1.66805056      -0.23806986      -1.59070859
H       -0.74179044      -1.94627130       0.49119522
H       -0.92748236      -0.62633330       1.74895384
H       -2.66029410       0.03818382      -1.44654832
16
Frame=9 idx=007249 GeodesicLength=0.7877579266197872 rxn_smarts="[C:1]([C:2]1([C:3]([H:11])([H:12])[H:13])[C:4]([H:14])([H:15])[O:5][C:6]([H:16])=[N:7]1)([H:8])([H:9])[H:10]>>[C:1]([C:2]([C:3]([H:11])([H:12])[H:13])=[C:4]([H:14])[H:15])([H:8])([H:9])[H:10].[O:5]=[C:6]=[N:7][H:16]"
C        0.89596894       1.09845816       0.73666855
C        0.38282227      -0.16809009       0.10319875
C        1.38928960      -0.88270922      -0.75498115
C       -0.62566730      -0.88398488       0.75380562
O       -2.50737958       1.08614491       0.51190042
C       -2.12440687       0.88934606      -0.63844670
N       -1.22573010       0.32333848      -1.29064078
H        1.12320884       1.82616818      -0.04561107
H        1.80928546       0.91995378       1.30979983
H        0.16742606       1.53904218       1.41701503
H        2.30061391      -1.10777318      -0.19466768
H        0.99946923      -1.81902861      -1.15271816
H        1.67405557      -0.23481793      -1.58723128
H       -0.74911856      -1.93340567       0.50248717
H       -0.89655686      -0.63000798       1.77275584
H       -2.61328061      -0.02263421      -1.44333440
16
Frame=10 idx=007249 GeodesicLength=0.8786042533941041 rxn_smarts="[C:1]([C:2]1([C:3]([H:11])([H:12])[H:13])[C:4]([H:14])([H:15])[O:5][C:6]([H:16])=[N:7]1)([H:8])([H:9])[H:10]>>[C:1]([C:2]([C:3]([H:11])([H:12])[H:13])=[C:4]([H:14])[H:15])([H:8])([H:9])[H:10].[O:5]=[C:6]=[N:7][H:16]"
C        0.89852841       1.10095204       0.73576826
C        0.36304033      -0.15142489       0.08902506
C        1.37003130      -0.87927085      -0.75959727
C       -0.63788088      -0.86879195       0.76206102
O       -2.50765135       1.04017133       0.51594044
C       -2.13342910       0.89112304      -0.64831240
N       -1.21309030       0.37849850      -1.30967938
H        1.14123681       1.83057730      -0.04006357
H        1.80479661       0.90392808       1.31381674
H        0.17393713       1.55021547       1.41498962
H        2.27048090      -1.12389998      -0.18999139
H        0.96995114      -1.80709429      -1.16714451
H        1.67685359      -0.23189283      -1.58439023
H       -0.75518059      -1.92092302       0.51663651
H       -0.86462808      -0.63365872       1.79664154
H       -2.55699591      -0.07850922      -1.44570043
16
Frame=11 idx=007249 GeodesicLength=0.9702430377983838 rxn_smarts="[C:1]([C:2]1([C:3]([H:11])([H:12])[H:13])[C:4]([H:14])([H:15])[O:5][C:6]([H:16])=[N:7]1)([H:8])([H:9])[H:10]>>[C:1]([C:2]([C:3]([H:11])([H:12])[H:13])=[C:4]([H:14])[H:15])([H:8])([H:9])[H:10].[O:5]=[C:6]=[N:7][H:16]"
C        0.90034782       1.10315786       0.73485358
C        0.34285690      -0.13525873       0.07607388
C        1.34941328      -0.87564542      -0.76449369
C       -0.64936417      -0.85442422       0.77237125
O       -2.50713509       0.99462158       0.51801997
C       -2.14240777       0.89098714      -0.65803833
N       -1.20184501       0.43282870      -1.32631518
H        1.15751359       1.83427300      -0.03490005
H        1.79986889       0.88849247       1.31696933
H        0.18014480       1.56100566       1.41335502
H        2.23951653      -1.13898842      -0.18701666
H        0.93938852      -1.79512854      -1.18117654
H        1.67673114      -0.22913040      -1.58207108
H       -0.75985060      -1.90933336       0.53304389
H       -0.83187374      -0.63773681       1.82011988
H       -2.49330510      -0.12972051      -1.45079527
16
Frame=12 idx=007249 GeodesicLength=1.06296156285443 rxn_smarts="[C:1]([C:2]1([C:3]([H:11])([H:12])[H:13])[C:4]([H:14])([H:15])[O:5][C:6]([H:16])=[N:7]1)([H:8])([H:9])[H:10]>>[C:1]([C:2]([C:3]([H:11])([H:12])[H:13])=[C:4]([H:14])[H:15])([H:8])([H:9])[H:10].[O:5]=[C:6]=[N:7][H:16]"
C        0.90193764       1.10519444       0.73393978
C        0.32245242      -0.11945359       0.06453420
C        1.32734358      -0.87190002      -0.76969333
C       -0.65987389      -0.84063987       0.78496964
O       -2.50727446       0.94769271       0.51840591
C       -2.15190760       0.88824876      -0.66745586
N       -1.19170803       0.48719083      -1.33999416
H        1.17317521       1.83709584      -0.03022499
H        1.79482063       0.87350758       1.31956145
H        0.18614758       1.57197253       1.41139441
H        2.20764933      -1.15347147      -0.18581629
H        0.90727846      -1.78301017      -1.19490321
H        1.67373859      -0.22661511      -1.58036485
H       -0.76326151      -1.89830026       0.55181165
H       -0.79856773      -0.64167665       1.84340595
H       -2.42195023      -0.17583557      -1.45957031
16
Frame=13 idx=007249 GeodesicLength=1.15657505670539 rxn_smarts="[C:1]([C:2]1([C:3]([H:11])([H:12])[H:13])[C:4]([H:14])([H:15])[O:5][C:6]([H:16])=[N:7]1)([H:8])([H:9])[H:10]>>[C:1]([C:2]([C:3]([H:11])([H:12])[H:13])=[C:4]([H:14])[H:15])([H:8])([H:9])[H:10].[O:5]=[C:6]=[N:7][H:16]"
C        0.90294498       1.10696524       0.73301720
C        0.30180420      -0.10424924       0.05433400
C        1.30414270      -0.86803695      -0.77507856
C       -0.66960923      -0.82769024       0.79941579
O       -2.50687133       0.90091926       0.51678123
C       -2.16103036       0.88351557      -0.67715488
N       -1.18289394       0.54018908      -1.35137234
H        1.18718202       1.83925508      -0.02603688
H        1.78960773       0.85914533       1.32131158
H        0.19196415       1.58253255       1.40980000
H        2.17522533      -1.16715265      -0.18608624
H        0.87414682      -1.77082598      -1.20825682
H        1.66820635      -0.22419696      -1.57913962
H       -0.76521373      -1.88812257       0.57257697
H       -0.76518070      -0.64556711       1.86615504
H       -2.34442500      -0.21668042      -1.47026647
16
Frame=14 idx=007249 GeodesicLength=1.2514880739116132 rxn_smarts="[C:1]([C:2]1([C:3]([H:11])([H:12])[H:13])[C:4]([H:14])([H:15])[O:5][C:6]([H:16])=[N:7]1)([H:8])([H:9])[H:10]>>[C:1]([C:2]([C:3]([H:11])([H:12])[H:13])=[C:4]([H:14])[H:15])([H:8])([H:9])[H:10].[O:5]=[C:6]=[N:7][H:16]"
C        0.90361490       1.10856731       0.73204578
C        0.28101426      -0.08955901       0.04550394
C        1.27983740      -0.86416069      -0.78056545
C       -0.67852456      -0.81539989       0.81564412
O       -2.50661426       0.85320047       0.51332239
C       -2.17002192       0.87646621      -0.68706812
N       -1.17530104       0.59236976      -1.36021503
H        1.20012206       1.84069673      -0.02245804
H        1.78436298       0.84539254       1.32238190
H        0.19759950       1.59300431       1.40812600
H        2.14232738      -1.18013894      -0.18770988
H        0.83994174      -1.75875748      -1.22095994
H        1.66014659      -0.22207850      -1.57849387
H       -0.76606904      -1.87851562       0.59501428
H       -0.73164999      -0.64929207       1.88848936
H       -2.26078601      -0.25179512      -1.48305743
16
Frame=15 idx=007249 GeodesicLength=1.3477609948959564 rxn_smarts="[C:1]([C:2]1([C:3]([H:11])([H:12])[H:13])[C:4]([H:14])([H:15])[O:5][C:6]([H:16])=[N:7]1)([H:8])([H:9])[H:10]>>[C:1]([C:2]([C:3]([H:11])([H:12])[H:13])=[C:4]([H:14])[H:15])([H:8])([H:9])[H:10].[O:5]=[C:6]=[N:7][H:16]"
C        0.90380242       1.10999835       0.73098303
C        0.26014935      -0.07549678       0.03795331
C        1.25472321      -0.86033036      -0.78601862
C       -0.68676055      -0.80384701       0.83327820
O       -2.50595218       0.80518652       0.50800113
C       -2.17841350       0.86750096      -0.69744292
N       -1.16904096       0.64292286      -1.36695291
H        1.21154957       1.84157464      -0.01954869
H        1.77907943       0.83238388       1.32267496
H        0.20302879       1.60314346       1.40662009
H        2.10925073      -1.19234536      -0.19035880
H        0.80510193      -1.74697517      -1.23284786
H        1.64988818      -0.22026135      -1.57833063
H       -0.76595981      -1.86953014       0.61861517
H       -0.69811084      -0.65301850       1.91019820
H       -2.17233577      -0.28090600      -1.49682366
16
Frame=16 idx=007249 GeodesicLength=1.44551053983398 rxn_smarts="[C:1]([C:2]1([C:3]([H:11])([H:12])[H:13])[C:4]([H:14])([H:15])[O:5][C:6]([H:16])=[N:7]1)([H:8])([H:9])[H:10]>>[C:1]([C:2]([C:3]([H:11])([H:12])[H:13])=[C:4]([H:14])[H:15])([H:8])([H:9])[H:10].[O:5]=[C:6]=[N:7][H:16]"
C        0.90355304       1.11131091       0.72978507
C        0.23935154      -0.06209222       0.03164212
C        1.22903828      -0.85662986      -0.79130687
C       -0.69436080      -0.79299390       0.85206107
O       -2.50487763       0.75673871       0.50091054
C       -2.18604152       0.85681487      -0.70829265
N       -1.16410527       0.69151646      -1.37171228
H        1.22147884       1.84195799      -0.01740225
H        1.77383028       0.82021117       1.32220594
H        0.20823350       1.61296401       1.40519691
H        2.07623274      -1.20379500      -0.19376187
H        0.76990964      -1.73564350      -1.24372809
H        1.63769257      -0.21883813      -1.57859752
H       -0.76510829      -1.86107702       0.64295330
H       -0.66465542      -0.65682548       1.93116899
H       -2.08017150      -0.30361901      -1.51112241
