13
Frame=0 idx=002251 GeodesicLength=0.0 rxn_smarts="[O:1]([C:2]1([H:7])[C:3]([H:8])([H:9])[C:4]([H:10])([H:11])[C:5]1([H:12])[H:13])[H:6]>>[C:3]1([H:8])([H:9])[C:4]([H:10])([H:11])[C:5]1([H:12])[H:13].[O:1]([C:2][H:7])[H:6]"
O        2.06558212       0.68833313      -0.27708124
C        1.22797536      -0.19412760      -0.89642119
C       -0.19149732      -0.48977472       0.67976140
C       -1.46001741       0.24216382       0.46679810
C       -0.57352871       0.34282200      -0.76558837
H        2.46306619       0.33555027       0.52887982
H        1.41759132      -1.22792914      -0.59100275
H        0.50691790      -0.08502841       1.40086263
H       -0.25231851      -1.56916596       0.65847166
H       -1.59538564       1.15935340       1.02623229
H       -2.36052828      -0.35443196       0.38273154
H       -0.30453478       1.36350998      -0.99815097
H       -0.94332222      -0.21127478      -1.61549291
13
Frame=1 idx=002251 GeodesicLength=0.05582826438467239 rxn_smarts="[O:1]([C:2]1([H:7])[C:3]([H:8])([H:9])[C:4]([H:10])([H:11])[C:5]1([H:12])[H:13])[H:6]>>[C:3]1([H:8])([H:9])[C:4]([H:10])([H:11])[C:5]1([H:12])[H:13].[O:1]([C:2][H:7])[H:6]"
O        2.08442188       0.66711435      -0.30235407
C        1.23461488      -0.21375647      -0.90260099
C       -0.18370618      -0.47716957       0.68710814
C       -1.46538279       0.23243065       0.46216860
C       -0.56942668       0.35639056      -0.76099636
H        2.45135734       0.33207655       0.52542457
H        1.40664768      -1.25372511      -0.60795557
H        0.49803792      -0.05300799       1.41339631
H       -0.23437366      -1.55756918       0.69444117
H       -1.62768573       1.14313416       1.02527018
H       -2.35301324      -0.38164161       0.36605040
H       -0.30023933       1.38147058      -0.97534184
H       -0.94125209      -0.17574691      -1.62461056
13
Frame=2 idx=002251 GeodesicLength=0.11133073036064049 rxn_smarts="[O:1]([C:2]1([H:7])[C:3]([H:8])([H:9])[C:4]([H:10])([H:11])[C:5]1([H:12])[H:13])[H:6]>>[C:3]1([H:8])([H:9])[C:4]([H:10])([H:11])[C:5]1([H:12])[H:13].[O:1]([C:2][H:7])[H:6]"
O        2.10268865       0.64466431      -0.32747915
C        1.24069116      -0.23416467      -0.90850233
C       -0.17581291      -0.46430648       0.69477066
C       -1.47028378       0.22223006       0.45719179
C       -0.56509163       0.37038093      -0.75619410
H        2.43939220       0.32965319       0.52081969
H        1.39403664      -1.28007672      -0.62481537
H        0.48869681      -0.02049386       1.42572152
H       -0.21591370      -1.54487141       0.73125617
H       -1.66006861       1.12561736       1.02372558
H       -2.34417836      -0.40944430       0.34853300
H       -0.29565123       1.39965452      -0.95153591
H       -0.93850524      -0.13884292      -1.63349154
13
Frame=3 idx=002251 GeodesicLength=0.16645136701881247 rxn_smarts="[O:1]([C:2]1([H:7])[C:3]([H:8])([H:9])[C:4]([H:10])([H:11])[C:5]1([H:12])[H:13])[H:6]>>[C:3]1([H:8])([H:9])[C:4]([H:10])([H:11])[C:5]1([H:12])[H:13].[O:1]([C:2][H:7])[H:6]"
O        2.12024738       0.62109145      -0.35236557
C        1.24617934      -0.25531060      -0.91407348
C       -0.16783142      -0.45125072       0.70272772
C       -1.47462661       0.21160952       0.45187332
C       -0.56052553       0.38474932      -0.75119382
H        2.42712512       0.32835845       0.51507553
H        1.37974373      -1.30687495      -0.64152388
H        0.47887607       0.01229949       1.43785694
H       -0.19703148      -1.53109123       0.76869505
H       -1.69230014       1.10684180       1.02156734
H       -2.33395286      -0.43766943       0.33024453
H       -0.29086972       1.41797753      -0.92685599
H       -0.93503388      -0.10073063      -1.64202768
13
Frame=4 idx=002251 GeodesicLength=0.2215375470584323 rxn_smarts="[O:1]([C:2]1([H:7])[C:3]([H:8])([H:9])[C:4]([H:10])([H:11])[C:5]1([H:12])[H:13])[H:6]>>[C:3]1([H:8])([H:9])[C:4]([H:10])([H:11])[C:5]1([H:12])[H:13].[O:1]([C:2][H:7])[H:6]"
O        2.13716708       0.59652222      -0.37695668
C        1.25115033      -0.27711115      -0.91933153
C       -0.15978293      -0.43805140       0.71104061
C       -1.47846407       0.20059350       0.44624097
C       -0.55578093       0.39950012      -0.74606891
H        2.41480560       0.32810601       0.50818263
H        1.36383638      -1.33399299      -0.65805093
H        0.46859992       0.04519310       1.44994756
H       -0.17782206      -1.51626695       0.80669491
H       -1.72435340       1.08682166       1.01879744
H       -2.32246633      -0.46621786       0.31125837
H       -0.28601304       1.43643063      -0.90151595
H       -0.93087655      -0.06152688      -1.65023850
13
Frame=5 idx=002251 GeodesicLength=0.2755545759492883 rxn_smarts="[O:1]([C:2]1([H:7])[C:3]([H:8])([H:9])[C:4]([H:10])([H:11])[C:5]1([H:12])[H:13])[H:6]>>[C:3]1([H:8])([H:9])[C:4]([H:10])([H:11])[C:5]1([H:12])[H:13].[O:1]([C:2][H:7])[H:6]"
O        2.15290261       0.57099324      -0.40114791
C        1.25532665      -0.29965575      -0.92403352
C       -0.15164939      -0.42478252       0.71949857
C       -1.48135957       0.18927798       0.44022698
C       -0.55070782       0.41450153      -0.74065289
H        2.40164981       0.32941263       0.50016319
H        1.34606929      -1.36140457      -0.67424637
H        0.45776515       0.07797419       1.46173345
H       -0.15840837      -1.50045214       0.84462955
H       -1.75553211       1.06568270       1.01530663
H       -2.30917292      -0.49483549       0.29158755
H       -0.28108400       1.45482949      -0.87536162
H       -0.92579930      -0.02154129      -1.65770362
13
Frame=6 idx=002251 GeodesicLength=0.32944714833237 rxn_smarts="[O:1]([C:2]1([H:7])[C:3]([H:8])([H:9])[C:4]([H:10])([H:11])[C:5]1([H:12])[H:13])[H:6]>>[C:3]1([H:8])([H:9])[C:4]([H:10])([H:11])[C:5]1([H:12])[H:13].[O:1]([C:2][H:7])[H:6]"
O        2.16779026       0.54477069      -0.42481262
C        1.25899308      -0.32270327      -0.92832507
C       -0.14346884      -0.41148295       0.72826604
C       -1.48360382       0.17770528       0.43393319
C       -0.54547264       0.42978486      -0.73514345
H        2.38845682       0.33174508       0.49098626
H        1.32677854      -1.38884941      -0.69018276
H        0.44643758       0.11043978       1.47358412
H       -0.13889476      -1.48373341       0.88262691
H       -1.78611437       1.04348160       1.01117365
H       -2.29458613      -0.52339827       0.27139409
H       -0.27633118       1.47322168      -0.84886298
H       -0.91998454       0.01901834      -1.66463736
13
Frame=7 idx=002251 GeodesicLength=0.38304951756298017 rxn_smarts="[O:1]([C:2]1([H:7])[C:3]([H:8])([H:9])[C:4]([H:10])([H:11])[C:5]1([H:12])[H:13])[H:6]>>[C:3]1([H:8])([H:9])[C:4]([H:10])([H:11])[C:5]1([H:12])[H:13].[O:1]([C:2][H:7])[H:6]"
O        2.18173989       0.51782465      -0.44797510
C        1.26204398      -0.34630387      -0.93211942
C       -0.13521686      -0.39812822       0.73732275
C       -1.48507718       0.16587580       0.42731735
C       -0.54001752       0.44536274      -0.72947023
H        2.37502949       0.33521472       0.48060754
H        1.30579628      -1.41631688      -0.70580380
H        0.43458990       0.14260032       1.48546589
H       -0.11931116      -1.46612267       0.92053506
H       -1.81596492       1.02020056       1.00633190
H       -2.27850195      -0.55191835       0.25062920
H       -0.27175760       1.49162080      -0.82193887
H       -0.91335235       0.06009040      -1.67090228
13
Frame=8 idx=002251 GeodesicLength=0.4366660930373106 rxn_smarts="[O:1]([C:2]1([H:7])[C:3]([H:8])([H:9])[C:4]([H:10])([H:11])[C:5]1([H:12])[H:13])[H:6]>>[C:3]1([H:8])([H:9])[C:4]([H:10])([H:11])[C:5]1([H:12])[H:13].[O:1]([C:2][H:7])[H:6]"
O        2.19481066       0.49003278      -0.47072121
C        1.26451539      -0.37054205      -0.93540812
C       -0.12688003      -0.38470606       0.74671298
C       -1.48577733       0.15382522       0.42038790
C       -0.53431580       0.46125834      -0.72361933
H        2.36125384       0.33997721       0.46898840
H        1.28315197      -1.44381614      -0.72112487
H        0.42217242       0.17440856       1.49747977
H       -0.09965762      -1.44764815       0.95826298
H       -1.84514528       0.99583843       1.00083135
H       -2.26085694      -0.58032202       0.22929360
H       -0.26743205       1.51003115      -0.79458010
H       -0.90583921       0.10166273      -1.67650334
13
Frame=9 idx=002251 GeodesicLength=0.48937389003268955 rxn_smarts="[O:1]([C:2]1([H:7])[C:3]([H:8])([H:9])[C:4]([H:10])([H:11])[C:5]1([H:12])[H:13])[H:6]>>[C:3]1([H:8])([H:9])[C:4]([H:10])([H:11])[C:5]1([H:12])[H:13].[O:1]([C:2][H:7])[H:6]"
O        2.20661385       0.46180281      -0.49269567
C        1.26619825      -0.39515664      -0.93802189
C       -0.11846192      -0.37118569       0.75629412
C       -1.48544465       0.14155717       0.41310449
C       -0.52833974       0.47736840      -0.71751331
H        2.34717770       0.34558001       0.45604247
H        1.25860808      -1.47097883      -0.73604136
H        0.40917492       0.20581804       1.50945635
H       -0.08013329      -1.42831387       0.99548233
H       -1.87314202       0.97045760       0.99441155
H       -2.24143625      -0.60856186       0.20746334
H       -0.26341036       1.52835868      -0.76687025
H       -0.89740455       0.14325416      -1.68111217
13
Frame=10 idx=002251 GeodesicLength=0.5422770474883322 rxn_smarts="[O:1]([C:2]1([H:7])[C:3]([H:8])([H:9])[C:4]([H:10])([H:11])[C:5]1([H:12])[H:13])[H:6]>>[C:3]1([H:8])([H:9])[C:4]([H:10])([H:11])[C:5]1([H:12])[H:13].[O:1]([C:2][H:7])[H:6]"
O        2.21752926       0.43291379      -0.51410977
C        1.26730395      -0.42026772      -0.94008849
C       -0.10993501      -0.35754199       0.76625200
C       -1.48430105       0.12910722       0.40551341
C       -0.52215083       0.49381253      -0.71124864
H        2.33298342       0.35204288       0.44179259
H        1.23237603      -1.49790421      -0.75068270
H        0.39557040       0.23683941       1.52170789
H       -0.06060141      -1.40819277       1.03241819
H       -1.90040169       0.94402856       0.98725379
H       -2.22040697      -0.63661808       0.18512160
H       -0.25984738       1.54674528      -0.73891258
H       -0.88811873       0.18503509      -1.68501729
13
Frame=11 idx=002251 GeodesicLength=0.5951610792975571 rxn_smarts="[O:1]([C:2]1([H:7])[C:3]([H:8])([H:9])[C:4]([H:10])([H:11])[C:5]1([H:12])[H:13])[H:6]>>[C:3]1([H:8])([H:9])[C:4]([H:10])([H:11])[C:5]1([H:12])[H:13].[O:1]([C:2][H:7])[H:6]"
O        2.22741640       0.40331251      -0.53493952
C        1.26765469      -0.44589539      -0.94151764
C       -0.10126314      -0.34363739       0.77658707
C       -1.48220511       0.11639694       0.39753982
C       -0.51568627       0.51064210      -0.70472677
H        2.31862194       0.35916785       0.42610624
H        1.20413485      -1.52449465      -0.76500862
H        0.38131025       0.26767612       1.53416545
H       -0.04103469      -1.38715630       1.06907769
H       -1.92687893       0.91637321       0.97919634
H       -2.19744659      -0.66465484       0.16215129
H       -0.25673023       1.56523799      -0.71054438
H       -0.87789316       0.22703184      -1.68808697
13
Frame=12 idx=002251 GeodesicLength=0.6480870909856322 rxn_smarts="[O:1]([C:2]1([H:7])[C:3]([H:8])([H:9])[C:4]([H:10])([H:11])[C:5]1([H:12])[H:13])[H:6]>>[C:3]1([H:8])([H:9])[C:4]([H:10])([H:11])[C:5]1([H:12])[H:13].[O:1]([C:2][H:7])[H:6]"
O        2.23624038       0.37318479      -0.55508344
C        1.26729195      -0.47193355      -0.94228864
C       -0.09245302      -0.32950091       0.78728279
C       -1.47912093       0.10349872       0.38922269
C       -0.50898082       0.52780838      -0.69798702
H        2.30417049       0.36676316       0.40902879
H        1.17400457      -1.55055475      -0.77901951
H        0.36636918       0.29818686       1.54688395
H       -0.02153596      -1.36533196       1.10530467
H       -1.95240789       0.88760809       0.97023353
H       -2.17259334      -0.69250648       0.13869587
H       -0.25420516       1.58380922      -0.68194562
H       -0.86677943       0.26896840      -1.69032806
13
Frame=13 idx=002251 GeodesicLength=0.7012007292091134 rxn_smarts="[O:1]([C:2]1([H:7])[C:3]([H:8])([H:9])[C:4]([H:10])([H:11])[C:5]1([H:12])[H:13])[H:6]>>[C:3]1([H:8])([H:9])[C:4]([H:10])([H:11])[C:5]1([H:12])[H:13].[O:1]([C:2][H:7])[H:6]"
O        2.24400716       0.34245222      -0.57454914
C        1.26615267      -0.49839923      -0.94235567
C       -0.08347149      -0.31504848       0.79836753
C       -1.47498837       0.09038778       0.38052763
C       -0.50202858       0.54535949      -0.69099777
H        2.28960659       0.37468206       0.39052021
H        1.14184843      -1.57598393      -0.79273929
H        0.35069586       0.32845047       1.55988629
H       -0.00204265      -1.34267008       1.14115158
H       -1.97698893       0.85761870       0.96029344
H       -2.14567638      -0.72020725       0.11470774
H       -0.25234283       1.60250141      -0.65308719
H       -0.85477149       0.31085684      -1.69172535
13
Frame=14 idx=002251 GeodesicLength=0.7547006087381943 rxn_smarts="[O:1]([C:2]1([H:7])[C:3]([H:8])([H:9])[C:4]([H:10])([H:11])[C:5]1([H:12])[H:13])[H:6]>>[C:3]1([H:8])([H:9])[C:4]([H:10])([H:11])[C:5]1([H:12])[H:13].[O:1]([C:2][H:7])[H:6]"
O        2.25063128       0.31109899      -0.59339280
C        1.26412079      -0.52531097      -0.94172481
C       -0.07428661      -0.30013663       0.80990183
C       -1.46974062       0.07699114       0.37141717
C       -0.49482635       0.56338987      -0.68372428
H        2.27505935       0.38249499       0.37051966
H        1.10751122      -1.60067077      -0.80613044
H        0.33422220       0.35866785       1.57319669
H        0.01751434      -1.31904833       1.17675965
H       -2.00071290       0.82621986       0.94925767
H       -2.11642333      -0.74791007       0.09009546
H       -0.25122680       1.62142150      -0.62387776
H       -0.84184258       0.35279256      -1.69229802
13
Frame=15 idx=002251 GeodesicLength=0.808640553907374 rxn_smarts="[O:1]([C:2]1([H:7])[C:3]([H:8])([H:9])[C:4]([H:10])([H:11])[C:5]1([H:12])[H:13])[H:6]>>[C:3]1([H:8])([H:9])[C:4]([H:10])([H:11])[C:5]1([H:12])[H:13].[O:1]([C:2][H:7])[H:6]"
O        2.25607969       0.27911831      -0.61153340
C        1.26116080      -0.55265926      -0.94029760
C       -0.06488959      -0.28477635       0.82185457
C       -1.46325673       0.06335704       0.36188861
C       -0.48735780       0.58184547      -0.67616544
H        2.26036975       0.39034149       0.34907706
H        1.07089286      -1.62446852      -0.81925481
H        0.31689524       0.38873297       1.58682361
H        0.03706880      -1.29455654       1.21197186
H       -2.02330919       0.79343715       0.93710830
H       -2.08473639      -0.77548160       0.06495636
H       -0.25091478       1.64051577      -0.59440158
H       -0.82800265       0.39459408      -1.69202753
13
Frame=16 idx=002251 GeodesicLength=0.8633093878462568 rxn_smarts="[O:1]([C:2]1([H:7])[C:3]([H:8])([H:9])[C:4]([H:10])([H:11])[C:5]1([H:12])[H:13])[H:6]>>[C:3]1([H:8])([H:9])[C:4]([H:10])([H:11])[C:5]1([H:12])[H:13].[O:1]([C:2][H:7])[H:6]"
O        2.26028611       0.24658448      -0.62903159
C        1.25721627      -0.58041051      -0.93810038
C       -0.05526331      -0.26888208       0.83425500
C       -1.45549887       0.04947581       0.35194139
C       -0.47967335       0.60079362      -0.66832697
H        2.24568872       0.39770772       0.32620734
H        1.03207755      -1.64720721      -0.83204319
H        0.29863855       0.41869302       1.60079248
H        0.05666850      -1.26914400       1.24688975
H       -2.04480649       0.75918113       0.92376789
H       -2.05046282      -0.80291161       0.03928867
H       -0.25156785       1.65985461      -0.56468307
H       -0.81330298       0.43626503      -1.69095732
