16
Frame=0 idx=011346 GeodesicLength=0.0 rxn_smarts="[C:1]([c:2]1[c:3]([C:4]([H:11])([H:12])[H:13])[c:5]([H:14])[c:6]([H:15])[n:7]1[H:16])([H:8])([H:9])[H:10]>>[C:1]([C:2]1=[C-:3][C@@:5]([C:4]([H:11])([H:12])[H:13])([H:14])[C+:6]([H:15])[N:7]1[H:16])([H:8])([H:9])[H:10]"
C       -1.45286902       1.74105176      -0.42519326
C       -0.35120274       0.73509902      -0.40039513
C       -0.36107918      -0.59633293      -0.86956592
C       -0.24837188      -1.82774389       0.63256754
C        0.97014066      -1.06223831      -0.47561623
C        1.71856105       0.00232447       0.07767678
N        0.87091515       1.04376938       0.10572801
H       -2.16739795       1.45780825      -1.19592887
H       -1.09727073       2.75152686      -0.64607049
H       -1.99396792       1.77973024       0.52660181
H       -0.59788395      -2.72807128       0.14514712
H       -1.07633309      -1.30567982       1.09436700
H        0.49179773      -2.06287054       1.39692588
H        1.43258828      -1.96500926      -0.85156124
H        2.73368640       0.08106488       0.43080970
H        1.12868723       1.95557122       0.45450730
16
Frame=1 idx=011346 GeodesicLength=0.043285266001012866 rxn_smarts="[C:1]([c:2]1[c:3]([C:4]([H:11])([H:12])[H:13])[c:5]([H:14])[c:6]([H:15])[n:7]1[H:16])([H:8])([H:9])[H:10]>>[C:1]([C:2]1=[C-:3][C@@:5]([C:4]([H:11])([H:12])[H:13])([H:14])[C+:6]([H:15])[N:7]1[H:16])([H:8])([H:9])[H:10]"
C       -1.45202481       1.73956049      -0.42261713
C       -0.34526941       0.73903245      -0.40820944
C       -0.35270016      -0.59356640      -0.86442497
C       -0.25911266      -1.83489068       0.62763632
C        0.97639783      -1.05938831      -0.46533537
C        1.72242576       0.00909178       0.08411224
N        0.88039269       1.05414473       0.09363793
H       -2.18761215       1.43573765      -1.16525653
H       -1.10629320       2.74566531      -0.67676258
H       -1.96578616       1.79845842       0.54312232
H       -0.60540199      -2.73219038       0.13119628
H       -1.09009858      -1.31962446       1.09307147
H        0.46955782      -2.08258727       1.39945518
H        1.44460220      -1.95324112      -0.85553757
H        2.73485660       0.08663547       0.44556004
H        1.13606623       1.96716233       0.44035180
16
Frame=2 idx=011346 GeodesicLength=0.08648570573088737 rxn_smarts="[C:1]([c:2]1[c:3]([C:4]([H:11])([H:12])[H:13])[c:5]([H:14])[c:6]([H:15])[n:7]1[H:16])([H:8])([H:9])[H:10]>>[C:1]([C:2]1=[C-:3][C@@:5]([C:4]([H:11])([H:12])[H:13])([H:14])[C+:6]([H:15])[N:7]1[H:16])([H:8])([H:9])[H:10]"
C       -1.45098544       1.73844613      -0.42016663
C       -0.33983288       0.74276305      -0.41499557
C       -0.34479738      -0.59087400      -0.85831931
C       -0.26965313      -1.84266117       0.62278057
C        0.98238859      -1.05645902      -0.45458670
C        1.72600758       0.01609867       0.09070941
N        0.88939435       1.06424687       0.08230983
H       -2.20638034       1.41425639      -1.13372407
H       -1.11557817       2.73902203      -0.70777772
H       -1.93757256       1.81896664       0.55788693
H       -0.61260803      -2.73667086       0.11696662
H       -1.10379449      -1.33484253       1.09219354
H        0.44755871      -2.10343013       1.40141517
H        1.45645910      -1.94067039      -0.85978685
H        2.73581065       0.09280266       0.46001450
H        1.14358341       1.97900565       0.42508027
16
Frame=3 idx=011346 GeodesicLength=0.12975011917389917 rxn_smarts="[C:1]([c:2]1[c:3]([C:4]([H:11])([H:12])[H:13])[c:5]([H:14])[c:6]([H:15])[n:7]1[H:16])([H:8])([H:9])[H:10]>>[C:1]([C:2]1=[C-:3][C@@:5]([C:4]([H:11])([H:12])[H:13])([H:14])[C+:6]([H:15])[N:7]1[H:16])([H:8])([H:9])[H:10]"
C       -1.44986603       1.73724632      -0.41743134
C       -0.33435048       0.74646156      -0.42200756
C       -0.33694783      -0.58827105      -0.85196006
C       -0.28022511      -1.85045515       0.61783633
C        0.98832742      -1.05354042      -0.44351046
C        1.72959486       0.02334671       0.09708228
N        0.89876888       1.07454005       0.06988395
H       -2.22428204       1.39304243      -1.10062548
H       -1.12594814       2.73151747      -0.73825160
H       -1.90878420       1.83974588       0.57180137
H       -0.61978674      -2.74105024       0.10258081
H       -1.11766565      -1.35037892       1.09111407
H        0.42531658      -2.12461955       1.40291441
H        1.46830568      -1.92763515      -0.86390162
H        2.73598510       0.09888647       0.47620906
H        1.15155769       1.99116358       0.40826584
16
Frame=4 idx=011346 GeodesicLength=0.17313408041736772 rxn_smarts="[C:1]([c:2]1[c:3]([C:4]([H:11])([H:12])[H:13])[c:5]([H:14])[c:6]([H:15])[n:7]1[H:16])([H:8])([H:9])[H:10]>>[C:1]([C:2]1=[C-:3][C@@:5]([C:4]([H:11])([H:12])[H:13])([H:14])[C+:6]([H:15])[N:7]1[H:16])([H:8])([H:9])[H:10]"
C       -1.44858338       1.73601172      -0.41438103
C       -0.32888048       0.75005310      -0.42879717
C       -0.32899946      -0.58571460      -0.84517756
C       -0.29110838      -1.85855458       0.61271489
C        0.99427473      -1.05061317      -0.43156292
C        1.73297867       0.03077291       0.10425362
N        0.90824476       1.08482357       0.05710650
H       -2.24103971       1.37209420      -1.06593985
H       -1.13725259       2.72308407      -0.76825463
H       -1.87946227       1.86113134       0.58470073
H       -0.62696044      -2.74549807       0.08761363
H       -1.13221967      -1.36669332       1.08953653
H        0.40228214      -2.14655876       1.40406605
H        1.48036520      -1.91397587      -0.86736005
H        2.73625311       0.10585083       0.49205060
H        1.16010778       2.00378663       0.38943068
16
Frame=5 idx=011346 GeodesicLength=0.21615208211868164 rxn_smarts="[C:1]([c:2]1[c:3]([C:4]([H:11])([H:12])[H:13])[c:5]([H:14])[c:6]([H:15])[n:7]1[H:16])([H:8])([H:9])[H:10]>>[C:1]([C:2]1=[C-:3][C@@:5]([C:4]([H:11])([H:12])[H:13])([H:14])[C+:6]([H:15])[N:7]1[H:16])([H:8])([H:9])[H:10]"
C       -1.44709948       1.73520440      -0.41201252
C       -0.32382887       0.75346780      -0.43494651
C       -0.32170696      -0.58331794      -0.83735000
C       -0.30158129      -1.86692281       0.60810967
C        0.99984216      -1.04773757      -0.41941989
C        1.73631044       0.03835345       0.11068257
N        0.91702275       1.09451474       0.04590897
H       -2.25588626       1.35251373      -1.03202153
H       -1.14836275       2.71409654      -0.79804390
H       -1.85110047       1.88347377       0.59501710
H       -0.63395837      -2.75000797       0.07321978
H       -1.14619901      -1.38369190       1.08895252
H        0.37998166      -2.16918049       1.40481251
H        1.49178656      -1.89977536      -0.87121249
H        2.73705913       0.11352194       0.50528147
H        1.16772077       2.01548767       0.37302225
16
Frame=6 idx=011346 GeodesicLength=0.25916686163983993 rxn_smarts="[C:1]([c:2]1[c:3]([C:4]([H:11])([H:12])[H:13])[c:5]([H:14])[c:6]([H:15])[n:7]1[H:16])([H:8])([H:9])[H:10]>>[C:1]([C:2]1=[C-:3][C@@:5]([C:4]([H:11])([H:12])[H:13])([H:14])[C+:6]([H:15])[N:7]1[H:16])([H:8])([H:9])[H:10]"
C       -1.44547293       1.73455848      -0.40978803
C       -0.31894334       0.75675351      -0.44067566
C       -0.31460548      -0.58102248      -0.82880337
C       -0.31210467      -1.87559537       0.60362818
C        1.00528697      -1.04489704      -0.40661396
C        1.73953060       0.04608719       0.11739471
N        0.92557742       1.10399502       0.03529665
H       -2.26935580       1.33368682      -0.99766756
H       -1.15986625       2.70436449      -0.82748331
H       -1.82298331       1.90652966       0.60365631
H       -0.64093823      -2.75457416       0.05869171
H       -1.16038524      -1.40143659       1.08848112
H        0.35747624      -2.19257810       1.40517542
H        1.50305922      -1.88499687      -0.87474340
H        2.73846838       0.12201320       0.51676860
H        1.17525641       2.02711224       0.35668257
16
Frame=7 idx=011346 GeodesicLength=0.30239394297063027 rxn_smarts="[C:1]([c:2]1[c:3]([C:4]([H:11])([H:12])[H:13])[c:5]([H:14])[c:6]([H:15])[n:7]1[H:16])([H:8])([H:9])[H:10]>>[C:1]([C:2]1=[C-:3][C@@:5]([C:4]([H:11])([H:12])[H:13])([H:14])[C+:6]([H:15])[N:7]1[H:16])([H:8])([H:9])[H:10]"
C       -1.44371456       1.73386307      -0.40715148
C       -0.31404695       0.75995037      -0.44628209
C       -0.30739735      -0.57876379      -0.81983665
C       -0.32289438      -1.88457389       0.59887824
C        1.01074642      -1.04200759      -0.39295408
C        1.74252666       0.05406422       0.12488862
N        0.93441290       1.11360826       0.02384662
H       -2.28194407       1.31508752      -0.96133498
H       -1.17241779       2.69355823      -0.85660080
H       -1.79412661       1.93030518       0.61148192
H       -0.64787582      -2.75915274       0.04347211
H       -1.17518863      -1.41999817       1.08739152
H        0.33423897      -2.21679190       1.40496669
H        1.51452011      -1.86951591      -0.87753731
H        2.73964406       0.13107130       0.52894877
H        1.18351705       2.03929585       0.33782290
16
Frame=8 idx=011346 GeodesicLength=0.34587542121202897 rxn_smarts="[C:1]([c:2]1[c:3]([C:4]([H:11])([H:12])[H:13])[c:5]([H:14])[c:6]([H:15])[n:7]1[H:16])([H:8])([H:9])[H:10]>>[C:1]([C:2]1=[C-:3][C@@:5]([C:4]([H:11])([H:12])[H:13])([H:14])[C+:6]([H:15])[N:7]1[H:16])([H:8])([H:9])[H:10]"
C       -1.44180124       1.73320603      -0.40395728
C       -0.30922965       0.76303061      -0.45162808
C       -0.30013058      -0.57653183      -0.81039536
C       -0.33388349      -1.89400812       0.59372791
C        1.01621219      -1.03900033      -0.37842499
C        1.74518689       0.06236314       0.13328003
N        0.94350444       1.12330941       0.01127753
H       -2.29370425       1.29673114      -0.92233735
H       -1.18615168       2.68147910      -0.88561018
H       -1.76418050       1.95536905       0.61851536
H       -0.65462268      -2.76383221       0.02731986
H       -1.19058754      -1.43965523       1.08557654
H        0.31035250      -2.24204088       1.40397494
H        1.52624842      -1.85317708      -0.87959714
H        2.74004427       0.14061329       0.54300086
H        1.19274293       2.05214391       0.31527733
16
Frame=9 idx=011346 GeodesicLength=0.3900505016544049 rxn_smarts="[C:1]([c:2]1[c:3]([C:4]([H:11])([H:12])[H:13])[c:5]([H:14])[c:6]([H:15])[n:7]1[H:16])([H:8])([H:9])[H:10]>>[C:1]([C:2]1=[C-:3][C@@:5]([C:4]([H:11])([H:12])[H:13])([H:14])[C+:6]([H:15])[N:7]1[H:16])([H:8])([H:9])[H:10]"
C       -1.43971205       1.73183952      -0.39901346
C       -0.30379197       0.76615948      -0.45809957
C       -0.29190073      -0.57426584      -0.80151404
C       -0.34583904      -1.90344701       0.58740665
C        1.02205576      -1.03585994      -0.36246879
C        1.74741042       0.07113128       0.14355079
N        0.95409121       1.13381121      -0.00536172
H       -2.30525793       1.27727856      -0.87787160
H       -1.20272495       2.66762500      -0.91359229
H       -1.73120165       1.98029883       0.62659647
H       -0.66133561      -2.76827944       0.00935967
H       -1.20790073      -1.45978149       1.08108574
H        0.28408285      -2.26764118       1.40222261
H        1.53906876      -1.83619526      -0.87938324
H        2.73866474       0.15076990       0.56199443
H        1.20429092       2.06655639       0.28508836
16
Frame=10 idx=011346 GeodesicLength=0.434390152043732 rxn_smarts="[C:1]([c:2]1[c:3]([C:4]([H:11])([H:12])[H:13])[c:5]([H:14])[c:6]([H:15])[n:7]1[H:16])([H:8])([H:9])[H:10]>>[C:1]([C:2]1=[C-:3][C@@:5]([C:4]([H:11])([H:12])[H:13])([H:14])[C+:6]([H:15])[N:7]1[H:16])([H:8])([H:9])[H:10]"
C       -1.43738922       1.73062675      -0.39371922
C       -0.29851737       0.76913562      -0.46442753
C       -0.28383601      -0.57210726      -0.79207775
C       -0.35780857      -1.91327049       0.58081473
C        1.02775762      -1.03263485      -0.34583213
C        1.74928163       0.08029077       0.15419949
N        0.96475080       1.14411004      -0.02268434
H       -2.31549786       1.25850122      -0.83104421
H       -1.22038264       2.65248434      -0.94128142
H       -1.69735193       2.00655423       0.63329222
H       -0.66773816      -2.77279265      -0.00921743
H       -1.22552724      -1.48091541       1.07606432
H        0.25753706      -2.29409915       1.39959083
H        1.55192685      -1.81847581      -0.87846696
H        2.73637776       0.16162681       0.58238327
H        1.21641727       2.08096583       0.25240614
16
Frame=11 idx=011346 GeodesicLength=0.4785091728342024 rxn_smarts="[C:1]([c:2]1[c:3]([C:4]([H:11])([H:12])[H:13])[c:5]([H:14])[c:6]([H:15])[n:7]1[H:16])([H:8])([H:9])[H:10]>>[C:1]([C:2]1=[C-:3][C@@:5]([C:4]([H:11])([H:12])[H:13])([H:14])[C+:6]([H:15])[N:7]1[H:16])([H:8])([H:9])[H:10]"
C       -1.43486051       1.72988038      -0.38873137
C       -0.29367553       0.77189723      -0.47014196
C       -0.27632155      -0.57007315      -0.78161857
C       -0.36943694      -1.92349445       0.57441461
C        1.03319133      -1.02935953      -0.32877917
C        1.75093456       0.08970428       0.16462840
N        0.97482293       1.15375534      -0.03913406
H       -2.32387904       1.24130181      -0.78379304
H       -1.23829152       2.63643558      -0.96855975
H       -1.66387732       2.03417419       0.63752263
H       -0.67382056      -2.77734333      -0.02779687
H       -1.24283647      -1.50306231       1.07144909
H        0.23152288      -2.32145849       1.39616397
H        1.56433374      -1.80010132      -0.87738096
H        2.73406392       0.17319728       0.60177873
H        1.22813008       2.09454648       0.21997832
16
Frame=12 idx=011346 GeodesicLength=0.5226615365557531 rxn_smarts="[C:1]([c:2]1[c:3]([C:4]([H:11])([H:12])[H:13])[c:5]([H:14])[c:6]([H:15])[n:7]1[H:16])([H:8])([H:9])[H:10]>>[C:1]([C:2]1=[C-:3][C@@:5]([C:4]([H:11])([H:12])[H:13])([H:14])[C+:6]([H:15])[N:7]1[H:16])([H:8])([H:9])[H:10]"
C       -1.43203962       1.72911732      -0.38317938
C       -0.28881215       0.77455403      -0.47631733
C       -0.26884547      -0.56812943      -0.77090026
C       -0.38111138      -1.93383876       0.56765280
C        1.03851102      -1.02598920      -0.31113231
C        1.75224710       0.09954600       0.17520971
N        0.98514627       1.16322791      -0.05692854
H       -2.33086080       1.22477165      -0.73379834
H       -1.25762751       2.61906069      -0.99499786
H       -1.62915987       2.06232563       0.64060703
H       -0.67959529      -2.78172448      -0.04693861
H       -1.26047304      -1.52585095       1.06596017
H        0.20514411      -2.34928486       1.39181701
H        1.57675159      -1.78119059      -0.87525481
H        2.73024040       0.18543973       0.62356496
H        1.24048463       2.10796531       0.18463575
16
Frame=13 idx=011346 GeodesicLength=0.5667610469413507 rxn_smarts="[C:1]([c:2]1[c:3]([C:4]([H:11])([H:12])[H:13])[c:5]([H:14])[c:6]([H:15])[n:7]1[H:16])([H:8])([H:9])[H:10]>>[C:1]([C:2]1=[C-:3][C@@:5]([C:4]([H:11])([H:12])[H:13])([H:14])[C+:6]([H:15])[N:7]1[H:16])([H:8])([H:9])[H:10]"
C       -1.42900439       1.72871027      -0.37777759
C       -0.28424532       0.77703269      -0.48212499
C       -0.26178310      -0.56628635      -0.75931572
C       -0.39258095      -1.94451718       0.56094263
C        1.04360590      -1.02256874      -0.29299708
C        1.75333120       0.10966060       0.18576015
N        0.99513312       1.17219966      -0.07427740
H       -2.33605838       1.20967635      -0.68286618
H       -1.27751360       2.60059718      -1.02093287
H       -1.59454568       2.09164895       0.64140563
H       -0.68510237      -2.78605455      -0.06625725
H       -1.27799228      -1.54956268       1.06051822
H        0.17903421      -2.37790985       1.38659082
H        1.58879501      -1.76175473      -0.87256613
H        2.72631202       0.19850673       0.64463095
H        1.25261461       2.12062165       0.14926681
16
Frame=14 idx=011346 GeodesicLength=0.6107711365154801 rxn_smarts="[C:1]([c:2]1[c:3]([C:4]([H:11])([H:12])[H:13])[c:5]([H:14])[c:6]([H:15])[n:7]1[H:16])([H:8])([H:9])[H:10]>>[C:1]([C:2]1=[C-:3][C@@:5]([C:4]([H:11])([H:12])[H:13])([H:14])[C+:6]([H:15])[N:7]1[H:16])([H:8])([H:9])[H:10]"
C       -1.42578444       1.72866585      -0.37260656
C       -0.27997037       0.77934268      -0.48770836
C       -0.25522579      -0.56453456      -0.74688446
C       -0.40374256      -1.95544782       0.55441092
C        1.04846121      -1.01909077      -0.27458719
C        1.75429816       0.12001557       0.19594758
N        1.00478185       1.18065702      -0.09118415
H       -2.33948098       1.19627575      -0.63156095
H       -1.29781467       2.58126754      -1.04607680
H       -1.56030469       2.12166961       0.63992251
H       -0.69041336      -2.79025578      -0.08552964
H       -1.29515541      -1.57406682       1.05537796
H        0.15348478      -2.40722542       1.38051515
H        1.60028827      -1.74191244      -0.86952430
H        2.72212036       0.21221279       0.66529205
H        1.26445764       2.13242681       0.11419625
16
Frame=15 idx=011346 GeodesicLength=0.6543720543093894 rxn_smarts="[C:1]([c:2]1[c:3]([C:4]([H:11])([H:12])[H:13])[c:5]([H:14])[c:6]([H:15])[n:7]1[H:16])([H:8])([H:9])[H:10]>>[C:1]([C:2]1=[C-:3][C@@:5]([C:4]([H:11])([H:12])[H:13])([H:14])[C+:6]([H:15])[N:7]1[H:16])([H:8])([H:9])[H:10]"
C       -1.42240446       1.72913916      -0.36790335
C       -0.27611885       0.78146561      -0.49270503
C       -0.24930226      -0.56282827      -0.73331896
C       -0.41441154      -1.96667780       0.54819680
C        1.05302615      -1.01558412      -0.25598054
C        1.75511599       0.13046061       0.20568412
N        1.01383332       1.18852686      -0.10717657
H       -2.34105840       1.18492836      -0.58057732
H       -1.31811717       2.56121196      -1.07050773
H       -1.52689524       2.15252786       0.63577919
H       -0.69543688      -2.79428061      -0.10460268
H       -1.31165398      -1.59945493       1.05083996
H        0.12885522      -2.43732570       1.37352817
H        1.61098804      -1.72169096      -0.86631391
H        2.71792619       0.22634895       0.68477389
H        1.27565386       2.14323300       0.08028397
16
Frame=16 idx=011346 GeodesicLength=0.6977828608000232 rxn_smarts="[C:1]([c:2]1[c:3]([C:4]([H:11])([H:12])[H:13])[c:5]([H:14])[c:6]([H:15])[n:7]1[H:16])([H:8])([H:9])[H:10]>>[C:1]([C:2]1=[C-:3][C@@:5]([C:4]([H:11])([H:12])[H:13])([H:14])[C+:6]([H:15])[N:7]1[H:16])([H:8])([H:9])[H:10]"
C       -1.41883458       1.72995508      -0.36336929
C       -0.27250701       0.78344262      -0.49751906
C       -0.24381790      -0.56115556      -0.71888070
C       -0.42477489      -1.97814933       0.54207596
C        1.05736480      -1.01200953      -0.23706672
C        1.75573483       0.14109398       0.21526289
N        1.02259571       1.19595832      -0.12289697
H       -2.34092377       1.17532598      -0.52900263
H       -1.33896838       2.54019890      -1.09412846
H       -1.49370751       2.18400273       0.62938789
H       -0.70027682      -2.79806630      -0.12374881
H       -1.32774338      -1.62562371       1.04646144
H        0.10478725      -2.46814004       1.36551371
H        1.62111274      -1.70115830      -0.86255826
H        2.71333018       0.24104991       0.70411910
H        1.28662875       2.15327525       0.04634992
