14
Frame=0 idx=010162 GeodesicLength=0.0 rxn_smarts="[N:1]([C:2](=[O:3])[C:4]([C@@:5]1([H:12])[C:6]([H:13])([H:14])[O:7]1)([H:10])[H:11])([H:8])[H:9]>>[H:8][H:9].[N:1](=[C:2]=[O:3])[C:4]([C@@:5]1([H:12])[C:6]([H:13])([H:14])[O:7]1)([H:10])[H:11]"
N        1.39271916      -0.16839892       1.61888658
C        0.93600706       0.52854261       0.64922405
O        0.78033361       1.67974418       0.31644131
C        0.49968855      -0.73901798      -0.23006359
C       -0.99177237      -0.67165333      -0.41436160
C       -1.58178790       0.18442421      -1.43194085
O       -1.46754115      -1.22106907      -1.62695403
H        1.72584212       1.47844016       2.35436994
H        1.97623184       0.78426770       2.63872232
H        0.79953598      -1.70367139       0.17530287
H        1.03557806      -0.57516836      -1.16606315
H       -1.57973746      -0.92615943       0.46452831
H       -0.93108194       0.79711881      -2.04776085
H       -2.59401554       0.55260085      -1.30033137
14
Frame=1 idx=010162 GeodesicLength=0.09391400068694583 rxn_smarts="[N:1]([C:2](=[O:3])[C:4]([C@@:5]1([H:12])[C:6]([H:13])([H:14])[O:7]1)([H:10])[H:11])([H:8])[H:9]>>[H:8][H:9].[N:1](=[C:2]=[O:3])[C:4]([C@@:5]1([H:12])[C:6]([H:13])([H:14])[O:7]1)([H:10])[H:11]"
N        1.39188128      -0.14274157       1.59673304
C        0.92789328       0.56873931       0.64325807
O        0.73855566       1.72088372       0.33984576
C        0.49508146      -0.72853546      -0.21964629
C       -0.99568786      -0.66610874      -0.41364083
C       -1.58206224       0.16955750      -1.45029873
O       -1.46673444      -1.23923300      -1.61714299
H        1.74182114       1.44526274       2.39760384
H        2.03804807       0.73742802       2.63248219
H        0.78927014      -1.69561835       0.18529016
H        1.03296130      -0.57732965      -1.15689846
H       -1.58712723      -0.90264951       0.46790755
H       -0.92916171       0.77006021      -2.07590029
H       -2.59473888       0.54028479      -1.32959303
14
Frame=2 idx=010162 GeodesicLength=0.18781716337713644 rxn_smarts="[N:1]([C:2](=[O:3])[C:4]([C@@:5]1([H:12])[C:6]([H:13])([H:14])[O:7]1)([H:10])[H:11])([H:8])[H:9]>>[H:8][H:9].[N:1](=[C:2]=[O:3])[C:4]([C@@:5]1([H:12])[C:6]([H:13])([H:14])[O:7]1)([H:10])[H:11]"
N        1.39329852      -0.11548287       1.57281224
C        0.92093929       0.60978924       0.63592160
O        0.69715365       1.76142390       0.36317393
C        0.49110314      -0.71773858      -0.20937652
C       -0.99900191      -0.66002745      -0.41224002
C       -1.58184497       0.15467617      -1.46759263
O       -1.46615442      -1.25695302      -1.60572257
H        1.75717801       1.40890072       2.43988624
H        2.09227634       0.68984487       2.62433178
H        0.77959024      -1.68702486       0.19567432
H        1.03057010      -0.57990157      -1.14804143
H       -1.59359365      -0.87797849       0.47194994
H       -0.92677862       0.74229641      -2.10325244
H       -2.59473571       0.52817554      -1.35752444
14
Frame=3 idx=010162 GeodesicLength=0.28168850039615284 rxn_smarts="[N:1]([C:2](=[O:3])[C:4]([C@@:5]1([H:12])[C:6]([H:13])([H:14])[O:7]1)([H:10])[H:11])([H:8])[H:9]>>[H:8][H:9].[N:1](=[C:2]=[O:3])[C:4]([C@@:5]1([H:12])[C:6]([H:13])([H:14])[O:7]1)([H:10])[H:11]"
N        1.39638417      -0.08643546       1.54746566
C        0.91440747       0.65185503       0.62765619
O        0.65606496       1.80141113       0.38643530
C        0.48759033      -0.70648480      -0.19902560
C       -1.00184791      -0.65351344      -0.41031583
C       -1.58118634       0.13969633      -1.48399992
O       -1.46549885      -1.27423883      -1.59305258
H        1.77233493       1.36940971       2.48071946
H        2.14047264       0.64119635       2.61435384
H        0.77039082      -1.67768575       0.20678904
H        1.02845692      -0.58260773      -1.13909183
H       -1.59946016      -0.85253493       0.47627234
H       -0.92393734       0.71397763      -2.12968663
H       -2.59417164       0.51595474      -1.38451945
14
Frame=4 idx=010162 GeodesicLength=0.37564372936214224 rxn_smarts="[N:1]([C:2](=[O:3])[C:4]([C@@:5]1([H:12])[C:6]([H:13])([H:14])[O:7]1)([H:10])[H:11])([H:8])[H:9]>>[H:8][H:9].[N:1](=[C:2]=[O:3])[C:4]([C@@:5]1([H:12])[C:6]([H:13])([H:14])[O:7]1)([H:10])[H:11]"
N        1.39941310      -0.05543258       1.52211410
C        0.90640350       0.69518348       0.62007143
O        0.61304320       1.84099242       0.41168994
C        0.48392726      -0.69441246      -0.18777179
C       -1.00468245      -0.64667188      -0.40826230
C       -1.57986556       0.12432171      -1.50039346
O       -1.46407541      -1.29133910      -1.57988143
H        1.78995448       1.32660236       2.51946314
H        2.18704536       0.59121336       2.60020295
H        0.76106008      -1.66722363       0.21948632
H        1.02673930      -0.58458623      -1.12872168
H       -1.60587781      -0.82660189       0.47995693
H       -0.92008040       0.68490030      -2.15563145
H       -2.59300466       0.50305415      -1.41232270
14
Frame=5 idx=010162 GeodesicLength=0.4697144099883173 rxn_smarts="[N:1]([C:2](=[O:3])[C:4]([C@@:5]1([H:12])[C:6]([H:13])([H:14])[O:7]1)([H:10])[H:11])([H:8])[H:9]>>[H:8][H:9].[N:1](=[C:2]=[O:3])[C:4]([C@@:5]1([H:12])[C:6]([H:13])([H:14])[O:7]1)([H:10])[H:11]"
N        1.40367682      -0.02228610       1.49555024
C        0.89834857       0.73984082       0.61188021
O        0.57000783       1.88013969       0.43723460
C        0.48066953      -0.68154854      -0.17626047
C       -1.00708434      -0.63927127      -0.40566893
C       -1.57805416       0.10861749      -1.51611236
O       -1.46241065      -1.30819628      -1.56529743
H        1.80713324       1.28014678       2.55643864
H        2.22891605       0.53938411       2.58372335
H        0.75225558      -1.65558460       0.23323593
H        1.02535019      -0.58622152      -1.11796363
H       -1.61183707      -0.79962011       0.48386042
H       -0.91571154       0.65486444      -2.18096877
H       -2.59126006       0.48973509      -1.43965181
14
Frame=6 idx=010162 GeodesicLength=0.5638739178167077 rxn_smarts="[N:1]([C:2](=[O:3])[C:4]([C@@:5]1([H:12])[C:6]([H:13])([H:14])[O:7]1)([H:10])[H:11])([H:8])[H:9]>>[H:8][H:9].[N:1](=[C:2]=[O:3])[C:4]([C@@:5]1([H:12])[C:6]([H:13])([H:14])[O:7]1)([H:10])[H:11]"
N        1.40864537       0.01318221       1.46828640
C        0.88922824       0.78595656       0.60390383
O        0.52648275       1.91900960       0.46364919
C        0.47752089      -0.66770933      -0.16405645
C       -1.00926503      -0.63134310      -0.40266656
C       -1.57562662       0.09245884      -1.53146729
O       -1.46015747      -1.32487354      -1.54959305
H        1.82462623       1.22967498       2.59134480
H        2.26786264       0.48561859       2.56361806
H        0.74367771      -1.64253985       0.24856750
H        1.02434135      -0.58712968      -1.10614490
H       -1.61790381      -0.77179316       0.48755336
H       -0.91052783       0.62380238      -2.20574658
H       -2.58890444       0.47568549      -1.46724830
14
Frame=7 idx=010162 GeodesicLength=0.6581555140353086 rxn_smarts="[N:1]([C:2](=[O:3])[C:4]([C@@:5]1([H:12])[C:6]([H:13])([H:14])[O:7]1)([H:10])[H:11])([H:8])[H:9]>>[H:8][H:9].[N:1](=[C:2]=[O:3])[C:4]([C@@:5]1([H:12])[C:6]([H:13])([H:14])[O:7]1)([H:10])[H:11]"
N        1.41346155       0.05121980       1.44090499
C        0.87853317       0.83366895       0.59653692
O        0.48229760       1.95777682       0.49100347
C        0.47439508      -0.65274140      -0.15091762
C       -1.01125505      -0.62293731      -0.39929529
C       -1.57246895       0.07577191      -1.54651423
O       -1.45701267      -1.34138107      -1.53291417
H        1.84350838       1.17522684       2.62318821
H        2.30390710       0.42922334       2.53939920
H        0.73531466      -1.62787033       0.26580642
H        1.02381639      -0.58703320      -1.09288986
H       -1.62427333      -0.74336003       0.49083309
H       -0.90434477       0.59178348      -2.22981242
H       -2.58587915       0.46065220      -1.49532870
14
Frame=8 idx=010162 GeodesicLength=0.7525721930556155 rxn_smarts="[N:1]([C:2](=[O:3])[C:4]([C@@:5]1([H:12])[C:6]([H:13])([H:14])[O:7]1)([H:10])[H:11])([H:8])[H:9]>>[H:8][H:9].[N:1](=[C:2]=[O:3])[C:4]([C@@:5]1([H:12])[C:6]([H:13])([H:14])[O:7]1)([H:10])[H:11]"
N        1.41889759       0.09215586       1.41267183
C        0.86711590       0.88313598       0.58894632
O        0.43867208       1.99671289       0.51799976
C        0.47173926      -0.63655933      -0.13719998
C       -1.01270218      -0.61392542      -0.39523736
C       -1.56866748       0.05856073      -1.56072189
O       -1.45316309      -1.35767426      -1.51462214
H        1.86131129       1.11608868       2.65217560
H        2.33515306       0.36964439       2.51166747
H        0.72774276      -1.61138949       0.28471999
H        1.02382496      -0.58606919      -1.07878748
H       -1.63020947      -0.71406010       0.49428224
H       -0.89750295       0.55869971      -2.25294596
H       -2.58221172       0.44467954      -1.52294840
14
Frame=9 idx=010162 GeodesicLength=0.8470098731113173 rxn_smarts="[N:1]([C:2](=[O:3])[C:4]([C@@:5]1([H:12])[C:6]([H:13])([H:14])[O:7]1)([H:10])[H:11])([H:8])[H:9]>>[H:8][H:9].[N:1](=[C:2]=[O:3])[C:4]([C@@:5]1([H:12])[C:6]([H:13])([H:14])[O:7]1)([H:10])[H:11]"
N        1.42892440       0.13661017       1.38015736
C        0.85810350       0.93468683       0.57811669
O        0.39940094       2.03647143       0.54093612
C        0.47102444      -0.61906026      -0.12438634
C       -1.01256055      -0.60383403      -0.38956194
C       -1.56484070       0.04085597      -1.57255848
O       -1.44962189      -1.37366875      -1.49263748
H        1.86814231       1.04890900       2.68139812
H        2.35749594       0.30732846       2.48289408
H        0.72276074      -1.59278860       0.30405881
H        1.02434093      -0.58491494      -1.06621441
H       -1.63326586      -0.68272046       0.49985476
H       -0.89156997       0.52396365      -2.27492164
H       -2.57833424       0.42816153      -1.54713564
14
Frame=10 idx=010162 GeodesicLength=0.9418740295741974 rxn_smarts="[N:1]([C:2](=[O:3])[C:4]([C@@:5]1([H:12])[C:6]([H:13])([H:14])[O:7]1)([H:10])[H:11])([H:8])[H:9]>>[H:8][H:9].[N:1](=[C:2]=[O:3])[C:4]([C@@:5]1([H:12])[C:6]([H:13])([H:14])[O:7]1)([H:10])[H:11]"
N        1.43605060       0.18459054       1.34964585
C        0.84664307       0.98838839       0.56861007
O        0.35938469       2.07719424       0.56396497
C        0.47039514      -0.59989078      -0.10977355
C       -1.01203061      -0.59328818      -0.38328908
C       -1.55976295       0.02244426      -1.58387195
O       -1.44412006      -1.38945943      -1.46961486
H        1.87776931       0.97697640       2.70414842
H        2.37569388       0.23964262       2.44717837
H        0.71823621      -1.57178487       0.32646563
H        1.02591994      -0.58212337      -1.05096132
H       -1.63680353      -0.65116786       0.50487636
H       -0.88395168       0.48847283      -2.29543154
H       -2.57342401       0.41000522      -1.57194738
14
Frame=11 idx=010162 GeodesicLength=1.0366649794588187 rxn_smarts="[N:1]([C:2](=[O:3])[C:4]([C@@:5]1([H:12])[C:6]([H:13])([H:14])[O:7]1)([H:10])[H:11])([H:8])[H:9]>>[H:8][H:9].[N:1](=[C:2]=[O:3])[C:4]([C@@:5]1([H:12])[C:6]([H:13])([H:14])[O:7]1)([H:10])[H:11]"
N        1.44821430       0.23685526       1.31478813
C        0.83760531       1.04459390       0.55588047
O        0.32395564       2.11964203       0.58249209
C        0.47217262      -0.57893468      -0.09571139
C       -1.00948708      -0.58148222      -0.37493285
C       -1.55440836       0.00337545      -1.59229623
O       -1.43837385      -1.40491037      -1.44216911
H        1.87172180       0.89277621       2.72629477
H        2.38552662       0.17018132       2.40727681
H        0.71690809      -1.54796924       0.34992714
H        1.02845084      -0.57878454      -1.03682890
H       -1.63702918      -0.61735992       0.51243091
H       -0.87711507       0.45104588      -2.31431835
H       -2.56814168       0.39097091      -1.59283350
14
Frame=12 idx=010162 GeodesicLength=1.1322471918655175 rxn_smarts="[N:1]([C:2](=[O:3])[C:4]([C@@:5]1([H:12])[C:6]([H:13])([H:14])[O:7]1)([H:10])[H:11])([H:8])[H:9]>>[H:8][H:9].[N:1](=[C:2]=[O:3])[C:4]([C@@:5]1([H:12])[C:6]([H:13])([H:14])[O:7]1)([H:10])[H:11]"
N        1.45212168       0.29111781       1.28742330
C        0.82304475       1.10187215       0.54838127
O        0.28487665       2.16254911       0.60388161
C        0.47228501      -0.55677904      -0.07741303
C       -1.00768132      -0.56958759      -0.36654811
C       -1.54630984      -0.01610512      -1.60141828
O       -1.42954765      -1.41983168      -1.41551822
H        1.87622540       0.80574158       2.73735969
H        2.39589846       0.09743003       2.35261158
H        0.71333567      -1.52244804       0.37873320
H        1.03234557      -0.57373392      -1.01630532
H       -1.64071453      -0.58425223       0.51749521
H       -0.86556390       0.41354190      -2.33124923
H       -2.56031593       0.37048504      -1.61743368
14
Frame=13 idx=010162 GeodesicLength=1.228361751242028 rxn_smarts="[N:1]([C:2](=[O:3])[C:4]([C@@:5]1([H:12])[C:6]([H:13])([H:14])[O:7]1)([H:10])[H:11])([H:8])[H:9]>>[H:8][H:9].[N:1](=[C:2]=[O:3])[C:4]([C@@:5]1([H:12])[C:6]([H:13])([H:14])[O:7]1)([H:10])[H:11]"
N        1.45556257       0.34743104       1.26128935
C        0.80888384       1.16018414       0.54095398
O        0.24871694       2.20654612       0.62226614
C        0.47361708      -0.53356037      -0.05798147
C       -1.00458531      -0.55709281      -0.35660624
C       -1.53686127      -0.03573459      -1.60825932
O       -1.41946953      -1.43395682      -1.38640100
H        1.86994139       0.70769203       2.74321271
H        2.40227056       0.02729652       2.28789100
H        0.71115415      -1.49523399       0.40957132
H        1.03760734      -0.56793609      -0.99420048
H       -1.64309586      -0.55055687       0.52357800
H       -0.85266255       0.37552771      -2.34556943
H       -2.55107937       0.34939397      -1.63974457
14
Frame=14 idx=010162 GeodesicLength=1.3251251604311545 rxn_smarts="[N:1]([C:2](=[O:3])[C:4]([C@@:5]1([H:12])[C:6]([H:13])([H:14])[O:7]1)([H:10])[H:11])([H:8])[H:9]>>[H:8][H:9].[N:1](=[C:2]=[O:3])[C:4]([C@@:5]1([H:12])[C:6]([H:13])([H:14])[O:7]1)([H:10])[H:11]"
N        1.44742123       0.40102501       1.24706409
C        0.78793537       1.21637112       0.54216721
O        0.20788810       2.24870213       0.64579880
C        0.47094739      -0.51138281      -0.03273748
C       -1.00392789      -0.54506619      -0.34754089
C       -1.52349574      -0.05469647      -1.61707576
O       -1.40733093      -1.44682953      -1.36037994
H        1.88012067       0.61031588       2.73654335
H        2.41615407      -0.03604873       2.20348857
H        0.70251054      -1.46923969       0.44670227
H        1.04346577      -0.56233301      -0.96313807
H       -1.65206756      -0.51827936       0.52517757
H       -0.83212983       0.33852831      -2.35768005
H       -2.53749118       0.32893333      -1.66838967
14
Frame=15 idx=010162 GeodesicLength=1.4225131755965423 rxn_smarts="[N:1]([C:2](=[O:3])[C:4]([C@@:5]1([H:12])[C:6]([H:13])([H:14])[O:7]1)([H:10])[H:11])([H:8])[H:9]>>[H:8][H:9].[N:1](=[C:2]=[O:3])[C:4]([C@@:5]1([H:12])[C:6]([H:13])([H:14])[O:7]1)([H:10])[H:11]"
N        1.43353400       0.45166113       1.24002724
C        0.76474374       1.27032126       0.54819923
O        0.16713719       2.28939417       0.67039377
C        0.46648625      -0.49044459      -0.00428535
C       -1.00411115      -0.53332642      -0.33836969
C       -1.50743965      -0.07279636      -1.62563338
O       -1.39448345      -1.45836404      -1.33532959
H        1.89214346       0.50845004       2.72056495
H        2.43306080      -0.08799009       2.10516548
H        0.69035232      -1.44461994       0.48716514
H        1.04981539      -0.55746502      -0.92702835
H       -1.66377053      -0.48694554       0.52483522
H       -0.80688934       0.30249121      -2.36706138
H       -2.52057903       0.30963419      -1.69864329
14
Frame=16 idx=010162 GeodesicLength=1.520602946609786 rxn_smarts="[N:1]([C:2](=[O:3])[C:4]([C@@:5]1([H:12])[C:6]([H:13])([H:14])[O:7]1)([H:10])[H:11])([H:8])[H:9]>>[H:8][H:9].[N:1](=[C:2]=[O:3])[C:4]([C@@:5]1([H:12])[C:6]([H:13])([H:14])[O:7]1)([H:10])[H:11]"
N        1.41110672       0.49688722       1.24321890
C        0.73788118       1.32039089       0.56140220
O        0.12516470       2.32751509       0.69761763
C        0.45843402      -0.47208048       0.02863499
C       -1.00634153      -0.52242137      -0.32985234
C       -1.48792150      -0.08945083      -1.63499777
O       -1.38119679      -1.46833336      -1.31321559
H        1.91615287       0.40836774       2.69277396
H        2.45357582      -0.12681749       1.99147903
H        0.67184301      -1.42302587       0.53197676
H        1.05599982      -0.55446428      -0.88377735
H       -1.68042689      -0.45744117       0.52090583
H       -0.77507204       0.26841978      -2.37345266
H       -2.49919938       0.29245412      -1.73271360
