13
Frame=0 idx=000276 GeodesicLength=0.0 rxn_smarts="[C:1]([C:2]([C:3]([H:10])([H:11])[H:12])([C:4]#[C:5][H:13])[H:9])([H:6])([H:7])[H:8]>>[C:1]([C:2]([C:3]([H:10])([H:11])[H:12])=[C:4]=[C:5]([H:9])[H:13])([H:6])([H:7])[H:8]"
C       -0.30180277       1.37964909      -0.40633828
C       -0.05695752      -0.05446716      -0.03915154
C       -1.21526191      -1.00398897      -0.15913275
C        1.17453182      -0.43898798       0.45464630
C        2.41254083      -0.29336349       0.84158043
H        0.61075209       1.83389341      -0.79348617
H       -1.10082355       1.45901570      -1.14640149
H       -0.61151261       1.95754192       0.46876729
H        0.43942667      -0.71142592       1.33013795
H       -2.10243232      -0.64521004       0.37074951
H       -0.96279822      -2.00115198       0.19949538
H       -1.48766815      -1.08305239      -1.21578688
H        3.20200567      -0.39845222       0.09492020
13
Frame=1 idx=000276 GeodesicLength=0.09718653514600482 rxn_smarts="[C:1]([C:2]([C:3]([H:10])([H:11])[H:12])([C:4]#[C:5][H:13])[H:9])([H:6])([H:7])[H:8]>>[C:1]([C:2]([C:3]([H:10])([H:11])[H:12])=[C:4]=[C:5]([H:9])[H:13])([H:6])([H:7])[H:8]"
C       -0.30489682       1.38014431      -0.40488166
C       -0.06285379      -0.05321038      -0.03181747
C       -1.22222651      -1.00199687      -0.15302379
C        1.18363209      -0.45975840       0.40167625
C        2.40328952      -0.29731145       0.82744211
H        0.61361082       1.84767989      -0.76053735
H       -1.07710014       1.45473863      -1.17338091
H       -0.64979294       1.95020033       0.46206577
H        0.46639003      -0.70012705       1.33732577
H       -2.10675680      -0.64051779       0.37928475
H       -0.97300172      -2.00013279       0.20513393
H       -1.49739217      -1.08098787      -1.20891034
H        3.22709841      -0.39872055       0.11962294
13
Frame=2 idx=000276 GeodesicLength=0.19438840126624324 rxn_smarts="[C:1]([C:2]([C:3]([H:10])([H:11])[H:12])([C:4]#[C:5][H:13])[H:9])([H:6])([H:7])[H:8]>>[C:1]([C:2]([C:3]([H:10])([H:11])[H:12])=[C:4]=[C:5]([H:9])[H:13])([H:6])([H:7])[H:8]"
C       -0.30820156       1.38110948      -0.40281144
C       -0.06802115      -0.05095181      -0.02206837
C       -1.22750501      -1.00000426      -0.14695314
C        1.19081933      -0.47666817       0.35276038
C        2.39434511      -0.30614546       0.81060912
H        0.61547008       1.86262131      -0.72447706
H       -1.05053003       1.44950195      -1.20079360
H       -0.69130602       1.94348801       0.45293572
H        0.49325918      -0.68654589       1.34697103
H       -2.11081061      -0.63660750       0.38592240
H       -0.98112487      -1.99874235       0.21145953
H       -1.50322614      -1.07940204      -1.20260160
H        3.24683170      -0.40165327       0.13904702
13
Frame=3 idx=000276 GeodesicLength=0.29169082570989624 rxn_smarts="[C:1]([C:2]([C:3]([H:10])([H:11])[H:12])([C:4]#[C:5][H:13])[H:9])([H:6])([H:7])[H:8]>>[C:1]([C:2]([C:3]([H:10])([H:11])[H:12])=[C:4]=[C:5]([H:9])[H:13])([H:6])([H:7])[H:8]"
C       -0.31368250       1.38350889      -0.40012380
C       -0.07254351      -0.04665842      -0.01084588
C       -1.23029565      -0.99813351      -0.14124666
C        1.19689184      -0.48766782       0.30631987
C        2.38609666      -0.31380396       0.79096689
H        0.61338815       1.88065944      -0.68587307
H       -1.02357969       1.44406940      -1.22773406
H       -0.73745454       1.93741812       0.44176876
H        0.52110813      -0.66873292       1.35817295
H       -2.11376728      -0.63477902       0.39122119
H       -0.98505848      -1.99702155       0.21751306
H       -1.50515134      -1.07828457      -1.19699883
H        3.26404820      -0.42057409       0.15685958
13
Frame=4 idx=000276 GeodesicLength=0.389028506871681 rxn_smarts="[C:1]([C:2]([C:3]([H:10])([H:11])[H:12])([C:4]#[C:5][H:13])[H:9])([H:6])([H:7])[H:8]>>[C:1]([C:2]([C:3]([H:10])([H:11])[H:12])=[C:4]=[C:5]([H:9])[H:13])([H:6])([H:7])[H:8]"
C       -0.32027354       1.38657641      -0.39701942
C       -0.07642839      -0.04133680       0.00141649
C       -1.23150794      -0.99633095      -0.13577933
C        1.20185081      -0.49476915       0.26162566
C        2.37822554      -0.32173448       0.76939299
H        0.60843260       1.90015253      -0.64565732
H       -0.99560781       1.43856339      -1.25366984
H       -0.78588364       1.93130730       0.42851043
H        0.54964067      -0.64781308       1.37054316
H       -2.11594633      -0.63421333       0.39576384
H       -0.98643734      -1.99517223       0.22322089
H       -1.50470516      -1.07725498      -1.19183629
H        3.27864052      -0.44797464       0.17348873
13
Frame=5 idx=000276 GeodesicLength=0.4863615713097602 rxn_smarts="[C:1]([C:2]([C:3]([H:10])([H:11])[H:12])([C:4]#[C:5][H:13])[H:9])([H:6])([H:7])[H:8]>>[C:1]([C:2]([C:3]([H:10])([H:11])[H:12])=[C:4]=[C:5]([H:9])[H:13])([H:6])([H:7])[H:8]"
C       -0.32753324       1.38995866      -0.39363208
C       -0.07964180      -0.03547376       0.01429915
C       -1.23153827      -0.99458539      -0.13052525
C        1.20578981      -0.49891622       0.21810021
C        2.37049078      -0.33041224       0.74644437
H        0.60099086       1.92029265      -0.60456827
H       -0.96664662       1.43319879      -1.27814968
H       -0.83520523       1.92475697       0.41329298
H        0.57875055      -0.62415114       1.38375987
H       -2.11737345      -0.63457794       0.39996124
H       -0.98592675      -1.99330891       0.22844013
H       -1.50274891      -1.07611329      -1.18697942
H        3.29059227      -0.48066818       0.18955675
13
Frame=6 idx=000276 GeodesicLength=0.5836618294420249 rxn_smarts="[C:1]([C:2]([C:3]([H:10])([H:11])[H:12])([C:4]#[C:5][H:13])[H:9])([H:6])([H:7])[H:8]>>[C:1]([C:2]([C:3]([H:10])([H:11])[H:12])=[C:4]=[C:5]([H:9])[H:13])([H:6])([H:7])[H:8]"
C       -0.33506519       1.39337037      -0.39006448
C       -0.08213109      -0.02946999       0.02745668
C       -1.23069030      -0.99289405      -0.12547162
C        1.20877834      -0.50087349       0.17536843
C        2.36262360      -0.34051333       0.72269196
H        0.59149008       1.94043346      -0.56319320
H       -0.93675088       1.42813856      -1.30086690
H       -0.88430907       1.91747192       0.39629491
H        0.60827362      -0.59798605       1.39762895
H       -2.11806098      -0.63559362       0.40411398
H       -0.98405474      -1.99152277       0.23307146
H       -1.49993947      -1.07471755      -1.18233471
H        3.29983608      -0.51584346       0.20530454
13
Frame=7 idx=000276 GeodesicLength=0.6809407726541701 rxn_smarts="[C:1]([C:2]([C:3]([H:10])([H:11])[H:12])([C:4]#[C:5][H:13])[H:9])([H:6])([H:7])[H:8]>>[C:1]([C:2]([C:3]([H:10])([H:11])[H:12])=[C:4]=[C:5]([H:9])[H:13])([H:6])([H:7])[H:8]"
C       -0.34290011       1.39679448      -0.38638990
C       -0.08382399      -0.02339808       0.04051641
C       -1.22895125      -0.99129110      -0.12066640
C        1.21100979      -0.50071061       0.13300618
C        2.35445837      -0.35193081       0.69844435
H        0.57986451       1.96044359      -0.52216390
H       -0.90655074       1.42364761      -1.32152185
H       -0.93261699       1.90932346       0.37787663
H        0.63824797      -0.56905062       1.41190692
H       -2.11782164      -0.63731301       0.40846983
H       -0.98071277      -1.98987306       0.23692476
H       -1.49657582      -1.07302641      -1.17787760
H        3.30637269      -0.55361546       0.22147455
13
Frame=8 idx=000276 GeodesicLength=0.7782210480627353 rxn_smarts="[C:1]([C:2]([C:3]([H:10])([H:11])[H:12])([C:4]#[C:5][H:13])[H:9])([H:6])([H:7])[H:8]>>[C:1]([C:2]([C:3]([H:10])([H:11])[H:12])=[C:4]=[C:5]([H:9])[H:13])([H:6])([H:7])[H:8]"
C       -0.35111343       1.40026072      -0.38266823
C       -0.08463335      -0.01726142       0.05315611
C       -1.22623359      -0.98981411      -0.11615063
C        1.21269418      -0.49836041       0.09061567
C        2.34583879      -0.36468746       0.67394371
H        0.56605205       1.98031646      -0.48199680
H       -0.87669530       1.41997762      -1.33994625
H       -0.97976660       1.90022347       0.35843201
H        0.66874150      -0.53696691       1.42637447
H       -2.11643637      -0.63983288       0.41323765
H       -0.97567166      -1.98839671       0.23984857
H       -1.49282573      -1.07104083      -1.17358922
H        3.31004952      -0.59441753       0.23874293
13
Frame=9 idx=000276 GeodesicLength=0.8755011994264316 rxn_smarts="[C:1]([C:2]([C:3]([H:10])([H:11])[H:12])([C:4]#[C:5][H:13])[H:9])([H:6])([H:7])[H:8]>>[C:1]([C:2]([C:3]([H:10])([H:11])[H:12])=[C:4]=[C:5]([H:9])[H:13])([H:6])([H:7])[H:8]"
C       -0.35906848       1.40341168      -0.37894370
C       -0.08452598      -0.01153015       0.06529077
C       -1.22293226      -0.98844482      -0.11188106
C        1.21375133      -0.49480963       0.04825076
C        2.33621171      -0.38066635       0.65006575
H        0.55100158       1.99933799      -0.44277798
H       -0.84673210       1.41707204      -1.35625173
H       -1.02491841       1.89001674       0.33806288
H        0.69929657      -0.50210466       1.44117520
H       -2.11410735      -0.64271629       0.41849607
H       -0.96972791      -1.98715261       0.24193081
H       -1.48917146      -1.06867274      -1.16940997
H        3.31092275      -0.63374120       0.25599219
13
Frame=10 idx=000276 GeodesicLength=0.9728220419053926 rxn_smarts="[C:1]([C:2]([C:3]([H:10])([H:11])[H:12])([C:4]#[C:5][H:13])[H:9])([H:6])([H:7])[H:8]>>[C:1]([C:2]([C:3]([H:10])([H:11])[H:12])=[C:4]=[C:5]([H:9])[H:13])([H:6])([H:7])[H:8]"
C       -0.36713577       1.40646587      -0.37524177
C       -0.08340048      -0.00596129       0.07664159
C       -1.21871668      -0.98724749      -0.10794279
C        1.21449055      -0.48945766       0.00548177
C        2.32535355      -0.39956829       0.62691932
H        0.53434031       2.01785931      -0.40509350
H       -0.81774689       1.41522393      -1.37030415
H       -1.06808164       1.87877876       0.31734643
H        0.73013727      -0.46367280       1.45607409
H       -2.11048404      -0.64630006       0.42435908
H       -0.96218314      -1.98614495       0.24297143
H       -1.48544092      -1.06601717      -1.16538246
H        3.30886786      -0.67395816       0.27417096
13
Frame=11 idx=000276 GeodesicLength=1.0702468744286913 rxn_smarts="[C:1]([C:2]([C:3]([H:10])([H:11])[H:12])([C:4]#[C:5][H:13])[H:9])([H:6])([H:7])[H:8]>>[C:1]([C:2]([C:3]([H:10])([H:11])[H:12])=[C:4]=[C:5]([H:9])[H:13])([H:6])([H:7])[H:8]"
C       -0.37561944       1.40961837      -0.37157471
C       -0.08111412      -0.00031615       0.08698912
C       -1.21322009      -0.98627559      -0.10438939
C        1.21523416      -0.48169258      -0.03813155
C        2.31295281      -0.42152076       0.60457042
H        0.51578787       2.03625507      -0.36936383
H       -0.79064894       1.41467714      -1.38209919
H       -1.10937528       1.86654034       0.29682211
H        0.76155802      -0.42082479       1.47082502
H       -2.10518158      -0.65089307       0.43093712
H       -0.95231586      -1.98535286       0.24282703
H       -1.48139584      -1.06317720      -1.16152062
H        3.30333829      -0.71703792       0.29410847
13
Frame=12 idx=000276 GeodesicLength=1.1678388373514181 rxn_smarts="[C:1]([C:2]([C:3]([H:10])([H:11])[H:12])([C:4]#[C:5][H:13])[H:9])([H:6])([H:7])[H:8]>>[C:1]([C:2]([C:3]([H:10])([H:11])[H:12])=[C:4]=[C:5]([H:9])[H:13])([H:6])([H:7])[H:8]"
C       -0.38437493       1.41281702      -0.36794561
C       -0.07756396       0.00535540       0.09628018
C       -1.20638772      -0.98553854      -0.10122528
C        1.21612281      -0.47154862      -0.08269388
C        2.29819724      -0.44810326       0.58359889
H        0.49567056       2.05446066      -0.33567644
H       -0.76558518       1.41547351      -1.39180176
H       -1.14862850       1.85329104       0.27678879
H        0.79353798      -0.37312995       1.48541561
H       -2.09809231      -0.65645880       0.43824009
H       -0.94005462      -1.98475187       0.24151575
H       -1.47696784      -1.06020802      -1.15782184
H        3.29412647      -0.76165856       0.31532549
13
Frame=13 idx=000276 GeodesicLength=1.2656908931780242 rxn_smarts="[C:1]([C:2]([C:3]([H:10])([H:11])[H:12])([C:4]#[C:5][H:13])[H:9])([H:6])([H:7])[H:8]>>[C:1]([C:2]([C:3]([H:10])([H:11])[H:12])=[C:4]=[C:5]([H:9])[H:13])([H:6])([H:7])[H:8]"
C       -0.39329300       1.41602099      -0.36434089
C       -0.07261615       0.01102081       0.10445317
C       -1.19814105      -0.98502923      -0.09842307
C        1.21733593      -0.45899836      -0.12839670
C        2.27999271      -0.48073285       0.56430391
H        0.47419326       2.07251397      -0.30385615
H       -0.74250326       1.41762479      -1.39964380
H       -1.18591221       1.83893724       0.25738397
H        0.82634704      -0.32012820       1.49966006
H       -2.08903131      -0.66297883       0.44640580
H       -0.92525618      -1.98430374       0.23902134
H       -1.47214777      -1.05709755      -1.15423010
H        3.28103198      -0.80684905       0.33766246
13
Frame=14 idx=000276 GeodesicLength=1.3641026985161013 rxn_smarts="[C:1]([C:2]([C:3]([H:10])([H:11])[H:12])([C:4]#[C:5][H:13])[H:9])([H:6])([H:7])[H:8]>>[C:1]([C:2]([C:3]([H:10])([H:11])[H:12])=[C:4]=[C:5]([H:9])[H:13])([H:6])([H:7])[H:8]"
C       -0.40320492       1.41973844      -0.36074609
C       -0.06589851       0.01742561       0.11125908
C       -1.18744658      -0.98481067      -0.09601876
C        1.21958758      -0.44221651      -0.17591135
C        2.25741352      -0.51928108       0.54614287
H        0.45018389       2.09156001      -0.27408935
H       -0.72269181       1.42154053      -1.40570491
H       -1.22220898       1.82337630       0.23910952
H        0.86131842      -0.25989388       1.51276506
H       -2.07697813      -0.67125395       0.45572411
H       -0.90594538      -1.98384127       0.23510865
H       -1.46606706      -1.05406934      -1.15071237
H        3.26193796      -0.85827418       0.36307352
13
Frame=15 idx=000276 GeodesicLength=1.4631978533313368 rxn_smarts="[C:1]([C:2]([C:3]([H:10])([H:11])[H:12])([C:4]#[C:5][H:13])[H:9])([H:6])([H:7])[H:8]>>[C:1]([C:2]([C:3]([H:10])([H:11])[H:12])=[C:4]=[C:5]([H:9])[H:13])([H:6])([H:7])[H:8]"
C       -0.41376118       1.42371020      -0.35705990
C       -0.05722677       0.02431012       0.11670008
C       -1.17435458      -0.98488371      -0.09401978
C        1.22302201      -0.42174773      -0.22514856
C        2.22888253      -0.56344894       0.52881474
H        0.42425959       2.11112520      -0.24627992
H       -0.70594279       1.42708694      -1.41008821
H       -1.25707046       1.80646861       0.22236415
H        0.89945835      -0.19272067       1.52405164
H       -2.06179769      -0.68113454       0.46627219
H       -0.88232036      -1.98337040       0.22967619
H       -1.45876080      -1.05107782      -1.14726719
H        3.23561215      -0.91431726       0.39198458
13
Frame=16 idx=000276 GeodesicLength=1.5631717079277532 rxn_smarts="[C:1]([C:2]([C:3]([H:10])([H:11])[H:12])([C:4]#[C:5][H:13])[H:9])([H:6])([H:7])[H:8]>>[C:1]([C:2]([C:3]([H:10])([H:11])[H:12])=[C:4]=[C:5]([H:9])[H:13])([H:6])([H:7])[H:8]"
C       -0.42377274       1.42717136      -0.35313249
C       -0.04682955       0.03073463       0.12119532
C       -1.15998810      -0.98513976      -0.09240886
C        1.22707506      -0.39996199      -0.27527038
C        2.19254406      -0.61352609       0.51205609
H        0.39849702       2.12951596      -0.22031609
H       -0.69100985       1.43363445      -1.41285230
H       -1.28893030       1.78840721       0.20747322
H        0.94154303      -0.12151469       1.53291824
H       -2.04448422      -0.69163944       0.47763266
H       -0.85662566      -1.98295392       0.22297706
H       -1.45079212      -1.04801819      -1.14398889
H        3.20277337      -0.96670952       0.42371642
