13
Frame=0 idx=002186 GeodesicLength=0.0 rxn_smarts="[C:1]([N:2]([C:3](=[O:4])[C:5]([O:6][H:13])([H:11])[H:12])[H:10])([H:7])([H:8])[H:9]>>[C:1]([N+:2]([C:3]([O-:4])=[C:5]([O:6][H:13])[H:11])([H:10])[H:12])([H:7])([H:8])[H:9]"
C        1.91675896      -0.14056129      -0.05361512
N        0.50925374      -0.13375274      -0.42299217
C       -0.43374216       0.57163888       0.58252184
O        0.01556161       1.28043048       1.43442334
C       -1.62196671      -0.22366246       0.42978125
O       -2.12788598      -0.35538880      -0.88931591
H        2.28298961       0.87317116       0.11614691
H        2.04131862      -0.70607853       0.86913526
H        2.49599350      -0.61922178      -0.84162669
H        0.33078088       0.15064395      -1.37762376
H       -2.37705346      -0.14310220       1.20727598
H       -0.35973472      -0.96489775       0.03057641
H       -2.67227390       0.41078112      -1.08468736
13
Frame=1 idx=002186 GeodesicLength=0.049460978351208953 rxn_smarts="[C:1]([N:2]([C:3](=[O:4])[C:5]([O:6][H:13])([H:11])[H:12])[H:10])([H:7])([H:8])[H:9]>>[C:1]([N+:2]([C:3]([O-:4])=[C:5]([O:6][H:13])[H:11])([H:10])[H:12])([H:7])([H:8])[H:9]"
C        1.91861713      -0.13941359      -0.05318901
N        0.51048252      -0.12992800      -0.42115260
C       -0.43143126       0.57191477       0.58110749
O        0.01541212       1.27401698       1.44150957
C       -1.62059278      -0.22277163       0.42864691
O       -2.12856620      -0.35597414      -0.88893137
H        2.28903040       0.87462638       0.10468026
H        2.04072078      -0.69492455       0.87582385
H        2.49597835      -0.62898146      -0.83600325
H        0.33316531       0.16192880      -1.37380235
H       -2.37420501      -0.13798074       1.20694686
H       -0.37023274      -0.97884787       0.01782051
H       -2.67837861       0.40633504      -1.08345688
13
Frame=2 idx=002186 GeodesicLength=0.09892737284517673 rxn_smarts="[C:1]([N:2]([C:3](=[O:4])[C:5]([O:6][H:13])([H:11])[H:12])[H:10])([H:7])([H:8])[H:9]>>[C:1]([N+:2]([C:3]([O-:4])=[C:5]([O:6][H:13])[H:11])([H:10])[H:12])([H:7])([H:8])[H:9]"
C        1.92050571      -0.13826804      -0.05264163
N        0.51177553      -0.12611822      -0.41928979
C       -0.42913406       0.57237866       0.57954904
O        0.01516891       1.26783817       1.44831932
C       -1.61905702      -0.22199028       0.42739776
O       -2.12931463      -0.35623001      -0.88862209
H        2.29512173       0.87592955       0.09323392
H        2.04011468      -0.68361582       0.88257624
H        2.49597802      -0.63876820      -0.83006245
H        0.33566573       0.17289318      -1.36999733
H       -2.37106021      -0.13336287       1.20665431
H       -0.38090917      -0.99274972       0.00469027
H       -2.68485522       0.40206359      -1.08180758
13
Frame=3 idx=002186 GeodesicLength=0.14837591118731652 rxn_smarts="[C:1]([N:2]([C:3](=[O:4])[C:5]([O:6][H:13])([H:11])[H:12])[H:10])([H:7])([H:8])[H:9]>>[C:1]([N+:2]([C:3]([O-:4])=[C:5]([O:6][H:13])[H:11])([H:10])[H:12])([H:7])([H:8])[H:9]"
C        1.92241810      -0.13712489      -0.05197600
N        0.51312732      -0.12232311      -0.41739851
C       -0.42685296       0.57303782       0.57784947
O        0.01483021       1.26190435       1.45485485
C       -1.61735733      -0.22131753       0.42604176
O       -2.13013034      -0.35617490      -0.88837091
H        2.30125437       0.87707224       0.08182984
H        2.03949765      -0.67217365       0.88936992
H        2.49598521      -0.64855017      -0.82382377
H        0.33827144       0.18352647      -1.36621144
H       -2.36762435      -0.12923695       1.20639922
H       -0.39176902      -1.00660106      -0.00880393
H       -2.69165029       0.39796140      -1.07976050
13
Frame=4 idx=002186 GeodesicLength=0.19782994563258516 rxn_smarts="[C:1]([N:2]([C:3](=[O:4])[C:5]([O:6][H:13])([H:11])[H:12])[H:10])([H:7])([H:8])[H:9]>>[C:1]([N+:2]([C:3]([O-:4])=[C:5]([O:6][H:13])[H:11])([H:10])[H:12])([H:7])([H:8])[H:9]"
C        1.92435923      -0.13598153      -0.05118975
N        0.51454107      -0.11853847      -0.41548237
C       -0.42458677       0.57389062       0.57600718
O        0.01439536       1.25620945       1.46112546
C       -1.61549160      -0.22076123       0.42457291
O       -2.13101669      -0.35579438      -0.88819067
H        2.30744302       0.87805654       0.07043707
H        2.03887448      -0.66056178       0.89622509
H        2.49599893      -0.65836165      -0.81726024
H        0.34098875       0.19384492      -1.36245334
H       -2.36389408      -0.12562449       1.20618691
H       -0.40282792      -1.02041101      -0.02267899
H       -2.69878379       0.39403303      -1.07729925
13
Frame=5 idx=002186 GeodesicLength=0.24727723002665467 rxn_smarts="[C:1]([N:2]([C:3](=[O:4])[C:5]([O:6][H:13])([H:11])[H:12])[H:10])([H:7])([H:8])[H:9]>>[C:1]([N+:2]([C:3]([O-:4])=[C:5]([O:6][H:13])[H:11])([H:10])[H:12])([H:7])([H:8])[H:9]"
C        1.92632426      -0.13484001      -0.05028395
N        0.51601267      -0.11475939      -0.41354055
C       -0.42233766       0.57494797       0.57402181
O        0.01386376       1.25076779       1.46713119
C       -1.61345670      -0.22031868       0.42299699
O       -2.13197446      -0.35510775      -0.88806521
H        2.31368314       0.87887242       0.05908342
H        2.03823625      -0.64880878       0.90312216
H        2.49601518      -0.66817289      -0.81038967
H        0.34381064       0.20384765      -1.35872985
H       -2.35986811      -0.12251347       1.20601900
H       -0.41409441      -1.03417636      -0.03692741
H       -2.70621455       0.39026152      -1.07443794
13
Frame=6 idx=002186 GeodesicLength=0.2967240045994041 rxn_smarts="[C:1]([N:2]([C:3](=[O:4])[C:5]([O:6][H:13])([H:11])[H:12])[H:10])([H:7])([H:8])[H:9]>>[C:1]([N+:2]([C:3]([O-:4])=[C:5]([O:6][H:13])[H:11])([H:10])[H:12])([H:7])([H:8])[H:9]"
C        1.92831659      -0.13370159      -0.04925206
N        0.51754863      -0.11097831      -0.41157804
C       -0.42010371       0.57620932       0.57188660
O        0.01323256       1.24557799       1.47286958
C       -1.61124680      -0.21999705       0.42130418
O       -2.13300206      -0.35409306      -0.88800703
H        2.31999018       0.87951371       0.04773609
H        2.03758199      -0.63687469       0.91008426
H        2.49602932      -0.67802680      -0.80317456
H        0.34675202       0.21356100      -1.35504571
H       -2.35553655      -0.11993628       1.20589912
H       -0.42558012      -1.04789721      -0.05157877
H       -2.71398205       0.38664295      -1.07114365
13
Frame=7 idx=002186 GeodesicLength=0.3461671883443508 rxn_smarts="[C:1]([N:2]([C:3](=[O:4])[C:5]([O:6][H:13])([H:11])[H:12])[H:10])([H:7])([H:8])[H:9]>>[C:1]([N+:2]([C:3]([O-:4])=[C:5]([O:6][H:13])[H:11])([H:10])[H:12])([H:7])([H:8])[H:9]"
C        1.93033140      -0.13256473      -0.04809907
N        0.51914288      -0.10719530      -0.40959338
C       -0.41788693       0.57768128       0.56960701
O        0.01250055       1.24065482       1.47834738
C       -1.60886090      -0.21979753       0.41950453
O       -2.13410367      -0.35277351      -0.88799791
H        2.32635556       0.87997776       0.03642470
H        2.03690798      -0.62478855       0.91708948
H        2.49604005      -0.68788639      -0.79564083
H        0.34979986       0.22297274      -1.35141061
H       -2.35090420      -0.11787397       1.20582971
H       -0.43729863      -1.06157925      -0.06661952
H       -2.72202395       0.38317264      -1.06744149
13
Frame=8 idx=002186 GeodesicLength=0.395602206699501 rxn_smarts="[C:1]([N:2]([C:3](=[O:4])[C:5]([O:6][H:13])([H:11])[H:12])[H:10])([H:7])([H:8])[H:9]>>[C:1]([N+:2]([C:3]([O-:4])=[C:5]([O:6][H:13])[H:11])([H:10])[H:12])([H:7])([H:8])[H:9]"
C        1.93237293      -0.13143099      -0.04681540
N        0.52080269      -0.10339794      -0.40758824
C       -0.41568432       0.57936270       0.56717473
O        0.01166663       1.23599503       1.48355650
C       -1.60628903      -0.21972317       0.41757979
O       -2.13527736      -0.35111686      -0.88804917
H        2.33279588       0.88025123       0.02511614
H        2.03621384      -0.61250512       0.92415918
H        2.49603928      -0.69779947      -0.78773918
H        0.35296750       0.23210779      -1.34782399
H       -2.34594946      -0.11636606       1.20580459
H       -0.44926236      -1.07521208      -0.08208797
H       -2.73039621       0.37983494      -1.06328699
13
Frame=9 idx=002186 GeodesicLength=0.44504021521754444 rxn_smarts="[C:1]([N:2]([C:3](=[O:4])[C:5]([O:6][H:13])([H:11])[H:12])[H:10])([H:7])([H:8])[H:9]>>[C:1]([N+:2]([C:3]([O-:4])=[C:5]([O:6][H:13])[H:11])([H:10])[H:12])([H:7])([H:8])[H:9]"
C        1.93444102      -0.13030059      -0.04540102
N        0.52252939      -0.09958244      -0.40556658
C       -0.41349646       0.58126041       0.56459061
O        0.01072786       1.23160965       1.48850495
C       -1.60352865      -0.21977716       0.41553126
O       -2.13652354      -0.34912562      -0.88815958
H        2.33931552       0.88033184       0.01381304
H        2.03549540      -0.60002458       0.93129430
H        2.49602452      -0.70776677      -0.77946948
H        0.35625801       0.24097227      -1.34429819
H       -2.34067017      -0.11541714       1.20583060
H       -0.46148806      -1.08880091      -0.09799164
H       -2.73908483       0.37662104      -1.05867826
13
Frame=10 idx=002186 GeodesicLength=0.49447816634306424 rxn_smarts="[C:1]([N:2]([C:3](=[O:4])[C:5]([O:6][H:13])([H:11])[H:12])[H:10])([H:7])([H:8])[H:9]>>[C:1]([N+:2]([C:3]([O-:4])=[C:5]([O:6][H:13])[H:11])([H:10])[H:12])([H:7])([H:8])[H:9]"
C        1.93653536      -0.12917336      -0.04385346
N        0.52432381      -0.09574304      -0.40352867
C       -0.41132265       0.58337615       0.56185288
O        0.00968323       1.22750266       1.49319175
C       -1.60057424      -0.21996138       0.41335414
O       -2.13784356      -0.34679519      -0.88832540
H        2.34591915       0.88021049       0.00251349
H        2.03475174      -0.58733734       0.93849397
H        2.49598939      -0.71779184      -0.77081952
H        0.35967211       0.24957322      -1.34083652
H       -2.33505730      -0.11503645       1.20590448
H       -0.47399230      -1.10234304      -0.11434244
H       -2.74808474       0.37351913      -1.05360471
13
Frame=11 idx=002186 GeodesicLength=0.5439201417640865 rxn_smarts="[C:1]([N:2]([C:3](=[O:4])[C:5]([O:6][H:13])([H:11])[H:12])[H:10])([H:7])([H:8])[H:9]>>[C:1]([N+:2]([C:3]([O-:4])=[C:5]([O:6][H:13])[H:11])([H:10])[H:12])([H:7])([H:8])[H:9]"
C        1.93865632      -0.12804923      -0.04217072
N        0.52618769      -0.09187424      -0.40147601
C       -0.40916233       0.58571276       0.55896156
O        0.00853085       1.22368162       1.49761986
C       -1.59742140      -0.22027827       0.41104463
O       -2.13923881      -0.34412137      -0.88854441
H        2.35261302       0.87988050      -0.00878473
H        2.03398126      -0.57443465       0.94575916
H        2.49592832      -0.72787978      -0.76177962
H        0.36321279       0.25791792      -1.33744572
H       -2.32910334      -0.11523399       1.20602613
H       -0.48679437      -1.11583851      -0.13115308
H       -2.75738999       0.37051724      -1.04805705
13
Frame=12 idx=002186 GeodesicLength=0.5933532366008232 rxn_smarts="[C:1]([N:2]([C:3](=[O:4])[C:5]([O:6][H:13])([H:11])[H:12])[H:10])([H:7])([H:8])[H:9]>>[C:1]([N+:2]([C:3]([O-:4])=[C:5]([O:6][H:13])[H:11])([H:10])[H:12])([H:7])([H:8])[H:9]"
C        1.94080306      -0.12692752      -0.04034965
N        0.52812143      -0.08797042      -0.39940842
C       -0.40701426       0.58826918       0.55591085
O        0.00727071       1.22014541       1.50177964
C       -1.59406288      -0.22072833       0.40859580
O       -2.14071087      -0.34109913      -0.88880950
H        2.35939809       0.87932799      -0.02007670
H        2.03318457      -0.56130955       0.95308319
H        2.49583513      -0.73802459      -0.75233511
H        0.36687712       0.26601031      -1.33412453
H       -2.32279520      -0.11601548       1.20618618
H       -0.49991261      -1.12927974      -0.14843046
H       -2.76699427       0.36760184      -1.04202130
13
Frame=13 idx=002186 GeodesicLength=0.6427955747381678 rxn_smarts="[C:1]([N:2]([C:3](=[O:4])[C:5]([O:6][H:13])([H:11])[H:12])[H:10])([H:7])([H:8])[H:9]>>[C:1]([N+:2]([C:3]([O-:4])=[C:5]([O:6][H:13])[H:11])([H:10])[H:12])([H:7])([H:8])[H:9]"
C        1.94298054      -0.12580859      -0.03838268
N        0.53013491      -0.08402209      -0.39733295
C       -0.40487669       0.59104715       0.55269853
O        0.00589502       1.21690625       1.50567488
C       -1.59049097      -0.22131862       0.40599332
O       -2.14226232      -0.33769532      -0.88913073
H        2.36629431       0.87854575      -0.03139505
H        2.03235792      -0.54791813       0.96049060
H        2.49570448      -0.74827642      -0.74243989
H        0.37068499       0.27387113      -1.33088598
H       -2.31611300      -0.11742360       1.20638738
H       -0.51337197      -1.14266302      -0.16622503
H       -2.77693720       0.36475550      -1.03545241
13
Frame=14 idx=002186 GeodesicLength=0.6922367152001724 rxn_smarts="[C:1]([N:2]([C:3](=[O:4])[C:5]([O:6][H:13])([H:11])[H:12])[H:10])([H:7])([H:8])[H:9]>>[C:1]([N+:2]([C:3]([O-:4])=[C:5]([O:6][H:13])[H:11])([H:10])[H:12])([H:7])([H:8])[H:9]"
C        1.94518459      -0.12468986      -0.03627553
N        0.53222150      -0.08003200      -0.39524222
C       -0.40274996       0.59404202       0.54933358
O        0.00440578       1.21396290       1.50931268
C       -1.58670551      -0.22204794       0.40324270
O       -2.14389475      -0.33393445      -0.88948858
H        2.37328820       0.87752917      -0.04271748
H        2.03150853      -0.53427760       0.96795563
H        2.49552752      -0.75859201      -0.73212157
H        0.37461931       0.28148835      -1.32772616
H       -2.30906053      -0.11943259       1.20662160
H       -0.52719784      -1.15599238      -0.18451106
H       -2.78714685       0.36197639      -1.02838360
13
Frame=15 idx=002186 GeodesicLength=0.7416877699715297 rxn_smarts="[C:1]([N:2]([C:3](=[O:4])[C:5]([O:6][H:13])([H:11])[H:12])[H:10])([H:7])([H:8])[H:9]>>[C:1]([N+:2]([C:3]([O-:4])=[C:5]([O:6][H:13])[H:11])([H:10])[H:12])([H:7])([H:8])[H:9]"
C        1.94742019      -0.12357462      -0.03401573
N        0.53439265      -0.07598284      -0.39314695
C       -0.40063031       0.59726000       0.54580245
O        0.00279832       1.21132985       1.51268081
C       -1.58269378      -0.22291889       0.40032286
O       -2.14561142      -0.32977698      -0.88989357
H        2.38040707       0.87625730      -0.05406210
H        2.03062895      -0.52035084       0.97550020
H        2.49529649      -0.76901766      -0.72132301
H        0.37870151       0.28889116      -1.32465653
H       -2.30160451      -0.12209062       1.20688580
H       -0.54141600      -1.16925192      -0.20334151
H       -2.79768915       0.35922607      -1.02075272
13
Frame=16 idx=002186 GeodesicLength=0.7911541843599197 rxn_smarts="[C:1]([N:2]([C:3](=[O:4])[C:5]([O:6][H:13])([H:11])[H:12])[H:10])([H:7])([H:8])[H:9]>>[C:1]([N+:2]([C:3]([O-:4])=[C:5]([O:6][H:13])[H:11])([H:10])[H:12])([H:7])([H:8])[H:9]"
C        1.94969200      -0.12246316      -0.03159285
N        0.53665789      -0.07186857      -0.39104937
C       -0.39851544       0.60069429       0.54210100
O        0.00106313       1.20901631       1.51577118
C       -1.57844640      -0.22393759       0.39721486
O       -2.14741723      -0.32518274      -0.89034905
H        2.38766405       0.87471335      -0.06546259
H        2.02972607      -0.50608627       0.98314283
H        2.49500001      -0.77959309      -0.70998986
H        0.38294732       0.29609366      -1.32167927
H       -2.29371681      -0.12544483       1.20717412
H       -0.55606028      -1.18242810      -0.22276953
H       -2.80859433       0.35648674      -1.01251147
