11
Frame=0 idx=002403 GeodesicLength=0.0 rxn_smarts="[C:1](/[N:2]=[C:3](\[O:4][C:5](=[O:6])[H:11])[H:10])([H:7])([H:8])[H:9]>>[C:1](=[N:2][C:3]([O:4][C:5](=[O:6])[H:11])([H:8])[H:10])([H:7])[H:9]"
C       -1.52857341       0.31761947      -0.69161701
N       -0.80140234       0.99463278       0.23887118
C       -0.23580076      -0.10115070       0.77163630
O        1.11133308      -0.07782570       1.13937230
C        2.00150916      -0.03984482       0.12905179
O        1.74776748      -0.20036231      -1.02420602
H       -2.55952285       0.61398922      -0.90597436
H       -0.96816108      -0.90951274      -0.16471184
H       -0.98128112      -0.06763496      -1.54947946
H       -0.79113098      -0.65850741       1.51837777
H        3.00526281       0.12859716       0.53867932
11
Frame=1 idx=002403 GeodesicLength=0.07346272685323496 rxn_smarts="[C:1](/[N:2]=[C:3](\[O:4][C:5](=[O:6])[H:11])[H:10])([H:7])([H:8])[H:9]>>[C:1](=[N:2][C:3]([O:4][C:5](=[O:6])[H:11])([H:8])[H:10])([H:7])[H:9]"
C       -1.53946634       0.32947521      -0.69241869
N       -0.83369046       0.98213950       0.27059176
C       -0.23522548      -0.11314784       0.76860086
O        1.11064915      -0.03663347       1.13348509
C        2.00620585      -0.04062679       0.12882394
O        1.77514025      -0.31949674      -1.00650431
H       -2.56780537       0.63192653      -0.90898507
H       -0.97289306      -0.91069154      -0.18900595
H       -0.97981699      -0.02141594      -1.55741750
H       -0.76424695      -0.68847098       1.52103735
H        3.00114940       0.18694205       0.53179250
11
Frame=2 idx=002403 GeodesicLength=0.14446421304446996 rxn_smarts="[C:1](/[N:2]=[C:3](\[O:4][C:5](=[O:6])[H:11])[H:10])([H:7])([H:8])[H:9]>>[C:1](=[N:2][C:3]([O:4][C:5](=[O:6])[H:11])([H:8])[H:10])([H:7])[H:9]"
C       -1.54882656       0.34154088      -0.69376565
N       -0.86813767       0.96729871       0.30386727
C       -0.23525348      -0.12464360       0.76682686
O        1.10862888       0.00413843       1.12465149
C        2.00887524      -0.04240043       0.12666821
O        1.80237152      -0.43697714      -0.97871004
H       -2.57414984       0.64982382      -0.91456524
H       -0.97742766      -0.91134948      -0.21280866
H       -0.97400550       0.02652907      -1.56304846
H       -0.73591199      -0.71857328       1.52436718
H        2.99383706       0.24461302       0.51651705
11
Frame=3 idx=002403 GeodesicLength=0.21095635812881247 rxn_smarts="[C:1](/[N:2]=[C:3](\[O:4][C:5](=[O:6])[H:11])[H:10])([H:7])([H:8])[H:9]>>[C:1](=[N:2][C:3]([O:4][C:5](=[O:6])[H:11])([H:8])[H:10])([H:7])[H:9]"
C       -1.55755236       0.35230727      -0.69571231
N       -0.90311565       0.95022836       0.33540318
C       -0.23556117      -0.13496061       0.76587151
O        1.10542133       0.04517285       1.11302712
C        2.01095125      -0.04619654       0.12428648
O        1.82778083      -0.54113451      -0.94429013
H       -2.57944852       0.66675715      -0.92183427
H       -0.98109201      -0.91221455      -0.23558442
H       -0.96710386       0.07277258      -1.56708167
H       -0.70628689      -0.74603345       1.52902784
H        2.98600705       0.29330144       0.49688669
11
Frame=4 idx=002403 GeodesicLength=0.2758479270310106 rxn_smarts="[C:1](/[N:2]=[C:3](\[O:4][C:5](=[O:6])[H:11])[H:10])([H:7])([H:8])[H:9]>>[C:1](=[N:2][C:3]([O:4][C:5](=[O:6])[H:11])([H:8])[H:10])([H:7])[H:9]"
C       -1.56547806       0.36305742      -0.69800938
N       -0.93904536       0.93041655       0.36672443
C       -0.23628263      -0.14524212       0.76550141
O        1.10087668       0.08525860       1.09841712
C        2.01191539      -0.05083900       0.12114728
O        1.85362061      -0.64155467      -0.90182611
H       -2.58354669       0.68436576      -0.92990097
H       -0.98431974      -0.91293380      -0.25859864
H       -0.95836688       0.11986527      -1.56927742
H       -0.67537896      -0.77266071       1.53426491
H        2.97600564       0.34026671       0.47155736
11
Frame=5 idx=002403 GeodesicLength=0.3376426059685392 rxn_smarts="[C:1](/[N:2]=[C:3](\[O:4][C:5](=[O:6])[H:11])[H:10])([H:7])([H:8])[H:9]>>[C:1](=[N:2][C:3]([O:4][C:5](=[O:6])[H:11])([H:8])[H:10])([H:7])[H:9]"
C       -1.57416789       0.37221292      -0.70074999
N       -0.97467325       0.90879470       0.39460872
C       -0.23691063      -0.15418602       0.76482021
O        1.09531151       0.12604947       1.08033008
C        2.01337149      -0.05516686       0.11819669
O        1.87858985      -0.72762506      -0.85663171
H       -2.58878453       0.69996319      -0.93701814
H       -0.98639134      -0.91394105      -0.28149966
H       -0.95173961       0.16473114      -1.57090979
H       -0.64303200      -0.79509155       1.54058063
H        2.96842641       0.37425912       0.44827296
11
Frame=6 idx=002403 GeodesicLength=0.39840028641571995 rxn_smarts="[C:1](/[N:2]=[C:3](\[O:4][C:5](=[O:6])[H:11])[H:10])([H:7])([H:8])[H:9]>>[C:1](=[N:2][C:3]([O:4][C:5](=[O:6])[H:11])([H:8])[H:10])([H:7])[H:9]"
C       -1.58266054       0.38120434      -0.70359156
N       -1.00969010       0.88457931       0.42104256
C       -0.23771354      -0.16370894       0.76417736
O        1.08848625       0.16493574       1.05952450
C        2.01496101      -0.06224736       0.11650103
O        1.90402391      -0.80967720      -0.80540071
H       -2.59328878       0.71721957      -0.94367941
H       -0.98790611      -0.91497496      -0.30537140
H       -0.94539941       0.20994778      -1.57138839
H       -0.60987717      -0.81603896       1.54741536
H        2.95906449       0.40876067       0.42077067
11
Frame=7 idx=002403 GeodesicLength=0.4585434615492002 rxn_smarts="[C:1](/[N:2]=[C:3](\[O:4][C:5](=[O:6])[H:11])[H:10])([H:7])([H:8])[H:9]>>[C:1](=[N:2][C:3]([O:4][C:5](=[O:6])[H:11])([H:8])[H:10])([H:7])[H:9]"
C       -1.59154875       0.38985701      -0.70650203
N       -1.04433167       0.85792346       0.44565511
C       -0.23857125      -0.17352029       0.76313313
O        1.08043158       0.20259832       1.03534494
C        2.01655024      -0.06958233       0.11503340
O        1.93064486      -0.88729776      -0.74814565
H       -2.59809720       0.73512114      -0.94899330
H       -0.98849458      -0.91587074      -0.33064984
H       -0.94024585       0.25569429      -1.57090221
H       -0.57556734      -0.83496120       1.55460750
H        2.94922996       0.44003810       0.39141895
11
Frame=8 idx=002403 GeodesicLength=0.5172484017382217 rxn_smarts="[C:1](/[N:2]=[C:3](\[O:4][C:5](=[O:6])[H:11])[H:10])([H:7])([H:8])[H:9]>>[C:1](=[N:2][C:3]([O:4][C:5](=[O:6])[H:11])([H:8])[H:10])([H:7])[H:9]"
C       -1.60154381       0.39748324      -0.70958272
N       -1.07727614       0.82985121       0.46679438
C       -0.23915401      -0.18309955       0.76122042
O        1.07149594       0.23909363       1.00780818
C        2.01962170      -0.07849520       0.11580988
O        1.95707602      -0.95552491      -0.68930814
H       -2.60444250       0.75223535      -0.95197639
H       -0.98805152      -0.91674000      -0.35711950
H       -0.93840204       0.30032108      -1.57045306
H       -0.54055923      -0.84987994       1.56254161
H        2.94123561       0.46475508       0.36426534
11
Frame=9 idx=002403 GeodesicLength=0.5762715813866504 rxn_smarts="[C:1](/[N:2]=[C:3](\[O:4][C:5](=[O:6])[H:11])[H:10])([H:7])([H:8])[H:9]>>[C:1](=[N:2][C:3]([O:4][C:5](=[O:6])[H:11])([H:8])[H:10])([H:7])[H:9]"
C       -1.61199701       0.40519727      -0.71262111
N       -1.10919492       0.79948454       0.48623170
C       -0.23979498      -0.19371632       0.75865046
O        1.06137544       0.27300967       0.97710042
C        2.02301779      -0.08849162       0.11775287
O        1.98573344      -1.02197273      -0.62308445
H       -2.61121409       0.77064154      -0.95286765
H       -0.98656072      -0.91706973      -0.38601016
H       -0.93801201       0.34640511      -1.56913016
H       -0.50507194      -0.86312100       1.57055241
H        2.93171901       0.48963326       0.33342567
11
Frame=10 idx=002403 GeodesicLength=0.63341745744114 rxn_smarts="[C:1](/[N:2]=[C:3](\[O:4][C:5](=[O:6])[H:11])[H:10])([H:7])([H:8])[H:9]>>[C:1](=[N:2][C:3]([O:4][C:5](=[O:6])[H:11])([H:8])[H:10])([H:7])[H:9]"
C       -1.62399440       0.41159492      -0.71590276
N       -1.13840026       0.76903637       0.50138359
C       -0.23981761      -0.20361513       0.75486338
O        1.05093242       0.30554285       0.94261105
C        2.02868435      -0.09950730       0.12285310
O        2.01250807      -1.07694366      -0.55985353
H       -2.62074703       0.78622961      -0.95063965
H       -0.98408553      -0.91711472      -0.41585161
H       -0.94240088       0.39047400      -1.56869233
H       -0.46915609      -0.87086377       1.57952797
H        2.92647698       0.50516685       0.30970080
11
Frame=11 idx=002403 GeodesicLength=0.6912815821200007 rxn_smarts="[C:1](/[N:2]=[C:3](\[O:4][C:5](=[O:6])[H:11])[H:10])([H:7])([H:8])[H:9]>>[C:1](=[N:2][C:3]([O:4][C:5](=[O:6])[H:11])([H:8])[H:10])([H:7])[H:9]"
C       -1.63644191       0.41819379      -0.71904252
N       -1.16630738       0.73621099       0.51505748
C       -0.23985970      -0.21524504       0.75024340
O        1.03941415       0.33421428       0.90499758
C        2.03423092      -0.11093200       0.12876063
O        2.04234531      -1.13164288      -0.48753388
H       -2.63034337       0.80391975      -0.94619864
H       -0.98054510      -0.91624305      -0.44860237
H       -0.94830417       0.43651024      -1.56713827
H       -0.43297700      -0.87724756       1.58842784
H        2.91878826       0.52226149       0.28102874
11
Frame=12 idx=002403 GeodesicLength=0.7489605065281547 rxn_smarts="[C:1](/[N:2]=[C:3](\[O:4][C:5](=[O:6])[H:11])[H:10])([H:7])([H:8])[H:9]>>[C:1](=[N:2][C:3]([O:4][C:5](=[O:6])[H:11])([H:8])[H:10])([H:7])[H:9]"
C       -1.65022494       0.42425523      -0.72221803
N       -1.19206085       0.70276570       0.52584818
C       -0.23950952      -0.22726963       0.74434983
O        1.02757741       0.36012459       0.86351312
C        2.04112338      -0.12262649       0.13644128
O        2.07258879      -1.18055717      -0.41284758
H       -2.64207256       0.82042939      -0.93862830
H       -0.97613799      -0.91446781      -0.48350092
H       -0.95790281       0.48256135      -1.56569603
H       -0.39658754      -0.87989197       1.59751890
H        2.91320663       0.53467682       0.25521954
11
Frame=13 idx=002403 GeodesicLength=0.8062643474945873 rxn_smarts="[C:1](/[N:2]=[C:3](\[O:4][C:5](=[O:6])[H:11])[H:10])([H:7])([H:8])[H:9]>>[C:1](=[N:2][C:3]([O:4][C:5](=[O:6])[H:11])([H:8])[H:10])([H:7])[H:9]"
C       -1.66513059       0.42990123      -0.72544955
N       -1.21530526       0.66917329       0.53374207
C       -0.23865528      -0.23963318       0.73724602
O        1.01572117       0.38276247       0.81822138
C        2.04939682      -0.13471335       0.14635702
O        2.10239037      -1.22356584      -0.33709963
H       -2.65595780       0.83505379      -0.92799140
H       -0.97101133      -0.91152759      -0.52030927
H       -0.97115759       0.52847175      -1.56442277
H       -0.36013514      -0.87856464       1.60673706
H        2.90984464       0.54264209       0.23296907
11
Frame=14 idx=002403 GeodesicLength=0.8645923434911938 rxn_smarts="[C:1](/[N:2]=[C:3](\[O:4][C:5](=[O:6])[H:11])[H:10])([H:7])([H:8])[H:9]>>[C:1](=[N:2][C:3]([O:4][C:5](=[O:6])[H:11])([H:8])[H:10])([H:7])[H:9]"
C       -1.68055073       0.43588049      -0.72852878
N       -1.23686763       0.63385237       0.53999386
C       -0.23780185      -0.25410368       0.72902022
O        1.00330160       0.40038197       0.76981304
C        2.05771417      -0.14701971       0.15723116
O        2.13503968      -1.26484485      -0.25129017
H       -2.67024101       0.85078814      -0.91468826
H       -0.96487031      -0.90690519      -0.56047578
H       -0.98624291       0.57676050      -1.56183530
H       -0.32400950      -0.87589187       1.61536669
H        2.90452850       0.55110183       0.20539334
11
Frame=15 idx=002403 GeodesicLength=0.9215728053408084 rxn_smarts="[C:1](/[N:2]=[C:3](\[O:4][C:5](=[O:6])[H:11])[H:10])([H:7])([H:8])[H:9]>>[C:1](=[N:2][C:3]([O:4][C:5](=[O:6])[H:11])([H:8])[H:10])([H:7])[H:9]"
C       -1.69692605       0.44120025      -0.73169951
N       -1.25505544       0.60004255       0.54291836
C       -0.23613048      -0.26820652       0.71977343
O        0.99173449       0.41427473       0.71755386
C        2.06751256      -0.15909228       0.17018360
O        2.16465889      -1.29784379      -0.17096945
H       -2.68686378       0.86290883      -0.89853778
H       -0.95914957      -0.90131639      -0.60083105
H       -1.00533397       0.62274533      -1.55997606
H       -0.28812102      -0.86786730       1.62429137
H        2.90367436       0.55315460       0.18729323
11
Frame=16 idx=002403 GeodesicLength=0.9792580278589312 rxn_smarts="[C:1](/[N:2]=[C:3](\[O:4][C:5](=[O:6])[H:11])[H:10])([H:7])([H:8])[H:9]>>[C:1](=[N:2][C:3]([O:4][C:5](=[O:6])[H:11])([H:8])[H:10])([H:7])[H:9]"
C       -1.71293625       0.44707228      -0.73473579
N       -1.27146450       0.56439658       0.54448571
C       -0.23468415      -0.28530489       0.70981317
O        0.97972818       0.42155644       0.66383163
C        2.07644513      -0.17081544       0.18329671
O        2.19704682      -1.32795264      -0.07950100
H       -2.70229640       0.87709234      -0.88048971
H       -0.95298464      -0.89399411      -0.64403542
H       -1.02482984       0.67086936      -1.55609595
H       -0.25327112      -0.85947567       1.63247918
H        2.89924676       0.55655575       0.16095148
