13
Frame=0 idx=008511 GeodesicLength=0.0 rxn_smarts="[O:1]=[C:2]1[C:3]([H:8])([H:9])[O:4][C@@:5]2([H:10])[C:6]([H:11])([H:12])[C@@:7]12[H:13]>>[O:1]1[C:2](=[C:3]([H:8])[H:9])[C@@:7]1([C:6]([C:5](=[O:4])[H:10])([H:11])[H:12])[H:13]"
O        1.16364002       2.52791503       0.08206336
C        0.94103370       1.33062906       0.30992767
C        1.86333391       0.38018601       0.80094031
O       -0.92392906      -2.17742791      -1.65101419
C       -1.31810552      -1.15516932      -1.17849340
C       -0.84480898      -0.64091280       0.18334531
C       -0.35196010       0.74339492       0.07669814
H        1.62106584      -0.66205620       0.93836337
H        2.87678574       0.69376216       1.02520949
H       -2.06047399      -0.52032890      -1.70023951
H       -0.13965509      -1.35785770       0.59216561
H       -1.74601423      -0.62894431       0.81449235
H       -1.08091228       1.46680997      -0.29345849
13
Frame=1 idx=008511 GeodesicLength=0.13898052674616299 rxn_smarts="[O:1]=[C:2]1[C:3]([H:8])([H:9])[O:4][C@@:5]2([H:10])[C:6]([H:11])([H:12])[C@@:7]12[H:13]>>[O:1]1[C:2](=[C:3]([H:8])[H:9])[C@@:7]1([C:6]([C:5](=[O:4])[H:10])([H:11])[H:12])[H:13]"
O        1.12673540       2.48433170       0.01714992
C        0.91702860       1.30424355       0.33615476
C        1.87281330       0.32936428       0.69660442
O       -0.72352528      -2.10086431      -1.63683256
C       -1.23239657      -1.12140261      -1.16680860
C       -0.90238517      -0.62904491       0.24088354
C       -0.39721499       0.75319912       0.13738725
H        1.61377138      -0.68685741       0.95211926
H        2.89819028       0.64040406       0.86607491
H       -1.94839542      -0.50829601      -1.74667361
H       -0.23284627      -1.34145070       0.71306451
H       -1.85811430      -0.61190876       0.78338626
H       -1.13366096       1.48828200      -0.19251006
13
Frame=2 idx=008511 GeodesicLength=0.2818835468792452 rxn_smarts="[O:1]=[C:2]1[C:3]([H:8])([H:9])[O:4][C@@:5]2([H:10])[C:6]([H:11])([H:12])[C@@:7]12[H:13]>>[O:1]1[C:2](=[C:3]([H:8])[H:9])[C@@:7]1([C:6]([C:5](=[O:4])[H:10])([H:11])[H:12])[H:13]"
O        1.08538390       2.43707951      -0.04187012
C        0.89885124       1.27581092       0.35512672
C        1.86848527       0.28199889       0.61081915
O       -0.54947572      -2.02302231      -1.60972997
C       -1.15668114      -1.08694434      -1.15186680
C       -0.95067567      -0.61965623       0.28407029
C       -0.43310376       0.75973207       0.18457295
H        1.61181308      -0.70018960       0.97834003
H        2.90356658       0.58842424       0.71773090
H       -1.84587184      -0.49213276      -1.77886147
H       -0.31174048      -1.32657220       0.80357248
H       -1.94460655      -0.60004451       0.74949599
H       -1.17594491       1.50551630      -0.10140016
13
Frame=3 idx=008511 GeodesicLength=0.42580931901948965 rxn_smarts="[O:1]=[C:2]1[C:3]([H:8])([H:9])[O:4][C@@:5]2([H:10])[C:6]([H:11])([H:12])[C@@:7]12[H:13]>>[O:1]1[C:2](=[C:3]([H:8])[H:9])[C@@:7]1([C:6]([C:5](=[O:4])[H:10])([H:11])[H:12])[H:13]"
O        1.04319541       2.39029805      -0.09682729
C        0.88571012       1.24728939       0.36572133
C        1.85865737       0.23877132       0.54331912
O       -0.39924573      -1.94664412      -1.57628032
C       -1.09132462      -1.05358077      -1.13586506
C       -0.99241636      -0.61290497       0.31645522
C       -0.46214691       0.76403112       0.22081100
H        1.61772477      -0.70587182       1.00910586
H        2.90009612       0.54038434       0.58570611
H       -1.75567756      -0.47439389      -1.80140569
H       -0.38027003      -1.31548381       0.87270183
H       -2.01375562      -0.59186273       0.71498166
H       -1.21054696       1.51996787      -0.01842376
13
Frame=4 idx=008511 GeodesicLength=0.5704510588680547 rxn_smarts="[O:1]=[C:2]1[C:3]([H:8])([H:9])[O:4][C@@:5]2([H:10])[C:6]([H:11])([H:12])[C@@:7]12[H:13]>>[O:1]1[C:2](=[C:3]([H:8])[H:9])[C@@:7]1([C:6]([C:5](=[O:4])[H:10])([H:11])[H:12])[H:13]"
O        1.00023769       2.34613786      -0.14282280
C        0.87538558       1.21925060       0.37111700
C        1.84682729       0.19933593       0.48769745
O       -0.27064925      -1.87710778      -1.53620481
C       -1.03292872      -1.02173945      -1.11932497
C       -1.02950847      -0.60731292       0.34088860
C       -0.48613937       0.76687313       0.24829789
H        1.63090198      -0.70698248       1.03630621
H        2.89043603       0.49659377       0.46716689
H       -1.67253122      -0.45663518      -1.81872710
H       -0.44239873      -1.30598131       0.92807050
H       -2.07112231      -0.58451097       0.67933380
H       -1.23851048       1.53207881       0.05820135
13
Frame=5 idx=008511 GeodesicLength=0.7152424679896193 rxn_smarts="[O:1]=[C:2]1[C:3]([H:8])([H:9])[O:4][C@@:5]2([H:10])[C:6]([H:11])([H:12])[C@@:7]12[H:13]>>[O:1]1[C:2](=[C:3]([H:8])[H:9])[C@@:7]1([C:6]([C:5](=[O:4])[H:10])([H:11])[H:12])[H:13]"
O        0.95750365       2.30553533      -0.17975644
C        0.86681733       1.19199432       0.37336028
C        1.83490420       0.16335033       0.44013832
O       -0.16025424      -1.81567200      -1.49143503
C       -0.98029841      -0.99166619      -1.10243820
C       -1.06329370      -0.60233852       0.35924103
C       -0.50648647       0.76881314       0.26873312
H        1.65043065      -0.70537497       1.05820330
H        2.87684678       0.45733846       0.36052231
H       -1.59489909      -0.43973327      -1.83257962
H       -0.50024594      -1.29729289       0.97369721
H       -2.12007467      -0.57718457       0.64292104
H       -1.26095010       1.54223083       0.12939268
13
Frame=6 idx=008511 GeodesicLength=0.8598341259875113 rxn_smarts="[O:1]=[C:2]1[C:3]([H:8])([H:9])[O:4][C@@:5]2([H:10])[C:6]([H:11])([H:12])[C@@:7]12[H:13]>>[O:1]1[C:2](=[C:3]([H:8])[H:9])[C@@:7]1([C:6]([C:5](=[O:4])[H:10])([H:11])[H:12])[H:13]"
O        0.91577429       2.26857496      -0.20829951
C        0.85938232       1.16552087       0.37379739
C        1.82363270       0.13041268       0.39835931
O       -0.06488025      -1.76215603      -1.44352160
C       -0.93259352      -0.96342380      -1.08537702
C       -1.09466327      -0.59767431       0.37270442
C       -0.52416743       0.77016039       0.28344942
H        1.67528667      -0.70154389       1.07527050
H        2.86069637       0.42230531       0.26345865
H       -1.52184446      -0.42425772      -1.84393928
H       -0.55518219      -1.28889521       1.01194965
H       -2.16272265      -0.56957569       0.60591741
H       -1.27871857       1.55055245       0.19623066
13
Frame=7 idx=008511 GeodesicLength=1.0040649512089523 rxn_smarts="[O:1]=[C:2]1[C:3]([H:8])([H:9])[O:4][C@@:5]2([H:10])[C:6]([H:11])([H:12])[C@@:7]12[H:13]>>[O:1]1[C:2](=[C:3]([H:8])[H:9])[C@@:7]1([C:6]([C:5](=[O:4])[H:10])([H:11])[H:12])[H:13]"
O        0.87554628       2.23509448      -0.22939187
C        0.85268085       1.13973021       0.37317262
C        1.81331329       0.10014376       0.36092983
O        0.01805888      -1.71597129      -1.39355427
C       -0.88914290      -0.93696684      -1.06821682
C       -1.12426293      -0.59314616       0.38219253
C       -0.53991679       0.77113590       0.29356359
H        1.70475841      -0.69575458       1.08807825
H        2.84279143       0.39114286       0.17415466
H       -1.45257038      -0.41042393      -1.85339031
H       -0.60819114      -1.28049530       1.04446619
H       -2.20056588      -0.56157320       0.56844931
H       -1.29249912       1.55708409       0.25954630
13
Frame=8 idx=008511 GeodesicLength=1.1478388461607403 rxn_smarts="[O:1]=[C:2]1[C:3]([H:8])([H:9])[O:4][C@@:5]2([H:10])[C:6]([H:11])([H:12])[C@@:7]12[H:13]>>[O:1]1[C:2](=[C:3]([H:8])[H:9])[C@@:7]1([C:6]([C:5](=[O:4])[H:10])([H:11])[H:12])[H:13]"
O        0.83712348       2.20488648      -0.24378358
C        0.84643048       1.11450410       0.37198547
C        1.80403461       0.07222979       0.32689741
O        0.09060693      -1.67652352      -1.34212352
C       -0.84934081      -0.91223928      -1.05098791
C       -1.15257908      -0.58862406       0.38835552
C       -0.55427180       0.77190614       0.29989926
H        1.73830442      -0.68809340       1.09706478
H        2.82356139       0.36344842       0.09099374
H       -1.38631840      -0.39836255      -1.86132386
H       -0.66003818      -1.27184653       1.07240710
H       -2.23469314      -0.55310044       0.53049142
H       -1.30281989       1.56181487       0.32012416
13
Frame=9 idx=008511 GeodesicLength=1.2911229939317521 rxn_smarts="[O:1]=[C:2]1[C:3]([H:8])([H:9])[O:4][C@@:5]2([H:10])[C:6]([H:11])([H:12])[C@@:7]12[H:13]>>[O:1]1[C:2](=[C:3]([H:8])[H:9])[C@@:7]1([C:6]([C:5](=[O:4])[H:10])([H:11])[H:12])[H:13]"
O        0.80071541       2.17768517      -0.25204116
C        0.84043793       1.08969290       0.37059273
C        1.79579989       0.04641221       0.29555880
O        0.15435844      -1.64313781      -1.28954024
C       -0.81272190      -0.88916904      -1.03364852
C       -1.17996979      -0.58399454       0.39169411
C       -0.56761398       0.77259402       0.30309722
H        1.77556693      -0.67866967       1.10237369
H        2.80322779       0.33895060       0.01286483
H       -1.32253940      -0.38818552      -1.86791974
H       -0.71129961      -1.26271840       1.09661363
H       -2.26588038      -0.54410859       0.49199406
H       -1.31008132       1.56464867       0.37836060
13
Frame=10 idx=008511 GeodesicLength=1.4338667298779053 rxn_smarts="[O:1]=[C:2]1[C:3]([H:8])([H:9])[O:4][C@@:5]2([H:10])[C:6]([H:11])([H:12])[C@@:7]12[H:13]>>[O:1]1[C:2](=[C:3]([H:8])[H:9])[C@@:7]1([C:6]([C:5](=[O:4])[H:10])([H:11])[H:12])[H:13]"
O        0.76644444       2.15332526      -0.25447747
C        0.83454643       1.06516287       0.36930306
C        1.78854581       0.02242220       0.26641746
O        0.21058207      -1.61527788      -1.23591400
C       -0.77884291      -0.86768550      -1.01617533
C       -1.20670508      -0.57921279       0.39258286
C       -0.58024412       0.77329454       0.30372892
H        1.81627879      -0.66724146       1.10439657
H        2.78175630       0.31714401      -0.06162313
H       -1.26055483      -0.37983259      -1.87333116
H       -0.76245295      -1.25301542       1.11769038
H       -2.29470418      -0.53458881       0.45288016
H       -1.31464978       1.56550558       0.43452168
13
Frame=11 idx=008511 GeodesicLength=1.5760865525401926 rxn_smarts="[O:1]=[C:2]1[C:3]([H:8])([H:9])[O:4][C@@:5]2([H:10])[C:6]([H:11])([H:12])[C@@:7]12[H:13]>>[O:1]1[C:2](=[C:3]([H:8])[H:9])[C@@:7]1([C:6]([C:5](=[O:4])[H:10])([H:11])[H:12])[H:13]"
O        0.73441113       2.13155950      -0.25132673
C        0.82865323       1.04077218       0.36839398
C        1.78220477       0.00006128       0.23909774
O        0.26030171      -1.59235322      -1.18120942
C       -0.74735293      -0.84772067      -0.99848618
C       -1.23298529      -0.57422091       0.39131960
C       -0.59235867       0.77407659       0.30224335
H        1.86028283      -0.65370890       1.10315000
H        2.75901078       0.29768298      -0.13340693
H       -1.19985447      -0.37329389      -1.87756786
H       -0.81388703      -1.24260802       1.13609395
H       -2.32157367      -0.52452402       0.41305771
H       -1.31685240       1.56427709       0.48864081
13
Frame=12 idx=008511 GeodesicLength=1.7178282518416843 rxn_smarts="[O:1]=[C:2]1[C:3]([H:8])([H:9])[O:4][C@@:5]2([H:10])[C:6]([H:11])([H:12])[C@@:7]12[H:13]>>[O:1]1[C:2](=[C:3]([H:8])[H:9])[C@@:7]1([C:6]([C:5](=[O:4])[H:10])([H:11])[H:12])[H:13]"
O        0.70467420       2.11208725      -0.24286493
C        0.82269373       1.01640389       0.36810579
C        1.77671411      -0.02082861       0.21331993
O        0.30436668      -1.57379015      -1.12531334
C       -0.71793475      -0.82920260      -0.98048921
C       -1.25895893      -0.56897063       0.38813767
C       -0.60408415       0.77499911       0.29901901
H        1.90743206      -0.63800267       1.09851539
H        2.73479976       0.28027009      -0.20317540
H       -1.14000420      -0.36854591      -1.88056909
H       -0.86591779      -1.23139631       1.15214850
H       -2.34678122      -0.51390253       0.37242945
H       -1.31699953       1.56087908       0.54073623
13
Frame=13 idx=008511 GeodesicLength=1.859176117840544 rxn_smarts="[O:1]=[C:2]1[C:3]([H:8])([H:9])[O:4][C@@:5]2([H:10])[C:6]([H:11])([H:12])[C@@:7]12[H:13]>>[O:1]1[C:2](=[C:3]([H:8])[H:9])[C@@:7]1([C:6]([C:5](=[O:4])[H:10])([H:11])[H:12])[H:13]"
O        0.67726853       2.09456235      -0.22930941
C        0.81664054       0.99194149       0.36868735
C        1.77201131      -0.04038592       0.18885695
O        0.34346761      -1.55903162      -1.06804014
C       -0.69031058      -0.81205113      -0.96206952
C       -1.28472920      -0.56342264       0.38322799
C       -0.61547973       0.77609734       0.29441512
H        1.95762043      -0.62004778       1.09027003
H        2.70886102       0.26463826      -0.27148452
H       -1.08060399      -0.36552765      -1.88220740
H       -0.91880673      -1.21930252       1.16608005
H       -2.37052060      -0.50271973       0.33089249
H       -1.31541861       1.55524955       0.59068100
13
Frame=14 idx=008511 GeodesicLength=2.000229873690634 rxn_smarts="[O:1]=[C:2]1[C:3]([H:8])([H:9])[O:4][C@@:5]2([H:10])[C:6]([H:11])([H:12])[C@@:7]12[H:13]>>[O:1]1[C:2](=[C:3]([H:8])[H:9])[C@@:7]1([C:6]([C:5](=[O:4])[H:10])([H:11])[H:12])[H:13]"
O        0.65218594       2.07862005      -0.21084725
C        0.81049523       0.96728612       0.37038542
C        1.76803213      -0.05873143       0.16555084
O        0.37818920      -1.54755600      -1.00915686
C       -0.66421381      -0.79618648      -0.94311023
C       -1.31035397      -0.55756526       0.37673525
C       -0.62655079       0.77737462       0.28879481
H        2.01072110      -0.59964184       1.07820986
H        2.68081361       0.25041450      -0.33892687
H       -1.02120322      -0.36410730      -1.88232075
H       -0.97278252      -1.20631158       1.17801709
H       -2.39289763      -0.49097097       0.28833238
H       -1.31243525       1.54737555       0.63833630
13
Frame=15 idx=008511 GeodesicLength=2.1411224723216753 rxn_smarts="[O:1]=[C:2]1[C:3]([H:8])([H:9])[O:4][C@@:5]2([H:10])[C:6]([H:11])([H:12])[C@@:7]12[H:13]>>[O:1]1[C:2](=[C:3]([H:8])[H:9])[C@@:7]1([C:6]([C:5](=[O:4])[H:10])([H:11])[H:12])[H:13]"
O        0.62940238       2.06385109      -0.18766944
C        0.80429605       0.94234642       0.37346451
C        1.76472032      -0.07595690       0.14324390
O        0.40902952      -1.53885170      -0.94838174
C       -0.63940280      -0.78153734      -0.92346394
C       -1.33585879      -0.55138444       0.36878352
C       -0.63724412       0.77881481       0.28250840
H        2.06658538      -0.57668396       1.06192968
H        2.65025427       0.23731353      -0.40587947
H       -0.96138918      -0.36415762      -1.88067971
H       -1.02803704      -1.19241007       1.18803135
H       -2.41394715      -0.47864520       0.24462729
H       -1.30840885       1.53730138       0.68348565
13
Frame=16 idx=008511 GeodesicLength=2.282009683006335 rxn_smarts="[O:1]=[C:2]1[C:3]([H:8])([H:9])[O:4][C@@:5]2([H:10])[C:6]([H:11])([H:12])[C@@:7]12[H:13]>>[O:1]1[C:2](=[C:3]([H:8])[H:9])[C@@:7]1([C:6]([C:5](=[O:4])[H:10])([H:11])[H:12])[H:13]"
O        0.60886413       2.04982539      -0.16000433
C        0.79811147       0.91704900       0.37818477
C        1.76201330      -0.09213817       0.12181122
O        0.43643835      -1.53240348      -0.88542790
C       -0.61564635      -0.76804085      -0.90298017
C       -1.36122574      -0.54487807       0.35946452
C       -0.64745966       0.78037889       0.27589500
H        2.12498656      -0.55105334       1.04097621
H        2.61671467       0.22500922      -0.47262724
H       -0.90076114      -0.36553477      -1.87701389
H       -1.08471359      -1.17761641       1.19611807
H       -2.43362709      -0.46572898       0.19965352
H       -1.30369489       1.52513159       0.72595022
