14
Frame=0 idx=004322 GeodesicLength=0.0 rxn_smarts="[C:1]([C@@:2]1([C:3]([O:4][H:12])([H:10])[H:11])[C:5]([H:13])([H:14])[O:6]1)([H:7])([H:8])[H:9]>>[C:1]([C:2][C:5]([O:6][C:3]([O:4][H:12])([H:10])[H:11])([H:13])[H:14])([H:7])([H:8])[H:9]"
C       -1.73004571      -0.51574167       0.23993365
C       -0.50428022      -0.16898997      -0.53985454
C        1.42616862      -0.59720147      -0.02273467
O        2.51087423      -0.14446776       0.68320021
C       -0.27621656       1.24264598      -0.79779986
O        0.41192367       0.85399331       0.38309705
H       -1.55918547      -1.37084487       0.89906026
H       -2.50193526      -0.81610090      -0.47530752
H       -2.11896447       0.31493726       0.84358695
H        1.69677868      -0.63382503      -1.06740858
H        1.02545812      -1.51562577       0.39256411
H        2.32248468      -0.16868596       1.62480770
H       -1.06874052       1.94736597      -0.54886162
H        0.36568021       1.57254088      -1.61428310
14
Frame=1 idx=004322 GeodesicLength=0.044766752995631987 rxn_smarts="[C:1]([C@@:2]1([C:3]([O:4][H:12])([H:10])[H:11])[C:5]([H:13])([H:14])[O:6]1)([H:7])([H:8])[H:9]>>[C:1]([C:2][C:5]([O:6][C:3]([O:4][H:12])([H:10])[H:11])([H:13])[H:14])([H:7])([H:8])[H:9]"
C       -1.74625297      -0.51928080       0.22601208
C       -0.50776429      -0.16948958      -0.52994585
C        1.41908297      -0.60129013      -0.01599252
O        2.52931257      -0.12457311       0.63613015
C       -0.26705629       1.24334939      -0.77452869
O        0.40245741       0.84144499       0.41352455
H       -1.59128401      -1.37898993       0.88279915
H       -2.50268335      -0.81328264      -0.50860302
H       -2.14539474       0.30956281       0.82501831
H        1.66871111      -0.68422228      -1.06419669
H        1.03708990      -1.51073038       0.43691307
H        2.37198894      -0.11632287       1.58371668
H       -1.05984907       1.95062096      -0.53348464
H        0.39164180       1.57320357      -1.57736259
14
Frame=2 idx=004322 GeodesicLength=0.08899569183584724 rxn_smarts="[C:1]([C@@:2]1([C:3]([O:4][H:12])([H:10])[H:11])[C:5]([H:13])([H:14])[O:6]1)([H:7])([H:8])[H:9]>>[C:1]([C:2][C:5]([O:6][C:3]([O:4][H:12])([H:10])[H:11])([H:13])[H:14])([H:7])([H:8])[H:9]"
C       -1.76134020      -0.52259904       0.21225151
C       -0.51087672      -0.16986087      -0.52015435
C        1.41198234      -0.60563426      -0.00900956
O        2.54462220      -0.10564689       0.58879428
C       -0.25777815       1.24399254      -0.75108462
O        0.39334197       0.82882610       0.44347886
H       -1.62185219      -1.38681168       0.86628021
H       -2.50211541      -0.81026891      -0.54101355
H       -2.17045996       0.30450061       0.80645857
H        1.64099365      -0.73429019      -1.05824129
H        1.04999421      -1.50518531       0.48032783
H        2.41717948      -0.06426341       1.53999055
H       -1.05062770       1.95386645      -0.51757331
H        0.41693649       1.57337486      -1.54050513
14
Frame=3 idx=004322 GeodesicLength=0.13272941244693018 rxn_smarts="[C:1]([C@@:2]1([C:3]([O:4][H:12])([H:10])[H:11])[C:5]([H:13])([H:14])[O:6]1)([H:7])([H:8])[H:9]>>[C:1]([C:2][C:5]([O:6][C:3]([O:4][H:12])([H:10])[H:11])([H:13])[H:14])([H:7])([H:8])[H:9]"
C       -1.77525364      -0.52568072       0.19872643
C       -0.51363951      -0.17007754      -0.51053863
C        1.40483673      -0.61019295      -0.00181163
O        2.55687873      -0.08790200       0.54159214
C       -0.24844226       1.24458178      -0.72763373
O        0.38467067       0.81617574       0.47282631
H       -1.65077747      -1.39428730       0.84964786
H       -2.50030990      -0.80700141      -0.57243389
H       -2.19399141       0.29972319       0.78803062
H        1.61380082      -0.78353103      -1.04973852
H        1.06409829      -1.49911173       0.52254998
H        2.45785956      -0.01283098       1.49409815
H       -1.04111485       1.95705895      -0.50129068
H        0.44138423       1.57307600      -1.50402441
14
Frame=4 idx=004322 GeodesicLength=0.17613095576867238 rxn_smarts="[C:1]([C@@:2]1([C:3]([O:4][H:12])([H:10])[H:11])[C:5]([H:13])([H:14])[O:6]1)([H:7])([H:8])[H:9]>>[C:1]([C:2][C:5]([O:6][C:3]([O:4][H:12])([H:10])[H:11])([H:13])[H:14])([H:7])([H:8])[H:9]"
C       -1.78809537      -0.52853876       0.18548862
C       -0.51604755      -0.17016964      -0.50112232
C        1.39770851      -0.61496359       0.00557232
O        2.56630916      -0.07140655       0.49475652
C       -0.23905200       1.24514571      -0.70425344
O        0.37645584       0.80361563       0.50150537
H       -1.67819201      -1.40143900       0.83298382
H       -2.49742520      -0.80355450      -0.60280204
H       -2.21610470       0.29527894       0.76983555
H        1.58735240      -0.83173892      -1.03890831
H        1.07938660      -1.49269109       0.56336490
H        2.49404634       0.03785392       1.44637084
H       -1.03137819       1.96025100      -0.48471455
H        0.46503616       1.57235684      -1.46807728
14
Frame=5 idx=004322 GeodesicLength=0.21939987709859887 rxn_smarts="[C:1]([C@@:2]1([C:3]([O:4][H:12])([H:10])[H:11])[C:5]([H:13])([H:14])[O:6]1)([H:7])([H:8])[H:9]>>[C:1]([C:2][C:5]([O:6][C:3]([O:4][H:12])([H:10])[H:11])([H:13])[H:14])([H:7])([H:8])[H:9]"
C       -1.79992307      -0.53116774       0.17246381
C       -0.51809278      -0.17013387      -0.49187240
C        1.39058764      -0.61995036       0.01322036
O        2.57309560      -0.05618274       0.44824293
C       -0.22961829       1.24566835      -0.68090260
O        0.36869065       0.79110938       0.52958847
H       -1.70423173      -1.40830004       0.81619103
H       -2.49351044      -0.79982922      -0.63227711
H       -2.23686024       0.29112015       0.75183560
H        1.56157771      -0.87895597      -1.02579681
H        1.09587123      -1.48589327       0.60295396
H        2.52596164       0.08784750       1.39679590
H       -1.02142513       1.96340785      -0.46780345
H        0.48787720       1.57125998      -1.43263969
14
Frame=6 idx=004322 GeodesicLength=0.2627674728721166 rxn_smarts="[C:1]([C@@:2]1([C:3]([O:4][H:12])([H:10])[H:11])[C:5]([H:13])([H:14])[O:6]1)([H:7])([H:8])[H:9]>>[C:1]([C:2][C:5]([O:6][C:3]([O:4][H:12])([H:10])[H:11])([H:13])[H:14])([H:7])([H:8])[H:9]"
C       -1.81082573      -0.53357322       0.15955895
C       -0.51976744      -0.16996925      -0.48272607
C        1.38347450      -0.62517193       0.02119288
O        2.57747131      -0.04219212       0.40193294
C       -0.22016005       1.24616426      -0.65748735
O        0.36134381       0.77864259       0.55716205
H       -1.72905503      -1.41485002       0.79923095
H       -2.48853362      -0.79589363      -0.66105312
H       -2.25645889       0.28725885       0.73385178
H        1.53637242      -0.92530029      -1.01051741
H        1.11351818      -1.47863851       0.64159247
H        2.55399354       0.13712330       1.34534298
H       -1.01128238       1.96654994      -0.45045015
H        0.50990940       1.56985003      -1.39763090
14
Frame=7 idx=004322 GeodesicLength=0.30621933301314286 rxn_smarts="[C:1]([C@@:2]1([C:3]([O:4][H:12])([H:10])[H:11])[C:5]([H:13])([H:14])[O:6]1)([H:7])([H:8])[H:9]>>[C:1]([C:2][C:5]([O:6][C:3]([O:4][H:12])([H:10])[H:11])([H:13])[H:14])([H:7])([H:8])[H:9]"
C       -1.82080327      -0.53574478       0.14683479
C       -0.52108010      -0.16968469      -0.47370979
C        1.37639526      -0.63059686       0.02946882
O        2.57954372      -0.02959517       0.35612663
C       -0.21069625       1.24662617      -0.63410649
O        0.35444945       0.76626031       0.58416875
H       -1.75264309      -1.42109753       0.78216550
H       -2.48260057      -0.79168750      -0.68904001
H       -2.27482818       0.28368791       0.71601888
H        1.51190604      -0.97049482      -0.99326504
H        1.13229602      -1.47104164       0.67904368
H        2.57795482       0.18558578       1.29230401
H       -1.00099170       1.96965426      -0.43278103
H        0.53109785       1.56812856      -1.36322870
14
Frame=8 idx=004322 GeodesicLength=0.34996204280972165 rxn_smarts="[C:1]([C@@:2]1([C:3]([O:4][H:12])([H:10])[H:11])[C:5]([H:13])([H:14])[O:6]1)([H:7])([H:8])[H:9]>>[C:1]([C:2][C:5]([O:6][C:3]([O:4][H:12])([H:10])[H:11])([H:13])[H:14])([H:7])([H:8])[H:9]"
C       -1.82994298      -0.53768423       0.13422298
C       -0.52201844      -0.16928543      -0.46477593
C        1.36937212      -0.63623598       0.03809853
O        2.57949333      -0.01841018       0.31074124
C       -0.20120040       1.24704061      -0.61067361
O        0.34799390       0.75392995       0.61070325
H       -1.77517191      -1.42704847       0.76491349
H       -2.47573826      -0.78720516      -0.71637641
H       -2.29211209       0.28039553       0.69826313
H        1.48812281      -1.01467083      -0.97410766
H        1.15222686      -1.46305755       0.71545055
H        2.59800041       0.23339693       1.23757937
H       -0.99053820       1.97270186      -0.41468941
H        0.55151285       1.56613295      -1.32934952
14
Frame=9 idx=004322 GeodesicLength=0.3942043749151675 rxn_smarts="[C:1]([C@@:2]1([C:3]([O:4][H:12])([H:10])[H:11])[C:5]([H:13])([H:14])[O:6]1)([H:7])([H:8])[H:9]>>[C:1]([C:2][C:5]([O:6][C:3]([O:4][H:12])([H:10])[H:11])([H:13])[H:14])([H:7])([H:8])[H:9]"
C       -1.83828663      -0.53942045       0.12164643
C       -0.52256799      -0.16876884      -0.45586878
C        1.36238158      -0.64210458       0.04717968
O        2.57742586      -0.00864981       0.26565875
C       -0.19167054       1.24746406      -0.58711125
O        0.34195589       0.74167744       0.63686944
H       -1.79674154      -1.43278945       0.74737139
H       -2.46791930      -0.78244885      -0.74322384
H       -2.30839349       0.27735903       0.68048862
H        1.46488841      -1.05800652      -0.95297261
H        1.17335646      -1.45464589       0.75101553
H        2.61431592       0.28059109       1.18098370
H       -0.97992796       1.97576601      -0.39610721
H        0.57118334       1.56397672      -1.29592985
14
Frame=10 idx=004322 GeodesicLength=0.4390221839731751 rxn_smarts="[C:1]([C@@:2]1([C:3]([O:4][H:12])([H:10])[H:11])[C:5]([H:13])([H:14])[O:6]1)([H:7])([H:8])[H:9]>>[C:1]([C:2][C:5]([O:6][C:3]([O:4][H:12])([H:10])[H:11])([H:13])[H:14])([H:7])([H:8])[H:9]"
C       -1.84587909      -0.54096349       0.10900983
C       -0.52272135      -0.16811997      -0.44691669
C        1.35544794      -0.64810505       0.05677682
O        2.57353417      -0.00012924       0.22076241
C       -0.18217191       1.24786130      -0.56336424
O        0.33628550       0.72949534       0.66276335
H       -1.81744487      -1.43827753       0.72948252
H       -2.45904567      -0.77743384      -0.76979209
H       -2.32383644       0.27451261       0.66253258
H        1.44198365      -1.10048614      -0.92996940
H        1.19558118      -1.44537977       0.78613611
H        2.62749698       0.32662151       1.12249246
H       -0.96925320       1.97873839      -0.37697681
H        0.59002312       1.56166588      -1.26293685
14
Frame=11 idx=004322 GeodesicLength=0.48447051468633173 rxn_smarts="[C:1]([C@@:2]1([C:3]([O:4][H:12])([H:10])[H:11])[C:5]([H:13])([H:14])[O:6]1)([H:7])([H:8])[H:9]>>[C:1]([C:2][C:5]([O:6][C:3]([O:4][H:12])([H:10])[H:11])([H:13])[H:14])([H:7])([H:8])[H:9]"
C       -1.85271724      -0.54228410       0.09642114
C       -0.52248079      -0.16736980      -0.43795932
C        1.34861203      -0.65428189       0.06681702
O        2.56779768       0.00690985       0.17640665
C       -0.17264249       1.24824604      -0.53950974
O        0.33103711       0.71741954       0.68831827
H       -1.83726029      -1.44350121       0.71135904
H       -2.44925913      -0.77215888      -0.79586585
H       -2.33833672       0.27195021       0.64455399
H        1.41973720      -1.14197331      -0.90523721
H        1.21901675      -1.43567554       0.82024213
H        2.63682619       0.37181174       1.06235536
H       -0.95846409       1.98168571      -0.35740401
H        0.60813379       1.55922164      -1.23049747
14
Frame=12 idx=004322 GeodesicLength=0.5305081874218217 rxn_smarts="[C:1]([C@@:2]1([C:3]([O:4][H:12])([H:10])[H:11])[C:5]([H:13])([H:14])[O:6]1)([H:7])([H:8])[H:9]>>[C:1]([C:2][C:5]([O:6][C:3]([O:4][H:12])([H:10])[H:11])([H:13])[H:14])([H:7])([H:8])[H:9]"
C       -1.85878426      -0.54337038       0.08392234
C       -0.52184811      -0.16652812      -0.42899539
C        1.34190163      -0.66054339       0.07726789
O        2.56032433       0.01246527       0.13280411
C       -0.16311523       1.24859087      -0.51561815
O        0.32617845       0.70549006       0.71350198
H       -1.85614644      -1.44840707       0.69308564
H       -2.43856214      -0.76663308      -0.82137820
H       -2.35187289       0.26968116       0.62658743
H        1.39822500      -1.18220407      -0.87897513
H        1.24357913      -1.42550850       0.85319053
H        2.64226143       0.41580362       1.00083746
H       -0.94762039       1.98455336      -0.33751404
H        0.62547949       1.55661027      -1.19871648
14
Frame=13 idx=004322 GeodesicLength=0.5772758583892138 rxn_smarts="[C:1]([C@@:2]1([C:3]([O:4][H:12])([H:10])[H:11])[C:5]([H:13])([H:14])[O:6]1)([H:7])([H:8])[H:9]>>[C:1]([C:2][C:5]([O:6][C:3]([O:4][H:12])([H:10])[H:11])([H:13])[H:14])([H:7])([H:8])[H:9]"
C       -1.86415074      -0.54425081       0.07144946
C       -0.52083321      -0.16559004      -0.41996782
C        1.33533109      -0.66685972       0.08817356
O        2.55121879       0.01676191       0.08981626
C       -0.15361894       1.24893003      -0.49164099
O        0.32170212       0.69374283       0.73839797
H       -1.87422042      -1.45302698       0.67461675
H       -2.42693908      -0.76091829      -0.84647923
H       -2.36459099       0.26767980       0.60851205
H        1.37732150      -1.22132319      -0.85121557
H        1.26928744      -1.41467386       0.88518890
H        2.64422290       0.45824487       0.93796805
H       -0.93677028       1.98736423      -0.31724791
H        0.64203982       1.55391922      -1.16757149
14
Frame=14 idx=004322 GeodesicLength=0.6247435735548167 rxn_smarts="[C:1]([C@@:2]1([C:3]([O:4][H:12])([H:10])[H:11])[C:5]([H:13])([H:14])[O:6]1)([H:7])([H:8])[H:9]>>[C:1]([C:2][C:5]([O:6][C:3]([O:4][H:12])([H:10])[H:11])([H:13])[H:14])([H:7])([H:8])[H:9]"
C       -1.86878762      -0.54490722       0.05907210
C       -0.51944222      -0.16457041      -0.41088995
C        1.32892736      -0.67316435       0.09947008
O        2.54054048       0.01974323       0.04769530
C       -0.14416186       1.24924064      -0.46766732
O        0.31759543       0.68220597       0.76295384
H       -1.89142096      -1.45731552       0.65605881
H       -2.41442333      -0.75501001      -0.87104114
H       -2.37641562       0.26597214       0.59040966
H        1.35716571      -1.25908856      -0.82217636
H        1.29606464      -1.40326959       0.91595451
H        2.64248355       0.49895934       0.87409959
H       -0.92593749       1.99008637      -0.29675587
H        0.65781194       1.55111798      -1.13718323
14
Frame=15 idx=004322 GeodesicLength=0.6728663036389585 rxn_smarts="[C:1]([C@@:2]1([C:3]([O:4][H:12])([H:10])[H:11])[C:5]([H:13])([H:14])[O:6]1)([H:7])([H:8])[H:9]>>[C:1]([C:2][C:5]([O:6][C:3]([O:4][H:12])([H:10])[H:11])([H:13])[H:14])([H:7])([H:8])[H:9]"
C       -1.87274211      -0.54534637       0.04684681
C       -0.51771143      -0.16348960      -0.40176745
C        1.32272478      -0.67938607       0.11108902
O        2.52841445       0.02157265       0.00660822
C       -0.13477480       1.24952076      -0.44378963
O        0.31384315       0.67095009       0.78712929
H       -1.90777142      -1.46124788       0.63752966
H       -2.40109854      -0.74898199      -0.89499486
H       -2.38739132       0.26458372       0.57231974
H        1.33783901      -1.29534027      -0.79211345
H        1.32384084      -1.39133487       0.94529937
H        2.63722230       0.53758542       0.80970495
H       -0.91518193       1.99271823      -0.27618527
H        0.67278703       1.54819618      -1.10767639
14
Frame=16 idx=004322 GeodesicLength=0.7217953634094274 rxn_smarts="[C:1]([C@@:2]1([C:3]([O:4][H:12])([H:10])[H:11])[C:5]([H:13])([H:14])[O:6]1)([H:7])([H:8])[H:9]>>[C:1]([C:2][C:5]([O:6][C:3]([O:4][H:12])([H:10])[H:11])([H:13])[H:14])([H:7])([H:8])[H:9]"
C       -1.87601536      -0.54557198       0.03476488
C       -0.51563609      -0.16236430      -0.39257560
C        1.31672127      -0.68548886       0.12300127
O        2.51484292       0.02241095      -0.03349308
C       -0.12544486       1.24975050      -0.42001190
O        0.31043979       0.65995942       0.81092460
H       -1.92333594      -1.46482550       0.61901003
H       -2.38695067      -0.74282373      -0.91834149
H       -2.39749680       0.26349031       0.55423326
H        1.31932320      -1.33012719      -0.76110883
H        1.35254097      -1.37879041       0.97321339
H        2.62850685       0.57397676       0.74497926
H       -0.90446267       1.99523135      -0.25552667
H        0.68696739       1.54517267      -1.07906912
