11
Frame=0 idx=002849 GeodesicLength=0.0 rxn_smarts="[C:1]([N:2]([C:3]([C:4]#[N:5])([H:10])[H:11])[H:9])([H:6])([H:7])[H:8]>>[C:1]([N+:2]([C-:3]([C:4]#[N:5])[H:11])([H:9])[H:10])([H:6])([H:7])[H:8]"
C        1.42084030      -0.35896441      -0.10529924
N        0.25242989       0.11174871       0.61939828
C       -0.90698931       0.72635466      -0.22870459
C       -2.08341634      -0.05295969      -0.19811828
N       -3.04759449      -0.68152785      -0.09755769
H        1.14070114      -1.15482633      -0.80070025
H        2.17348304      -0.71866242       0.59562963
H        1.84410783       0.47015475      -0.67114799
H       -0.12901931      -0.54084906       1.28967418
H       -0.13830984       1.18992756       0.79727491
H       -0.52623293       1.00960403      -1.20044898
11
Frame=1 idx=002849 GeodesicLength=0.04649531287643335 rxn_smarts="[C:1]([N:2]([C:3]([C:4]#[N:5])([H:10])[H:11])[H:9])([H:6])([H:7])[H:8]>>[C:1]([N+:2]([C-:3]([C:4]#[N:5])[H:11])([H:9])[H:10])([H:6])([H:7])[H:8]"
C        1.41128212      -0.36623467      -0.10904874
N        0.25468371       0.12392212       0.62320043
C       -0.90377762       0.73109646      -0.21961219
C       -2.06360232      -0.07605519      -0.21480644
N       -3.02941893      -0.70204986      -0.11448654
H        1.11503647      -1.16493932      -0.79447568
H        2.16681382      -0.72810508       0.58773665
H        1.83865079       0.45325950      -0.68579910
H       -0.12049765      -0.52110078       1.30451634
H       -0.14201604       1.21009587       0.80822462
H       -0.52715435       1.04011095      -1.18544935
11
Frame=2 idx=002849 GeodesicLength=0.09315139476118482 rxn_smarts="[C:1]([N:2]([C:3]([C:4]#[N:5])([H:10])[H:11])[H:9])([H:6])([H:7])[H:8]>>[C:1]([N+:2]([C-:3]([C:4]#[N:5])[H:11])([H:9])[H:10])([H:6])([H:7])[H:8]"
C        1.40162821      -0.37346825      -0.11272921
N        0.25705183       0.13586927       0.62685079
C       -0.90057830       0.73587295      -0.21037253
C       -2.04374001      -0.09724643      -0.23034047
N       -3.01015384      -0.72269644      -0.13250712
H        1.08956965      -1.17504112      -0.78774359
H        2.16019984      -0.73712104       0.57990694
H        1.83246936       0.43622879      -0.70069666
H       -0.11191924      -0.50180481       1.31865946
H       -0.14581057       1.23010483       0.81925025
H       -0.52871693       1.06930225      -1.17027786
11
Frame=3 idx=002849 GeodesicLength=0.13999631021794506 rxn_smarts="[C:1]([N:2]([C:3]([C:4]#[N:5])([H:10])[H:11])[H:9])([H:6])([H:7])[H:8]>>[C:1]([N+:2]([C-:3]([C:4]#[N:5])[H:11])([H:9])[H:10])([H:6])([H:7])[H:8]"
C        1.39180433      -0.38072503      -0.11635256
N        0.25956011       0.14766261       0.63039717
C       -0.89736155       0.74084025      -0.20095403
C       -2.02395216      -0.11642473      -0.24473334
N       -2.98956021      -0.74397232      -0.15175659
H        1.06406409      -1.18518638      -0.78046384
H        2.15359462      -0.74583644       0.57211911
H        1.82554854       0.41893533      -0.71594412
H       -0.10326762      -0.48281528       1.33225329
H       -0.14958418       1.25005425       0.83040239
H       -0.53084598       1.09746774      -1.15496748
11
Frame=4 idx=002849 GeodesicLength=0.18723308003227287 rxn_smarts="[C:1]([N:2]([C:3]([C:4]#[N:5])([H:10])[H:11])[H:9])([H:6])([H:7])[H:8]>>[C:1]([N+:2]([C-:3]([C:4]#[N:5])[H:11])([H:9])[H:10])([H:6])([H:7])[H:8]"
C        1.38165323      -0.38811552      -0.11996753
N        0.26220108       0.15945988       0.63381821
C       -0.89411036       0.74616710      -0.19119503
C       -2.00428589      -0.13345020      -0.25787118
N       -2.96702125      -0.76641475      -0.17266630
H        1.03830212      -1.19557091      -0.77246587
H        2.14687851      -0.75432692       0.56415072
H        1.81764371       0.40109141      -0.73167997
H       -0.09452467      -0.46384382       1.34541207
H       -0.15330446       1.27012583       0.84171180
H       -0.53343203       1.12487790      -1.13924691
11
Frame=5 idx=002849 GeodesicLength=0.2345807161529925 rxn_smarts="[C:1]([N:2]([C:3]([C:4]#[N:5])([H:10])[H:11])[H:9])([H:6])([H:7])[H:8]>>[C:1]([N+:2]([C-:3]([C:4]#[N:5])[H:11])([H:9])[H:10])([H:6])([H:7])[H:8]"
C        1.37150270      -0.39537927      -0.12345702
N        0.26491079       0.17088565       0.63699646
C       -0.89078499       0.75136757      -0.18156302
C       -1.98463587      -0.14910136      -0.27058572
N       -2.94397274      -0.78843373      -0.19350843
H        1.01296194      -1.20573315      -0.76411611
H        2.14021687      -0.76237848       0.55638513
H        1.80916673       0.38333117      -0.74733403
H       -0.08576582      -0.44552014       1.35775816
H       -0.15725903       1.28981898       0.85308074
H       -0.53634057       1.15114276      -1.12365615
11
Frame=6 idx=002849 GeodesicLength=0.2821678458469623 rxn_smarts="[C:1]([N:2]([C:3]([C:4]#[N:5])([H:10])[H:11])[H:9])([H:6])([H:7])[H:8]>>[C:1]([N+:2]([C-:3]([C:4]#[N:5])[H:11])([H:9])[H:10])([H:6])([H:7])[H:8]"
C        1.36130313      -0.40263394      -0.12687580
N        0.26771840       0.18208622       0.63998999
C       -0.88744141       0.75661673      -0.17188655
C       -1.96518744      -0.16328312      -0.28260928
N       -2.92002001      -0.81048122      -0.21492911
H        0.98787735      -1.21594573      -0.75522837
H        2.13367998      -0.77008484       0.54866176
H        1.80001324       0.36543624      -0.76320235
H       -0.07694416      -0.42761742       1.36955547
H       -0.16141719       1.30932792       0.86458148
H       -0.53958189       1.17657917      -1.10805725
11
Frame=7 idx=002849 GeodesicLength=0.3300464093610129 rxn_smarts="[C:1]([N:2]([C:3]([C:4]#[N:5])([H:10])[H:11])[H:9])([H:6])([H:7])[H:8]>>[C:1]([N+:2]([C-:3]([C:4]#[N:5])[H:11])([H:9])[H:10])([H:6])([H:7])[H:8]"
C        1.35096894      -0.40991813      -0.13022907
N        0.27064292       0.19312584       0.64278350
C       -0.88405278       0.76198101      -0.16212217
C       -1.94588353      -0.17591332      -0.29412909
N       -2.89496265      -0.83284201      -0.23698366
H        0.96290245      -1.22619625      -0.74570642
H        2.12721141      -0.77747567       0.54087309
H        1.79003283       0.34720905      -0.77928825
H       -0.06800363      -0.40998745       1.38084959
H       -0.16573483       1.32870391       0.87622187
H       -0.54312114       1.20131301      -1.09226938
11
Frame=8 idx=002849 GeodesicLength=0.37824401603277735 rxn_smarts="[C:1]([N:2]([C:3]([C:4]#[N:5])([H:10])[H:11])[H:9])([H:6])([H:7])[H:8]>>[C:1]([N+:2]([C-:3]([C:4]#[N:5])[H:11])([H:9])[H:10])([H:6])([H:7])[H:8]"
C        1.34048168      -0.41724555      -0.13352947
N        0.27370475       0.20402810       0.64543763
C       -0.88063377       0.76745145      -0.15222758
C       -1.92688166      -0.18716783      -0.30500272
N       -2.86859877      -0.85540722      -0.25987094
H        0.93795007      -1.23658665      -0.73551566
H        2.12082821      -0.78454022       0.53303028
H        1.77921584       0.32866173      -0.79572816
H       -0.05890856      -0.39259368       1.39173065
H       -0.17022926       1.34794719       0.88807533
H       -0.54692855       1.22545269      -1.07639935
11
Frame=9 idx=002849 GeodesicLength=0.4269988832604501 rxn_smarts="[C:1]([N:2]([C:3]([C:4]#[N:5])([H:10])[H:11])[H:9])([H:6])([H:7])[H:8]>>[C:1]([N+:2]([C-:3]([C:4]#[N:5])[H:11])([H:9])[H:10])([H:6])([H:7])[H:8]"
C        1.32970435      -0.42468967      -0.13680502
N        0.27688383       0.21486128       0.64794955
C       -0.87716048       0.77316771      -0.14216172
C       -1.90800477      -0.19700825      -0.31512889
N       -2.84059561      -0.87865341      -0.28392311
H        0.91278038      -1.24720071      -0.72454698
H        2.11443172      -0.79137208       0.52502419
H        1.76739663       0.30957526      -0.81262354
H       -0.04966365      -0.37521654       1.40232070
H       -0.17476637       1.36722550       0.90010325
H       -0.55100602       1.24931091      -1.06020842
11
Frame=10 idx=002849 GeodesicLength=0.4762316565185252 rxn_smarts="[C:1]([N:2]([C:3]([C:4]#[N:5])([H:10])[H:11])[H:9])([H:6])([H:7])[H:8]>>[C:1]([N+:2]([C-:3]([C:4]#[N:5])[H:11])([H:9])[H:10])([H:6])([H:7])[H:8]"
C        1.31873290      -0.43222413      -0.14002892
N        0.28021346       0.22557999       0.65032050
C       -0.87367075       0.77902385      -0.13194075
C       -1.88944938      -0.20553993      -0.32464576
N       -2.81109832      -0.90216398      -0.30898118
H        0.88755020      -1.25801148      -0.71275490
H        2.10816561      -0.79791813       0.51687352
H        1.75459327       0.29004666      -0.82994238
H       -0.04019240      -0.35798875       1.41260699
H       -0.17947899       1.38643786       0.91233705
H       -0.55536562       1.27275804      -1.04384417
11
Frame=11 idx=002849 GeodesicLength=0.5258956739810229 rxn_smarts="[C:1]([N:2]([C:3]([C:4]#[N:5])([H:10])[H:11])[H:9])([H:6])([H:7])[H:8]>>[C:1]([N+:2]([C-:3]([C:4]#[N:5])[H:11])([H:9])[H:10])([H:6])([H:7])[H:8]"
C        1.30753361      -0.43980483      -0.14322263
N        0.28369222       0.23622847       0.65249971
C       -0.87012753       0.78495600      -0.12155691
C       -1.87123136      -0.21298998      -0.33346502
N       -2.78021019      -0.92576842      -0.33516310
H        0.86231970      -1.26896559      -0.70014833
H        2.10194544      -0.80400151       0.50849067
H        1.74069107       0.26993895      -0.84760720
H       -0.03045486      -0.34079460       1.42256025
H       -0.18431449       1.40551023       0.92481074
H       -0.55984361       1.29569128      -1.02719818
11
Frame=12 idx=002849 GeodesicLength=0.5760213978383522 rxn_smarts="[C:1]([N:2]([C:3]([C:4]#[N:5])([H:10])[H:11])[H:9])([H:6])([H:7])[H:8]>>[C:1]([N+:2]([C-:3]([C:4]#[N:5])[H:11])([H:9])[H:10])([H:6])([H:7])[H:8]"
C        1.29624810      -0.44742453      -0.14633466
N        0.28729834       0.24666610       0.65448958
C       -0.86655326       0.79085657      -0.11115425
C       -1.85326999      -0.21941616      -0.34193749
N       -2.74824779      -0.94907545      -0.36185213
H        0.83726767      -1.28000637      -0.68679456
H        2.09593650      -0.80979222       0.50000464
H        1.72589689       0.24957939      -0.86547744
H       -0.02049188      -0.32388517       1.43214294
H       -0.18949282       1.42438290       0.93744270
H       -0.56459176       1.31811493      -1.01052933
11
Frame=13 idx=002849 GeodesicLength=0.6265660182100146 rxn_smarts="[C:1]([N:2]([C:3]([C:4]#[N:5])([H:10])[H:11])[H:9])([H:6])([H:7])[H:8]>>[C:1]([N+:2]([C-:3]([C:4]#[N:5])[H:11])([H:9])[H:10])([H:6])([H:7])[H:8]"
C        1.28488376      -0.45506670      -0.14937369
N        0.29104487       0.25692577       0.65626634
C       -0.86294419       0.79667773      -0.10072183
C       -1.83565458      -0.22496598      -0.34994564
N       -2.71529108      -0.97193814      -0.38920385
H        0.81244831      -1.29109327      -0.67269513
H        2.09012763      -0.81521379       0.49134906
H        1.71017384       0.22889398      -0.88349340
H       -0.01024261      -0.30718083       1.44137612
H       -0.19499294       1.44303041       0.95023891
H       -0.56955301       1.33993081      -0.99379689
11
Frame=14 idx=002849 GeodesicLength=0.6775117947929706 rxn_smarts="[C:1]([N:2]([C:3]([C:4]#[N:5])([H:10])[H:11])[H:9])([H:6])([H:7])[H:8]>>[C:1]([N+:2]([C-:3]([C:4]#[N:5])[H:11])([H:9])[H:10])([H:6])([H:7])[H:8]"
C        1.27349052      -0.46270610      -0.15232932
N        0.29491252       0.26695972       0.65781213
C       -0.85929486       0.80235257      -0.09033252
C       -1.81835245      -0.22977667      -0.35756859
N       -2.68154047      -0.99412784      -0.41695805
H        0.78796016      -1.30214727      -0.65794780
H        2.08452417      -0.82030518       0.48256416
H        1.69362899       0.20799951      -0.90151998
H        0.00027521      -0.29074429       1.45022549
H       -0.20088641       1.46140714       0.96314923
H       -0.57471739       1.36108842      -0.97709474
11
Frame=15 idx=002849 GeodesicLength=0.7288302373925489 rxn_smarts="[C:1]([N:2]([C:3]([C:4]#[N:5])([H:10])[H:11])[H:9])([H:6])([H:7])[H:8]>>[C:1]([N+:2]([C-:3]([C:4]#[N:5])[H:11])([H:9])[H:10])([H:6])([H:7])[H:8]"
C        1.26210573      -0.47033247      -0.15520024
N        0.29889775       0.27676259       0.65911288
C       -0.85560887       0.80783512      -0.08001447
C       -1.80138094      -0.23397863      -0.36479051
N       -2.64713478      -1.01547836      -0.44505580
H        0.76387138      -1.31312534      -0.64260577
H        2.07913535      -0.82508087       0.47364692
H        1.67632924       0.18693235      -0.91947319
H        0.01107690      -0.27456723       1.45869493
H       -0.20721204       1.47948983       0.97614739
H       -0.58007972       1.38154302      -0.96046213
11
Frame=16 idx=002849 GeodesicLength=0.7805021398607986 rxn_smarts="[C:1]([N:2]([C:3]([C:4]#[N:5])([H:10])[H:11])[H:9])([H:6])([H:7])[H:8]>>[C:1]([N+:2]([C-:3]([C:4]#[N:5])[H:11])([H:9])[H:10])([H:6])([H:7])[H:8]"
C        1.25075969      -0.47794147      -0.15798436
N        0.30300196       0.28633394       0.66016017
C       -0.85188845       0.81309337      -0.06978517
C       -1.78474263      -0.23767770      -0.37159579
N       -2.61220002      -1.03587537      -0.47346357
H        0.74022514      -1.32399116      -0.62671289
H        2.07396841      -0.82957081       0.46459435
H        1.65833842       0.16572288      -0.93728501
H        0.02218425      -0.25863117       1.46679694
H       -0.21400187       1.49726841       0.98920866
H       -0.58564488       1.40126908      -0.94393332
