12
Frame=0 idx=007887 GeodesicLength=0.0 rxn_smarts="[O:1]=[C:2]1[C@@:3]2([H:8])[N:4]([H:9])[C@:5]1([H:10])[C:6]([H:11])=[C:7]2[H:12]>>[O:1]=[C:2]1[C:3]([H:8])=[C:7]([H:12])[C@@:6]2([H:11])[N:4]([H:9])[C@@:5]12[H:10]"
O       -0.69092828      -1.96397545       1.27555981
C       -0.25831313      -1.00659098       0.68660523
C        0.82954446      -0.92332189      -0.31717301
N       -1.16172768       0.09286326      -0.84993319
C       -0.76253349       0.40191432       0.53865389
C        0.41288860       1.22915751       0.16507699
C        1.34820032       0.38303824      -0.36720013
H        1.29067226      -1.79809888      -0.76077290
H       -2.15377862      -0.18477977      -0.83009344
H       -1.51801422       0.78727087       1.21734395
H        0.41686006       2.30879395       0.13180096
H        2.24712977       0.67372886      -0.88986813
12
Frame=1 idx=007887 GeodesicLength=0.06834255968023135 rxn_smarts="[O:1]=[C:2]1[C@@:3]2([H:8])[N:4]([H:9])[C@:5]1([H:10])[C:6]([H:11])=[C:7]2[H:12]>>[O:1]=[C:2]1[C:3]([H:8])=[C:7]([H:12])[C@@:6]2([H:11])[N:4]([H:9])[C@@:5]12[H:10]"
O       -0.65995304      -1.96625534       1.30693678
C       -0.24598425      -1.01243340       0.70117876
C        0.82019406      -0.92675925      -0.32970253
N       -1.14563590       0.08086249      -0.84865045
C       -0.76662403       0.39116185       0.54515518
C        0.39543183       1.22498821       0.14798892
C        1.34503037       0.37848920      -0.36467609
H        1.28493495      -1.80013570      -0.77215814
H       -2.15402146      -0.12140452      -0.85605409
H       -1.52498304       0.77658548       1.22000271
H        0.40030527       2.30467078       0.12404084
H        2.25130524       0.67023020      -0.87406189
12
Frame=2 idx=007887 GeodesicLength=0.1363252065099586 rxn_smarts="[O:1]=[C:2]1[C@@:3]2([H:8])[N:4]([H:9])[C@:5]1([H:10])[C:6]([H:11])=[C:7]2[H:12]>>[O:1]=[C:2]1[C:3]([H:8])=[C:7]([H:12])[C@@:6]2([H:11])[N:4]([H:9])[C@@:5]12[H:10]"
O       -0.62740811      -1.96797426       1.33944790
C       -0.23328193      -1.01834890       0.71619584
C        0.81094223      -0.93059904      -0.34103435
N       -1.13087411       0.06768479      -0.84673184
C       -0.77110071       0.37980449       0.55157636
C        0.37748987       1.22000194       0.13143819
C        1.34093800       0.37379652      -0.36270225
H        1.27900941      -1.80248916      -0.78279466
H       -2.14969072      -0.05340253      -0.88473494
H       -1.53243173       0.76492816       1.22267653
H        0.38315493       2.29968424       0.11718888
H        2.25325287       0.66691375      -0.86052564
12
Frame=3 idx=007887 GeodesicLength=0.2038999984864051 rxn_smarts="[O:1]=[C:2]1[C@@:3]2([H:8])[N:4]([H:9])[C@:5]1([H:10])[C:6]([H:11])=[C:7]2[H:12]>>[O:1]=[C:2]1[C:3]([H:8])=[C:7]([H:12])[C@@:6]2([H:11])[N:4]([H:9])[C@@:5]12[H:10]"
O       -0.59331211      -1.96901835       1.37307232
C       -0.22021012      -1.02427621       0.73174263
C        0.80158233      -0.93485540      -0.35131553
N       -1.11771019       0.05336108      -0.84405714
C       -0.77603934       0.36783590       0.55803542
C        0.35896617       1.21421268       0.11547187
C        1.33578407       0.36897249      -0.36145565
H        1.27271634      -1.80520243      -0.79274706
H       -2.13956651       0.01907989      -0.91612412
H       -1.54050725       0.75225569       1.22542384
H        0.36532907       2.29383842       0.11130509
H        2.25296754       0.66379625      -0.84935166
12
Frame=4 idx=007887 GeodesicLength=0.27091072997618715 rxn_smarts="[O:1]=[C:2]1[C@@:3]2([H:8])[N:4]([H:9])[C@:5]1([H:10])[C:6]([H:11])=[C:7]2[H:12]>>[O:1]=[C:2]1[C:3]([H:8])=[C:7]([H:12])[C@@:6]2([H:11])[N:4]([H:9])[C@@:5]12[H:10]"
O       -0.55800344      -1.96923208       1.40747760
C       -0.20682484      -1.03001973       0.74786726
C        0.79183129      -0.93944602      -0.36072090
N       -1.10636731       0.03831982      -0.84051985
C       -0.78147517       0.35543144       0.56468082
C        0.33990279       1.20773710       0.10027373
C        1.32949445       0.36405842      -0.36103779
H        1.26565232      -1.80824118      -0.80223141
H       -2.12230210       0.09456405      -0.94997256
H       -1.54932926       0.73873471       1.22829895
H        0.34696846       2.28723966       0.10655523
H        2.25045283       0.66085381      -0.84067108
12
Frame=5 idx=007887 GeodesicLength=0.33735825265400127 rxn_smarts="[O:1]=[C:2]1[C@@:3]2([H:8])[N:4]([H:9])[C@:5]1([H:10])[C:6]([H:11])=[C:7]2[H:12]>>[O:1]=[C:2]1[C:3]([H:8])=[C:7]([H:12])[C@@:6]2([H:11])[N:4]([H:9])[C@@:5]12[H:10]"
O       -0.52154736      -1.96842273       1.44227275
C       -0.19314890      -1.03537389       0.76433368
C        0.78125045      -0.94424827      -0.36983550
N       -1.09732868       0.02298036      -0.83609296
C       -0.78738863       0.34281191       0.57154143
C        0.32025962       1.20075813       0.08563064
C        1.32185782       0.35911227      -0.36197298
H        1.25742668      -1.81152918      -0.81170755
H       -2.09735324       0.17137225      -0.98524669
H       -1.55879450       0.72458431       1.23142641
H        0.32806362       2.28006689       0.10254420
H        2.24670314       0.65788794      -0.83289343
12
Frame=6 idx=007887 GeodesicLength=0.40327288990949733 rxn_smarts="[O:1]=[C:2]1[C@@:3]2([H:8])[N:4]([H:9])[C@:5]1([H:10])[C:6]([H:11])=[C:7]2[H:12]>>[O:1]=[C:2]1[C:3]([H:8])=[C:7]([H:12])[C@@:6]2([H:11])[N:4]([H:9])[C@@:5]12[H:10]"
O       -0.48513334      -1.96626540       1.47713475
C       -0.17978678      -1.04005505       0.78113578
C        0.76999187      -0.94900978      -0.37792730
N       -1.08947996       0.00879405      -0.83111073
C       -0.79382223       0.33046638       0.57868252
C        0.30080243       1.19352655       0.07291866
C        1.31361843       0.35417145      -0.36275897
H        1.24721867      -1.81482481      -0.82140440
H       -2.06368175       0.24518544      -1.02247926
H       -1.56937495       0.71027090       1.23433185
H        0.30989621       2.27252815       0.10126183
H        2.23975141       0.65521212      -0.82978473
12
Frame=7 idx=007887 GeodesicLength=0.46879080139473384 rxn_smarts="[O:1]=[C:2]1[C@@:3]2([H:8])[N:4]([H:9])[C@:5]1([H:10])[C:6]([H:11])=[C:7]2[H:12]>>[O:1]=[C:2]1[C:3]([H:8])=[C:7]([H:12])[C@@:6]2([H:11])[N:4]([H:9])[C@@:5]12[H:10]"
O       -0.44865724      -1.96282126       1.51107691
C       -0.16658885      -1.04393574       0.79756990
C        0.75751423      -0.95356229      -0.38628586
N       -1.08360089      -0.00401163      -0.82576501
C       -0.80055518       0.31860624       0.58586125
C        0.28138497       1.18632514       0.06107082
C        1.30441411       0.34932264      -0.36468817
H        1.23530525      -1.81804029      -0.83161683
H       -2.02341928       0.31478881      -1.05875785
H       -1.58037109       0.69608777       1.23728637
H        0.29201508       2.26492421       0.10073030
H        2.23255890       0.65231639      -0.82648183
12
Frame=8 idx=007887 GeodesicLength=0.5342234018490577 rxn_smarts="[O:1]=[C:2]1[C@@:3]2([H:8])[N:4]([H:9])[C@:5]1([H:10])[C:6]([H:11])=[C:7]2[H:12]>>[O:1]=[C:2]1[C:3]([H:8])=[C:7]([H:12])[C@@:6]2([H:11])[N:4]([H:9])[C@@:5]12[H:10]"
O       -0.41281243      -1.95805965       1.54402462
C       -0.15397168      -1.04701556       0.81362365
C        0.74424347      -0.95780209      -0.39422004
N       -1.07858157      -0.01470969      -0.82042385
C       -0.80762006       0.30743556       0.59305273
C        0.26258931       1.17930155       0.05107953
C        1.29497017       0.34455963      -0.36646048
H        1.22153963      -1.82105727      -0.84230148
H       -1.97714643       0.37824499      -1.09469873
H       -1.59208528       0.68222479       1.23995943
H        0.27518032       2.25738691       0.10224071
H        2.22369456       0.64949082      -0.82587609
12
Frame=9 idx=007887 GeodesicLength=0.5996382515582902 rxn_smarts="[O:1]=[C:2]1[C@@:3]2([H:8])[N:4]([H:9])[C@:5]1([H:10])[C:6]([H:11])=[C:7]2[H:12]>>[O:1]=[C:2]1[C:3]([H:8])=[C:7]([H:12])[C@@:6]2([H:11])[N:4]([H:9])[C@@:5]12[H:10]"
O       -0.37764609      -1.95208272       1.57552754
C       -0.14195630      -1.04932188       0.82891332
C        0.73015540      -0.96163387      -0.40214454
N       -1.07432220      -0.02310922      -0.81538498
C       -0.81487383       0.29703548       0.60003974
C        0.24451476       1.17260619       0.04255210
C        1.28538115       0.33990990      -0.36831617
H        1.20617930      -1.82380171      -0.85351771
H       -1.92700829       0.43496989      -1.12888298
H       -1.60415004       0.66881303       1.24235651
H        0.25929043       2.25008646       0.10485797
H        2.21443570       0.64652844      -0.82600081
12
Frame=10 idx=007887 GeodesicLength=0.665118412278208 rxn_smarts="[O:1]=[C:2]1[C@@:3]2([H:8])[N:4]([H:9])[C@:5]1([H:10])[C:6]([H:11])=[C:7]2[H:12]>>[O:1]=[C:2]1[C:3]([H:8])=[C:7]([H:12])[C@@:6]2([H:11])[N:4]([H:9])[C@@:5]12[H:10]"
O       -0.34320437      -1.94492553       1.60563800
C       -0.13064737      -1.05095448       0.84336676
C        0.71549258      -0.96503803      -0.40990630
N       -1.07034380      -0.02916882      -0.81084807
C       -0.82229195       0.28739267       0.60670827
C        0.22731743       1.16629261       0.03554970
C        1.27592348       0.33536871      -0.36990369
H        1.18935900      -1.82623732      -0.86522651
H       -1.87433196       0.48487427      -1.16135934
H       -1.61652782       0.65585369       1.24435683
H        0.24451896       2.24307018       0.10877562
H        2.20473581       0.64347205      -0.82715126
12
Frame=11 idx=007887 GeodesicLength=0.7306120448697541 rxn_smarts="[O:1]=[C:2]1[C@@:3]2([H:8])[N:4]([H:9])[C@:5]1([H:10])[C:6]([H:11])=[C:7]2[H:12]>>[O:1]=[C:2]1[C:3]([H:8])=[C:7]([H:12])[C@@:6]2([H:11])[N:4]([H:9])[C@@:5]12[H:10]"
O       -0.30937625      -1.93674815       1.63416696
C       -0.11994285      -1.05203089       0.85681795
C        0.70030182      -0.96804315      -0.41776725
N       -1.06663537      -0.03310595      -0.80698934
C       -0.82977338       0.27841240       0.61290178
C        0.21094093       1.16037120       0.02963343
C        1.26660390       0.33091374      -0.37147912
H        1.17152797      -1.82840920      -0.87723872
H       -1.82073024       0.52876277      -1.19120842
H       -1.62896237       0.64330447       1.24595966
H        0.23057858       2.23639507       0.11309384
H        2.19546726       0.64017768      -0.82789076
12
Frame=12 idx=007887 GeodesicLength=0.7962416965441753 rxn_smarts="[O:1]=[C:2]1[C@@:3]2([H:8])[N:4]([H:9])[C@:5]1([H:10])[C:6]([H:11])=[C:7]2[H:12]>>[O:1]=[C:2]1[C:3]([H:8])=[C:7]([H:12])[C@@:6]2([H:11])[N:4]([H:9])[C@@:5]12[H:10]"
O       -0.27625300      -1.92766122       1.66135092
C       -0.10987895      -1.05264814       0.86951748
C        0.68486833      -0.97066825      -0.42530818
N       -1.06280868      -0.03514267      -0.80367099
C       -0.83736290       0.26999249       0.61871020
C        0.19543800       1.15480187       0.02503217
C        1.25761876       0.32654813      -0.37259391
H        1.15271422      -1.83027655      -0.88945084
H       -1.76622922       0.56717898      -1.21952448
H       -1.64156222       0.63103991       1.24716976
H        0.21759767       2.22999147       0.11840693
H        2.18585799       0.63684399      -0.82963905
12
Frame=13 idx=007887 GeodesicLength=0.8619623952944525 rxn_smarts="[O:1]=[C:2]1[C@@:3]2([H:8])[N:4]([H:9])[C@:5]1([H:10])[C:6]([H:11])=[C:7]2[H:12]>>[O:1]=[C:2]1[C:3]([H:8])=[C:7]([H:12])[C@@:6]2([H:11])[N:4]([H:9])[C@@:5]12[H:10]"
O       -0.24363951      -1.91772562       1.68714367
C       -0.10031962      -1.05290302       0.88135049
C        0.66917865      -0.97297627      -0.43281245
N       -1.05897766      -0.03556825      -0.80107043
C       -0.84500216       0.26198404       0.62396714
C        0.18068216       1.14952694       0.02127868
C        1.24889624       0.32222035      -0.37358415
H        1.13335452      -1.83193268      -0.90162906
H       -1.71188515       0.60125608      -1.24531388
H       -1.65419355       0.61895048       1.24789452
H        0.20524584       2.22384742       0.12387850
H        2.17666024       0.63332053      -0.83110303
12
Frame=14 idx=007887 GeodesicLength=0.9277668292738521 rxn_smarts="[O:1]=[C:2]1[C@@:3]2([H:8])[N:4]([H:9])[C@:5]1([H:10])[C:6]([H:11])=[C:7]2[H:12]>>[O:1]=[C:2]1[C:3]([H:8])=[C:7]([H:12])[C@@:6]2([H:11])[N:4]([H:9])[C@@:5]12[H:10]"
O       -0.21149378      -1.90702800       1.71172504
C       -0.09123253      -1.05286810       0.89248198
C        0.65337261      -0.97501203      -0.44011717
N       -1.05502408      -0.03457711      -0.79907167
C       -0.85270818       0.25433784       0.62874964
C        0.16663401       1.14454135       0.01839406
C        1.24049424       0.31792765      -0.37430037
H        1.11346977      -1.83340507      -0.91378740
H       -1.65775129       0.63143243      -1.26928147
H       -1.66688327       0.60700699       1.24819939
H        0.19353556       2.21796052       0.12979927
H        2.16758694       0.62968353      -0.83279131
12
Frame=15 idx=007887 GeodesicLength=0.993643039455042 rxn_smarts="[O:1]=[C:2]1[C@@:3]2([H:8])[N:4]([H:9])[C@:5]1([H:10])[C:6]([H:11])=[C:7]2[H:12]>>[O:1]=[C:2]1[C:3]([H:8])=[C:7]([H:12])[C@@:6]2([H:11])[N:4]([H:9])[C@@:5]12[H:10]"
O       -0.17983966      -1.89564773       1.73511028
C       -0.08256692      -1.05257598       0.90298802
C        0.63750470      -0.97677865      -0.44718888
N       -1.05092128      -0.03235813      -0.79756202
C       -0.86045530       0.24699435       0.63309360
C        0.15323988       1.13981533       0.01626336
C        1.23240789       0.31367496      -0.37476003
H        1.09313761      -1.83466544      -0.92587645
H       -1.60399157       0.65812807      -1.29161506
H       -1.67956900       0.59516268       1.24814022
H        0.18240672       2.21229449       0.13608514
H        2.15864694       0.62595605      -0.83467818
12
Frame=16 idx=007887 GeodesicLength=1.0595394692126334 rxn_smarts="[O:1]=[C:2]1[C@@:3]2([H:8])[N:4]([H:9])[C@:5]1([H:10])[C:6]([H:11])=[C:7]2[H:12]>>[O:1]=[C:2]1[C:3]([H:8])=[C:7]([H:12])[C@@:6]2([H:11])[N:4]([H:9])[C@@:5]12[H:10]"
O       -0.14876192      -1.88369263       1.75726623
C       -0.07422187      -1.05205817       0.91290820
C        0.62164121      -0.97831702      -0.45406835
N       -1.04663171      -0.02909249      -0.79661450
C       -0.86821108       0.23986704       0.63693399
C        0.14045434       1.13530869       0.01470416
C        1.22465226       0.30943881      -0.37503320
H        1.07263115      -1.83577356      -0.93770324
H       -1.55105625       0.68200168      -1.31189812
H       -1.69222087       0.58336732       1.24763146
H        0.17173120       2.20683546       0.14242201
H        2.14999354       0.62211486      -0.83654864
