19
Frame=0 idx=009707 GeodesicLength=0.0 rxn_smarts="[C:1]([C@@:2]1([H:11])[C@@:3]2([H:12])[C:4]([H:13])([H:14])[C:5]([H:15])([H:16])[C:6]([H:17])([H:18])[C@@:7]12[H:19])([H:8])([H:9])[H:10]>>[C:1]([C@@:2]([C:3](=[C:4]([H:13])[H:14])[H:12])([C:7]([C:6](=[C:5]([H:15])[H:16])[H:18])([H:17])[H:19])[H:11])([H:8])([H:9])[H:10]"
C       -1.86525761       0.22915906       0.56012103
C       -1.06024646      -0.52454822      -0.48365441
C       -0.20521631       0.24351497      -1.44383822
C        0.46979275       1.37374947      -1.09635337
C        1.50742791       0.50720169       1.00409370
C        1.32178100      -0.82362655       0.60125198
C        0.15089213      -1.32262620      -0.10232682
H       -2.66514518       0.78666612       0.06939966
H       -2.31854624      -0.47182796       1.26370278
H       -1.27070369       0.93740096       1.13277055
H       -1.73438275      -1.19426141      -1.01890827
H        0.04660341      -0.27176784      -2.36421360
H        1.22246620       1.77585598      -1.76413067
H        0.08092178       2.06380235      -0.36348974
H        2.50183321       0.81795222       1.29769697
H        0.70242503       1.06978955       1.44458226
H        0.65899442      -1.46535418       1.36243408
H        2.22021269      -1.39799243       0.38644550
H        0.23614777      -2.33308756      -0.48558340
19
Frame=1 idx=009707 GeodesicLength=0.062010843884909336 rxn_smarts="[C:1]([C@@:2]1([H:11])[C@@:3]2([H:12])[C:4]([H:13])([H:14])[C:5]([H:15])([H:16])[C:6]([H:17])([H:18])[C@@:7]12[H:19])([H:8])([H:9])[H:10]>>[C:1]([C@@:2]([C:3](=[C:4]([H:13])[H:14])[H:12])([C:7]([C:6](=[C:5]([H:15])[H:16])[H:18])([H:17])[H:19])[H:11])([H:8])([H:9])[H:10]"
C       -1.86214355       0.22656533       0.56450876
C       -1.06045434      -0.52653576      -0.48135199
C       -0.19648164       0.23701317      -1.43675399
C        0.47208932       1.37521942      -1.09005453
C        1.50915997       0.51161118       0.98933520
C        1.32031457      -0.82772494       0.61317721
C        0.15346536      -1.32322603      -0.10485439
H       -2.65587660       0.79455292       0.07577589
H       -2.32147363      -0.47583448       1.26278387
H       -1.26436603       0.92626960       1.14435609
H       -1.73476335      -1.19267883      -1.02072073
H        0.05040764      -0.27061497      -2.36264499
H        1.21796311       1.78035925      -1.76397367
H        0.06122464       2.07679533      -0.37967199
H        2.50494257       0.82163816       1.28035770
H        0.71077938       1.07771054       1.43829260
H        0.62962580      -1.47636383       1.36312629
H        2.21830179      -1.40891662       0.41513851
H        0.24728500      -2.32583945      -0.50682583
19
Frame=2 idx=009707 GeodesicLength=0.12393709897804212 rxn_smarts="[C:1]([C@@:2]1([H:11])[C@@:3]2([H:12])[C:4]([H:13])([H:14])[C:5]([H:15])([H:16])[C:6]([H:17])([H:18])[C@@:7]12[H:19])([H:8])([H:9])[H:10]>>[C:1]([C@@:2]([C:3](=[C:4]([H:13])[H:14])[H:12])([C:7]([C:6](=[C:5]([H:15])[H:16])[H:18])([H:17])[H:19])[H:11])([H:8])([H:9])[H:10]"
C       -1.85897619       0.22403519       0.56890551
C       -1.06062652      -0.52848200      -0.47905830
C       -0.18783765       0.23061671      -1.42967669
C        0.47419780       1.37681895      -1.08374426
C        1.51078024       0.51578681       0.97483949
C        1.31850886      -0.83152888       0.62548197
C        0.15609057      -1.32371335      -0.10728298
H       -2.64652381       0.80237426       0.08226904
H       -2.32428061      -0.47968006       1.26192118
H       -1.25799912       0.91516799       1.15579919
H       -1.73507245      -1.19107383      -1.02250407
H        0.05409388      -0.26930010      -2.36101308
H        1.21364690       1.78446140      -1.76359827
H        0.04159534       2.08913764      -0.39647468
H        2.50802976       0.82502795       1.26301105
H        0.71920714       1.08564925       1.43202762
H        0.60045633      -1.48823269       1.36306505
H        2.21596914      -1.41895633       0.44365686
H        0.25874040      -2.31810891      -0.52762462
19
Frame=3 idx=009707 GeodesicLength=0.18579194563910365 rxn_smarts="[C:1]([C@@:2]1([H:11])[C@@:3]2([H:12])[C:4]([H:13])([H:14])[C:5]([H:15])([H:16])[C:6]([H:17])([H:18])[C@@:7]12[H:19])([H:8])([H:9])[H:10]>>[C:1]([C@@:2]([C:3](=[C:4]([H:13])[H:14])[H:12])([C:7]([C:6](=[C:5]([H:15])[H:16])[H:18])([H:17])[H:19])[H:11])([H:8])([H:9])[H:10]"
C       -1.85575232       0.22156440       0.57331325
C       -1.06076220      -0.53038436      -0.47677266
C       -0.17928649       0.22433287      -1.42260675
C        0.47611216       1.37855338      -1.07741908
C        1.51229216       0.51973736       0.96059248
C        1.31635369      -0.83503017       0.63815769
C        0.15876731      -1.32408324      -0.10961344
H       -2.63708864       0.81012133       0.08888205
H       -2.32695760      -0.48337446       1.26111867
H       -1.25160376       0.90409723       1.16710003
H       -1.73530744      -1.18944425      -1.02425704
H        0.05767448      -0.26782133      -2.35930741
H        1.20951033       1.78819604      -1.76300446
H        0.02203244       2.10084526      -0.41390853
H        2.51109841       0.82810727       1.24564778
H        0.72771593       1.09361005       1.42577754
H        0.57148377      -1.50096960       1.36223502
H        2.21321770      -1.42815353       0.47202184
H        0.27050005      -2.30990425      -0.54795700
19
Frame=4 idx=009707 GeodesicLength=0.24756351019657302 rxn_smarts="[C:1]([C@@:2]1([H:11])[C@@:3]2([H:12])[C:4]([H:13])([H:14])[C:5]([H:15])([H:16])[C:6]([H:17])([H:18])[C@@:7]12[H:19])([H:8])([H:9])[H:10]>>[C:1]([C@@:2]([C:3](=[C:4]([H:13])[H:14])[H:12])([C:7]([C:6](=[C:5]([H:15])[H:16])[H:18])([H:17])[H:19])[H:11])([H:8])([H:9])[H:10]"
C       -1.85247570       0.21915475       0.57773145
C       -1.06086460      -0.53223959      -0.47449505
C       -0.17083401       0.21816786      -1.41554729
C        0.47782949       1.38042520      -1.07107811
C        1.51369808       0.52347271       0.94658833
C        1.31384971      -0.83821519       0.65117251
C        0.16149309      -1.32433047      -0.11184461
H       -2.62758664       0.81778055       0.09560834
H       -2.32949361      -0.48691708       1.26038821
H       -1.24519100       0.89307581       1.17825073
H       -1.73547143      -1.18778909      -1.02597832
H        0.06116396      -0.26618701      -2.35752033
H        1.20556161       1.79158044      -1.76219093
H        0.00255051       2.11192037      -0.43197175
H        2.51413999       0.83085766       1.22831854
H        0.73630108       1.10158629       1.41954377
H        0.54273534      -1.51457233       1.36061169
H        2.21006728      -1.43651415       0.50017283
H        0.28252686      -2.30125672      -0.56776001
19
Frame=5 idx=009707 GeodesicLength=0.3092615625666333 rxn_smarts="[C:1]([C@@:2]1([H:11])[C@@:3]2([H:12])[C:4]([H:13])([H:14])[C:5]([H:15])([H:16])[C:6]([H:17])([H:18])[C@@:7]12[H:19])([H:8])([H:9])[H:10]>>[C:1]([C@@:2]([C:3](=[C:4]([H:13])[H:14])[H:12])([C:7]([C:6](=[C:5]([H:15])[H:16])[H:18])([H:17])[H:19])[H:11])([H:8])([H:9])[H:10]"
C       -1.84915101       0.21680416       0.58216398
C       -1.06093779      -0.53404641      -0.47222758
C       -0.16248498       0.21212623      -1.40850270
C        0.47934287       1.38243849      -1.06471760
C        1.51500681       0.52700117       0.93281970
C        1.31099532      -0.84107703       0.66451403
C        0.16426850      -1.32445298      -0.11397956
H       -2.61803040       0.82534899       0.10245136
H       -2.33188889      -0.49031585       1.25973518
H       -1.23876670       0.88210744       1.18925859
H       -1.73556949      -1.18610799      -1.02767317
H        0.06457383      -0.26440123      -2.35565005
H        1.20179441       1.79464254      -1.76115677
H       -0.01684872       2.12237452      -0.45067051
H        2.51716726       0.83327056       1.21101777
H        0.74497358       1.10958496       1.41332483
H        0.51421859      -1.52903244       1.35817906
H        2.20652860      -1.44408289       0.52813807
H        0.29480822      -2.29218224      -0.58702463
19
Frame=6 idx=009707 GeodesicLength=0.37089347702136616 rxn_smarts="[C:1]([C@@:2]1([H:11])[C@@:3]2([H:12])[C:4]([H:13])([H:14])[C:5]([H:15])([H:16])[C:6]([H:17])([H:18])[C@@:7]12[H:19])([H:8])([H:9])[H:10]>>[C:1]([C@@:2]([C:3](=[C:4]([H:13])[H:14])[H:12])([C:7]([C:6](=[C:5]([H:15])[H:16])[H:18])([H:17])[H:19])[H:11])([H:8])([H:9])[H:10]"
C       -1.84577799       0.21450755       0.58661360
C       -1.06098318      -0.53580367      -0.46997030
C       -0.15424294       0.20621442      -1.40147362
C        0.48064380       1.38459900      -1.05833245
C        1.51622278       0.53032920       0.91927492
C        1.30778508      -0.84360750       0.67816392
C        0.16709251      -1.32444754      -0.11601941
H       -2.60841921       0.83282618       0.10941344
H       -2.33414239      -0.49358243       1.25916014
H       -1.23233298       0.87118807       1.20013106
H       -1.73560238      -1.18439917      -1.02934265
H        0.06791952      -0.26246561      -2.35368881
H        1.19820015       1.79741135      -1.75989793
H       -0.03616057       2.13221101      -0.47000729
H        2.52018578       0.83533668       1.19373048
H        0.75374316       1.11760857       1.40711507
H        0.48593785      -1.54433030       1.35491665
H        2.20260180      -1.45089865       0.55594613
H        0.30732923      -2.28269715      -0.60573296
19
Frame=7 idx=009707 GeodesicLength=0.4324658150144828 rxn_smarts="[C:1]([C@@:2]1([H:11])[C@@:3]2([H:12])[C:4]([H:13])([H:14])[C:5]([H:15])([H:16])[C:6]([H:17])([H:18])[C@@:7]12[H:19])([H:8])([H:9])[H:10]>>[C:1]([C@@:2]([C:3](=[C:4]([H:13])[H:14])[H:12])([C:7]([C:6](=[C:5]([H:15])[H:16])[H:18])([H:17])[H:19])[H:11])([H:8])([H:9])[H:10]"
C       -1.84235836       0.21226040       0.59108357
C       -1.06100358      -0.53751069      -0.46772364
C       -0.14611210       0.20043782      -1.39446131
C        0.48172398       1.38691152      -1.05191700
C        1.51735106       0.53346280       0.90594475
C        1.30421660      -0.84579859       0.69210116
C        0.16996380      -1.32431197      -0.11796531
H       -2.59875549       0.84021182       0.11649739
H       -2.33625456      -0.49672760       1.25866476
H       -1.22589360       0.86031516       1.21087618
H       -1.73557303      -1.18266133      -1.03098903
H        0.07121599      -0.26038377      -2.35163082
H        1.19477150       1.79991261      -1.75840898
H       -0.05537851       2.14143114      -0.48998391
H        2.52320221       0.83704691       1.17644438
H        0.76261967       1.12565935       1.40091107
H        0.45790172      -1.56043845       1.35080352
H        2.19828770      -1.45699821       0.58362504
H        0.32007499      -2.27281892      -0.62387182
19
Frame=8 idx=009707 GeodesicLength=0.4939844983868092 rxn_smarts="[C:1]([C@@:2]1([H:11])[C@@:3]2([H:12])[C:4]([H:13])([H:14])[C:5]([H:15])([H:16])[C:6]([H:17])([H:18])[C@@:7]12[H:19])([H:8])([H:9])[H:10]>>[C:1]([C@@:2]([C:3](=[C:4]([H:13])[H:14])[H:12])([C:7]([C:6](=[C:5]([H:15])[H:16])[H:18])([H:17])[H:19])[H:11])([H:8])([H:9])[H:10]"
C       -1.83889430       0.21005797       0.59557719
C       -1.06100229      -0.53916724      -0.46548770
C       -0.13809709       0.19480106      -1.38746664
C        0.48257495       1.38937969      -1.04546488
C        1.51839596       0.53640723       0.89282151
C        1.30028971      -0.84764210       0.70630157
C        0.17288026      -1.32404490      -0.11981775
H       -2.58904159       0.84750540       0.12370579
H       -2.33822606      -0.49976202       1.25825098
H       -1.21945280       0.84948598       1.22150174
H       -1.73548502      -1.18089330      -1.03261424
H        0.07447774      -0.25816012      -2.34947052
H        1.19150159       1.80216901      -1.75668276
H       -0.07449234       2.15003434      -0.51060168
H        2.52622178       0.83839231       1.15914891
H        0.77161209       1.13373771       1.39471055
H        0.43012121      -1.57732069       1.34581899
H        2.19358643      -1.46241497       0.61120009
H        0.33302977      -2.26256536      -0.64143115
19
Frame=9 idx=009707 GeodesicLength=0.5554536572858437 rxn_smarts="[C:1]([C@@:2]1([H:11])[C@@:3]2([H:12])[C:4]([H:13])([H:14])[C:5]([H:15])([H:16])[C:6]([H:17])([H:18])[C@@:7]12[H:19])([H:8])([H:9])[H:10]>>[C:1]([C@@:2]([C:3](=[C:4]([H:13])[H:14])[H:12])([C:7]([C:6](=[C:5]([H:15])[H:16])[H:18])([H:17])[H:19])[H:11])([H:8])([H:9])[H:10]"
C       -1.83538870       0.20789579       0.60009728
C       -1.06098306      -0.54077317      -0.46326282
C       -0.13020185       0.18930799      -1.38049058
C        0.48318845       1.39200691      -1.03896965
C        1.51936098       0.53916802       0.87989828
C        1.29600707      -0.84913055       0.72073702
C        0.17583870      -1.32364547      -0.12157647
H       -2.57927964       0.85470770       0.13104090
H       -2.34005860      -0.50269573       1.25792056
H       -1.21301545       0.83869815       1.23201505
H       -1.73534251      -1.17909371      -1.03422068
H        0.07772140      -0.25580108      -2.34720228
H        1.18838285       1.80420311      -1.75471151
H       -0.09349049       2.15801570      -0.53185910
H        2.52924813       0.83936386       1.14183650
H        0.78072826       1.14184234       1.38851291
H        0.40261156      -1.59493431       1.33994312
H        2.18849869      -1.46717900       0.63869065
H        0.34617422      -2.25195655      -0.65839918
19
Frame=10 idx=009707 GeodesicLength=0.6168770940244135 rxn_smarts="[C:1]([C@@:2]1([H:11])[C@@:3]2([H:12])[C:4]([H:13])([H:14])[C:5]([H:15])([H:16])[C:6]([H:17])([H:18])[C@@:7]12[H:19])([H:8])([H:9])[H:10]>>[C:1]([C@@:2]([C:3](=[C:4]([H:13])[H:14])[H:12])([C:7]([C:6](=[C:5]([H:15])[H:16])[H:18])([H:17])[H:19])[H:11])([H:8])([H:9])[H:10]"
C       -1.83184495       0.20576923       0.60464656
C       -1.06095004      -0.54232878      -0.46104890
C       -0.12243051       0.18396149      -1.37353347
C        0.48355620       1.39479530      -1.03242419
C        1.52024879       0.54175044       0.86716960
C        1.29137406      -0.85025676       0.73537632
C        0.17883503      -1.32311384      -0.12324042
H       -2.56947141       0.86181941       0.13850447
H       -2.34175446      -0.50553860       1.25767521
H       -1.20658705       0.82794903       1.24242325
H       -1.73515022      -1.17726120      -1.03581048
H        0.08096310      -0.25331385      -2.34482074
H        1.18540828       1.80603453      -1.75248594
H       -0.11235757       2.16536866      -0.55375360
H        2.53228320       0.83995380       1.12450102
H        0.78997468       1.14996997       1.38231890
H        0.37538915      -1.61322854       1.33315814
H        2.18302581      -1.47131731       0.66611140
H        0.35948794      -2.24101299      -0.67476712
19
Frame=11 idx=009707 GeodesicLength=0.6782582826109385 rxn_smarts="[C:1]([C@@:2]1([H:11])[C@@:3]2([H:12])[C:4]([H:13])([H:14])[C:5]([H:15])([H:16])[C:6]([H:17])([H:18])[C@@:7]12[H:19])([H:8])([H:9])[H:10]>>[C:1]([C@@:2]([C:3](=[C:4]([H:13])[H:14])[H:12])([C:7]([C:6](=[C:5]([H:15])[H:16])[H:18])([H:17])[H:19])[H:11])([H:8])([H:9])[H:10]"
C       -1.82826720       0.20367362       0.60922746
C       -1.06090771      -0.54383472      -0.45884559
C       -0.11478679       0.17876338      -1.36659520
C        0.48367012       1.39774605      -1.02582099
C        1.52106117       0.54416008       0.85463116
C        1.28639949      -0.85101453       0.75018540
C        0.18186431      -1.32245123      -0.12480776
H       -2.55961805       0.86884214       0.14609752
H       -2.34331744      -0.50830025       1.25751593
H       -1.20017397       0.81723562       1.25273354
H       -1.73491338      -1.17539432      -1.03738567
H        0.08421894      -0.25070680      -2.34232082
H        1.18257106       1.80768095      -1.74999589
H       -0.13107473       2.17208452      -0.57628030
H        2.53532706       0.84015649       1.10713785
H        0.79935617       1.15811551       1.37613090
H        0.34847173      -1.63214594       1.32544941
H        2.17717096      -1.47485421       0.69347076
H        0.37294826      -2.22975636      -0.69052773
19
Frame=12 idx=009707 GeodesicLength=0.7395996068445015 rxn_smarts="[C:1]([C@@:2]1([H:11])[C@@:3]2([H:12])[C:4]([H:13])([H:14])[C:5]([H:15])([H:16])[C:6]([H:17])([H:18])[C@@:7]12[H:19])([H:8])([H:9])[H:10]>>[C:1]([C@@:2]([C:3](=[C:4]([H:13])[H:14])[H:12])([C:7]([C:6](=[C:5]([H:15])[H:16])[H:18])([H:17])[H:19])[H:11])([H:8])([H:9])[H:10]"
C       -1.82466102       0.20160486       0.61384231
C       -1.06086106      -0.54529202      -0.45665249
C       -0.10727424       0.17371420      -1.35967579
C        0.48352206       1.40085934      -1.01915273
C        1.52179949       0.54640284       0.84228038
C        1.28109626      -0.85139911       0.76512814
C        0.18492126      -1.32166037      -0.12627601
H       -2.54972074       0.87577944       0.15382035
H       -2.34475386      -0.51098935       1.25744330
H       -1.19378394       0.80655474       1.26295414
H       -1.73463801      -1.17349160      -1.03894892
H        0.08750468      -0.24798963      -2.33969910
H        1.17986440       1.80915789      -1.74723137
H       -0.14962045       2.17815326      -0.59943185
H        2.53837871       0.83996854       1.08974440
H        0.80887573       1.16627239       1.36995379
H        0.32187795      -1.65162362       1.31680674
H        2.17094099      -1.47781195       0.72077074
H        0.38653179      -2.21820984      -0.70567602
19
Frame=13 idx=009707 GeodesicLength=0.8008893812589655 rxn_smarts="[C:1]([C@@:2]1([H:11])[C@@:3]2([H:12])[C:4]([H:13])([H:14])[C:5]([H:15])([H:16])[C:6]([H:17])([H:18])[C@@:7]12[H:19])([H:8])([H:9])[H:10]>>[C:1]([C@@:2]([C:3](=[C:4]([H:13])[H:14])[H:12])([C:7]([C:6](=[C:5]([H:15])[H:16])[H:18])([H:17])[H:19])[H:11])([H:8])([H:9])[H:10]"
C       -1.82105360       0.19957047       0.61849933
C       -1.06082462      -0.54670114      -0.45447874
C       -0.09990055       0.16880980      -1.35279255
C        0.48309785       1.40413456      -1.01242011
C        1.52248039       0.54848244       0.83013088
C        1.27550163      -0.85141435       0.78017797
C        0.18801141      -1.32075245      -0.12764785
H       -2.53981141       0.88265571       0.16167377
H       -2.34609550      -0.51360061       1.25746668
H       -1.18744120       0.79591306       1.27311388
H       -1.73434455      -1.17155165      -1.04052403
H        0.09083115      -0.24518062      -2.33698675
H        1.17727833       1.81047549      -1.74419904
H       -0.16798980       2.18357162      -0.62319915
H        2.54146283       0.83938305       1.07233572
H        0.81854072       1.17443879       1.36381832
H        0.29564079      -1.67159821       1.30723665
H        2.16438041      -1.48022562       0.74802155
H        0.40023570      -2.20641037      -0.72022653
19
Frame=14 idx=009707 GeodesicLength=0.8621772172044526 rxn_smarts="[C:1]([C@@:2]1([H:11])[C@@:3]2([H:12])[C:4]([H:13])([H:14])[C:5]([H:15])([H:16])[C:6]([H:17])([H:18])[C@@:7]12[H:19])([H:8])([H:9])[H:10]>>[C:1]([C@@:2]([C:3](=[C:4]([H:13])[H:14])[H:12])([C:7]([C:6](=[C:5]([H:15])[H:16])[H:18])([H:17])[H:19])[H:11])([H:8])([H:9])[H:10]"
C       -1.81738318       0.19752755       0.62317605
C       -1.06077319      -0.54806834      -0.45229122
C       -0.09265235       0.16405703      -1.34588562
C        0.48241070       1.40756728      -1.00559254
C        1.52304779       0.55042034       0.81812990
C        1.26956878      -0.85103292       0.79525940
C        0.19108768      -1.31970704      -0.12889786
H       -2.52978172       0.88941196       0.16964905
H       -2.34727853      -0.51618626       1.25754596
H       -1.18110207       0.78526845       1.28315102
H       -1.73399258      -1.16957580      -1.04204280
H        0.09422297      -0.24226756      -2.33406611
H        1.17481269       1.81165809      -1.74083525
H       -0.18607189       2.18829514      -0.64754569
H        2.54448142       0.83843044       1.05485179
H        0.82833039       1.18258766       1.35765219
H        0.26973071      -1.69198832       1.29669832
H        2.15738990      -1.48206050       0.77516302
H        0.41395249      -2.19433718      -0.73411961
19
Frame=15 idx=009707 GeodesicLength=0.9234309878303673 rxn_smarts="[C:1]([C@@:2]1([H:11])[C@@:3]2([H:12])[C:4]([H:13])([H:14])[C:5]([H:15])([H:16])[C:6]([H:17])([H:18])[C@@:7]12[H:19])([H:8])([H:9])[H:10]>>[C:1]([C@@:2]([C:3](=[C:4]([H:13])[H:14])[H:12])([C:7]([C:6](=[C:5]([H:15])[H:16])[H:18])([H:17])[H:19])[H:11])([H:8])([H:9])[H:10]"
C       -1.81372254       0.19550693       0.62790068
C       -1.06074117      -0.54939142      -0.45012210
C       -0.08554637       0.15944574      -1.33901212
C        0.48142672       1.41116176      -0.99868588
C        1.52356053       0.55221098       0.80632095
C        1.26337758      -0.85027862       0.81038383
C        0.19418685      -1.31855360      -0.13004564
H       -2.51972439       0.89612731       0.17776013
H       -2.34839657      -0.51871467       1.25770772
H       -1.17482341       0.77463696       1.29315593
H       -1.73363460      -1.16755696      -1.04358248
H        0.09768900      -0.23928336      -2.33104858
H        1.17244107       1.81271488      -1.73718499
H       -0.20393066       2.19234252      -0.67248280
H        2.54753411       0.83708253       1.03731371
H        0.83827501       1.19073736       1.35153443
H        0.24419620      -1.71274304       1.28522761
H        2.15008072      -1.48339704       0.80228576
H        0.42775192      -2.18204827      -0.74742616
19
Frame=16 idx=009707 GeodesicLength=0.9846600155858088 rxn_smarts="[C:1]([C@@:2]1([H:11])[C@@:3]2([H:12])[C:4]([H:13])([H:14])[C:5]([H:15])([H:16])[C:6]([H:17])([H:18])[C@@:7]12[H:19])([H:8])([H:9])[H:10]>>[C:1]([C@@:2]([C:3](=[C:4]([H:13])[H:14])[H:12])([C:7]([C:6](=[C:5]([H:15])[H:16])[H:18])([H:17])[H:19])[H:11])([H:8])([H:9])[H:10]"
C       -1.81005669       0.19349179       0.63266127
C       -1.06072347      -0.55067392      -0.44795561
C       -0.07857749       0.15497368      -1.33214560
C        0.48015610       1.41490555      -0.99168471
C        1.52398912       0.55386946       0.79469150
C        1.25693466      -0.84914059       0.82548522
C        0.19728126      -1.31728884      -0.13107474
H       -2.50960715       0.90276955       0.18599173
H       -2.34942240      -0.52120569       1.25794523
H       -1.16860176       0.76401450       1.30309435
H       -1.73326146      -1.16549384      -1.04511305
H        0.10124742      -0.23623512      -2.32788521
H        1.17017174       1.81364912      -1.73321685
H       -0.22147859       2.19568672      -0.69796822
H        2.55056297       0.83536568       1.01972955
H        0.84834753       1.19886132       1.34544856
H        0.21903844      -1.73377681       1.27282120
H        2.14244401      -1.48420939       0.82928336
H        0.44155574      -2.16956316      -0.76010797
