15
Frame=0 idx=009125 GeodesicLength=0.0 rxn_smarts="[C:1]([C:2](=[O:3])[C:4]1([O:5][H:11])[C:6]([H:12])([H:13])[C:7]1([H:14])[H:15])([H:8])([H:9])[H:10]>>[C:1]([C@@:2]12[O:3][C:6]([H:12])([H:13])[C@:4]1([O:5][H:11])[C:7]2([H:14])[H:15])([H:8])([H:9])[H:10]"
C        1.93590413       0.25665860      -0.67100597
C        0.60745701      -0.34715495      -0.44347102
O        0.13707358      -1.27707429      -1.13332547
C       -0.54035616       0.03777072       0.49917602
O       -0.18026100      -0.13874015       1.86136603
C       -1.43123928      -1.02055776      -0.08143077
C       -1.21613624       1.28119785       0.28085389
H        2.10382605       0.46424583      -1.72853378
H        2.02193955       1.17560907      -0.09077436
H        2.70168555      -0.45244363      -0.34653040
H        0.43910061      -0.87193836       1.93269429
H       -1.63393415      -1.92846292       0.47977196
H       -2.15941360      -0.73673420      -0.82777821
H       -1.86002664       1.40015848      -0.57611443
H       -0.92561941       2.15746565       0.84510228
15
Frame=1 idx=009125 GeodesicLength=0.09429466485383554 rxn_smarts="[C:1]([C:2](=[O:3])[C:4]1([O:5][H:11])[C:6]([H:12])([H:13])[C:7]1([H:14])[H:15])([H:8])([H:9])[H:10]>>[C:1]([C@@:2]12[O:3][C:6]([H:12])([H:13])[C@:4]1([O:5][H:11])[C:7]2([H:14])[H:15])([H:8])([H:9])[H:10]"
C        1.92178302       0.27819621      -0.68731569
C        0.60260352      -0.33602545      -0.43579966
O        0.15100249      -1.29756355      -1.10164867
C       -0.53236376       0.01280195       0.52760064
O       -0.17812497      -0.18375423       1.88375126
C       -1.44685593      -1.00309424      -0.08567506
C       -1.19062729       1.26135615       0.28549137
H        2.11953661       0.38502932      -1.75458331
H        1.97429829       1.25565556      -0.20748497
H        2.69684563      -0.37088941      -0.27216631
H        0.43849168      -0.92104304       1.93887255
H       -1.68453759      -1.90587945       0.47058290
H       -2.15477838      -0.71702579      -0.85064025
H       -1.79808863       1.41883919      -0.59152776
H       -0.91918469       2.12339676       0.88054296
15
Frame=2 idx=009125 GeodesicLength=0.18743484678858668 rxn_smarts="[C:1]([C:2](=[O:3])[C:4]1([O:5][H:11])[C:6]([H:12])([H:13])[C:7]1([H:14])[H:15])([H:8])([H:9])[H:10]>>[C:1]([C@@:2]12[O:3][C:6]([H:12])([H:13])[C@:4]1([O:5][H:11])[C:7]2([H:14])[H:15])([H:8])([H:9])[H:10]"
C        1.90754333       0.29866857      -0.70294942
C        0.59842673      -0.32634333      -0.42717785
O        0.16492273      -1.31657453      -1.07033947
C       -0.52429877      -0.01170993       0.55451028
O       -0.17680290      -0.22787842       1.90480817
C       -1.46102208      -0.98471352      -0.08974913
C       -1.16454153       1.24198527       0.28934821
H        2.13712763       0.30820688      -1.76911456
H        1.92545570       1.32160939      -0.32672166
H        2.68878311      -0.28165639      -0.20587637
H        0.43685325      -0.96896701       1.94474994
H       -1.73275798      -1.88145455       0.46121584
H       -2.14885919      -0.69759427      -0.87267574
H       -1.73798116       1.43651278      -0.60292516
H       -0.91284889       2.08990905       0.91289693
15
Frame=3 idx=009125 GeodesicLength=0.2797485441772737 rxn_smarts="[C:1]([C:2](=[O:3])[C:4]1([O:5][H:11])[C:6]([H:12])([H:13])[C:7]1([H:14])[H:15])([H:8])([H:9])[H:10]>>[C:1]([C@@:2]12[O:3][C:6]([H:12])([H:13])[C@:4]1([O:5][H:11])[C:7]2([H:14])[H:15])([H:8])([H:9])[H:10]"
C        1.89321694       0.31802671      -0.71811380
C        0.59483248      -0.31795270      -0.41799093
O        0.17836621      -1.33383152      -1.04030444
C       -0.51618604      -0.03587634       0.57996574
O       -0.17600985      -0.27155182       1.92446780
C       -1.47389636      -0.96547311      -0.09367895
C       -1.13794851       1.22307667       0.29297608
H        2.15821337       0.23305421      -1.77261622
H        1.87446893       1.37421948      -0.44921474
H        2.67687619      -0.18448379      -0.14594298
H        0.43468282      -1.01607087       1.94988034
H       -1.77855063      -1.85541928       0.45160696
H       -2.14227511      -0.67815090      -0.89347818
H       -1.67943315       1.45355129      -0.61057763
H       -0.90635729       2.05688196       0.94302095
15
Frame=4 idx=009125 GeodesicLength=0.37146461522527924 rxn_smarts="[C:1]([C:2](=[O:3])[C:4]1([O:5][H:11])[C:6]([H:12])([H:13])[C:7]1([H:14])[H:15])([H:8])([H:9])[H:10]>>[C:1]([C@@:2]12[O:3][C:6]([H:12])([H:13])[C@:4]1([O:5][H:11])[C:7]2([H:14])[H:15])([H:8])([H:9])[H:10]"
C        1.87881634       0.33651302      -0.73281502
C        0.59209173      -0.31081195      -0.40776303
O        0.19155486      -1.34946719      -1.01139279
C       -0.50810248      -0.05971340       0.60421358
O       -0.17611143      -0.31477733       1.94302535
C       -1.48544398      -0.94543107      -0.09745169
C       -1.11076974       1.20464309       0.29638670
H        2.18178440       0.16094007      -1.76564434
H        1.82255773       1.41341703      -0.57389463
H        2.66103757      -0.08032964      -0.09391692
H        0.43131720      -1.06263847       1.95469814
H       -1.82193304      -1.82795175       0.44170607
H       -2.13483515      -0.65871718      -0.91325705
H       -1.62239198       1.46995615      -0.61495221
H       -0.89957202       2.02436861       0.97105784
15
Frame=5 idx=009125 GeodesicLength=0.462820842891349 rxn_smarts="[C:1]([C:2](=[O:3])[C:4]1([O:5][H:11])[C:6]([H:12])([H:13])[C:7]1([H:14])[H:15])([H:8])([H:9])[H:10]>>[C:1]([C@@:2]12[O:3][C:6]([H:12])([H:13])[C@:4]1([O:5][H:11])[C:7]2([H:14])[H:15])([H:8])([H:9])[H:10]"
C        1.86430158       0.35410758      -0.74720298
C        0.59011171      -0.30483092      -0.39682608
O        0.20420613      -1.36350681      -0.98415435
C       -0.50004417      -0.08333818       0.62726404
O       -0.17686548      -0.35785143       1.96037233
C       -1.49579269      -0.92462032      -0.10104458
C       -1.08300354       1.18664347       0.29986956
H        2.20899245       0.09213046      -1.74810617
H        1.76918132       1.43897189      -0.70074637
H        2.64027219       0.03105843      -0.04925060
H        0.42718848      -1.10885209       1.95881639
H       -1.86300631      -1.79913816       0.43162118
H       -2.12696010      -0.63902773      -0.93174200
H       -1.56650984       1.48596259      -0.61627246
H       -0.89207174       1.99229123       0.99740207
15
Frame=6 idx=009125 GeodesicLength=0.5540541080124015 rxn_smarts="[C:1]([C:2](=[O:3])[C:4]1([O:5][H:11])[C:6]([H:12])([H:13])[C:7]1([H:14])[H:15])([H:8])([H:9])[H:10]>>[C:1]([C@@:2]12[O:3][C:6]([H:12])([H:13])[C@:4]1([O:5][H:11])[C:7]2([H:14])[H:15])([H:8])([H:9])[H:10]"
C        1.84964951       0.37109593      -0.76128863
C        0.58917718      -0.29991356      -0.38467570
O        0.21675030      -1.37623166      -0.95809482
C       -0.49208029      -0.10673340       0.64937282
O       -0.17865034      -0.40073502       1.97680820
C       -1.50485037      -0.90306199      -0.10448469
C       -1.05461109       1.16908609       0.30343128
H        2.23842620       0.02819624      -1.72069622
H        1.71560400       1.45076532      -0.82843391
H        2.61464051       0.14841561      -0.01388860
H        0.42160139      -1.15496097       1.96267082
H       -1.90187746      -1.76903212       0.42127321
H       -2.11823348      -0.61911553      -0.94930807
H       -1.51155861       1.50154334      -0.61493875
H       -0.88398745       1.96068171       1.02225307
15
Frame=7 idx=009125 GeodesicLength=0.6453185512277758 rxn_smarts="[C:1]([C:2](=[O:3])[C:4]1([O:5][H:11])[C:6]([H:12])([H:13])[C:7]1([H:14])[H:15])([H:8])([H:9])[H:10]>>[C:1]([C@@:2]12[O:3][C:6]([H:12])([H:13])[C@:4]1([O:5][H:11])[C:7]2([H:14])[H:15])([H:8])([H:9])[H:10]"
C        1.83482228       0.38736497      -0.77517982
C        0.58914901      -0.29599365      -0.37170068
O        0.22899421      -1.38777715      -0.93357291
C       -0.48420845      -0.12994912       0.67046890
O       -0.18122406      -0.44346154       1.99217393
C       -1.51271452      -0.88082932      -0.10770772
C       -1.02568916       1.15190905       0.30710850
H        2.27058946      -0.02955915      -1.68367936
H        1.66185781       1.44842083      -0.95539269
H        2.58310162       0.27085494       0.01204793
H        0.41511822      -1.20076344       1.96592057
H       -1.93861142      -1.73766768       0.41092413
H       -2.10903499      -0.59888745      -0.96569993
H       -1.45716757       1.51678141      -0.61132423
H       -0.87498243       1.92955731       1.04561338
15
Frame=8 idx=009125 GeodesicLength=0.7367375310698824 rxn_smarts="[C:1]([C:2](=[O:3])[C:4]1([O:5][H:11])[C:6]([H:12])([H:13])[C:7]1([H:14])[H:15])([H:8])([H:9])[H:10]>>[C:1]([C@@:2]12[O:3][C:6]([H:12])([H:13])[C@:4]1([O:5][H:11])[C:7]2([H:14])[H:15])([H:8])([H:9])[H:10]"
C        1.81982517       0.40316531      -0.78878044
C        0.59025326      -0.29283306      -0.35743703
O        0.24152534      -1.39841684      -0.90980989
C       -0.47653639      -0.15282180       0.69076351
O       -0.18499958      -0.48561913       2.00677869
C       -1.51920111      -0.85806260      -0.11070416
C       -0.99642333       1.13511791       0.31066957
H        2.30289355      -0.07883299      -1.63926021
H        1.60975154       1.43287932      -1.07840019
H        2.54658570       0.39488205       0.02650638
H        0.40710451      -1.24605555       1.96911908
H       -1.97313377      -1.70518692       0.40062127
H       -2.09880659      -0.57874641      -0.98132229
H       -1.40316652       1.53146398      -0.60608114
H       -0.86567178       1.89906672       1.06733685
15
Frame=9 idx=009125 GeodesicLength=0.8284597778814661 rxn_smarts="[C:1]([C:2](=[O:3])[C:4]1([O:5][H:11])[C:6]([H:12])([H:13])[C:7]1([H:14])[H:15])([H:8])([H:9])[H:10]>>[C:1]([C@@:2]12[O:3][C:6]([H:12])([H:13])[C@:4]1([O:5][H:11])[C:7]2([H:14])[H:15])([H:8])([H:9])[H:10]"
C        1.80464992       0.41835118      -0.80218410
C        0.59233181      -0.29035080      -0.34226622
O        0.25426746      -1.40832690      -0.88694576
C       -0.46907048      -0.17535699       0.71017543
O       -0.18977871      -0.52715623       2.02048496
C       -1.52441130      -0.83486041      -0.11346680
C       -0.96701758       1.11864690       0.31413300
H        2.33551034      -0.11883611      -1.58860865
H        1.55935003       1.40491777      -1.19580450
H        2.50455747       0.51896146       0.03009177
H        0.39806719      -1.29056850       1.97200537
H       -2.00554859      -1.67163034       0.39054284
H       -2.08785465      -0.55869705      -0.99604699
H       -1.34935165       1.54561894      -0.59946478
H       -0.85570125       1.86928707       1.08735442
15
Frame=10 idx=009125 GeodesicLength=0.9206746852173339 rxn_smarts="[C:1]([C:2](=[O:3])[C:4]1([O:5][H:11])[C:6]([H:12])([H:13])[C:7]1([H:14])[H:15])([H:8])([H:9])[H:10]>>[C:1]([C@@:2]12[O:3][C:6]([H:12])([H:13])[C@:4]1([O:5][H:11])[C:7]2([H:14])[H:15])([H:8])([H:9])[H:10]"
C        1.78925650       0.43313796      -0.81537118
C        0.59538005      -0.28815428      -0.32610418
O        0.26756150      -1.41752470      -0.86452921
C       -0.46186699      -0.19741583       0.72881961
O       -0.19564414      -0.56794496       2.03339018
C       -1.52826263      -0.81129801      -0.11602122
C       -0.93771842       1.10253720       0.31751595
H        2.36703076      -0.14931587      -1.53346627
H        1.51180062       1.36614166      -1.30636680
H        2.45779534       0.64072482       0.02267638
H        0.38786432      -1.33424498       1.97466720
H       -2.03579067      -1.63713593       0.38064660
H       -2.07589447      -0.53894092      -1.01011195
H       -1.29572092       1.55923054      -0.59168240
H       -0.84579085       1.84020331       1.10593730
15
Frame=11 idx=009125 GeodesicLength=1.013509129319437 rxn_smarts="[C:1]([C:2](=[O:3])[C:4]1([O:5][H:11])[C:6]([H:12])([H:13])[C:7]1([H:14])[H:15])([H:8])([H:9])[H:10]>>[C:1]([C@@:2]12[O:3][C:6]([H:12])([H:13])[C@:4]1([O:5][H:11])[C:7]2([H:14])[H:15])([H:8])([H:9])[H:10]"
C        1.77363767       0.44729678      -0.82845428
C        0.59921257      -0.28625647      -0.30934858
O        0.28127309      -1.42619569      -0.84270178
C       -0.45490656      -0.21903097       0.74658729
O       -0.20238127      -0.60796641       2.04534083
C       -1.53088467      -0.78746894      -0.11836263
C       -0.90866575       1.08673448       0.32079578
H        2.39778261      -0.17004794      -1.47491578
H        1.46708291       1.31773781      -1.40905912
H        2.40570649       0.75905281       0.00542443
H        0.37695174      -1.37689730       1.97686443
H       -2.06399690      -1.60174120       0.37110952
H       -2.06326553      -0.51944369      -1.02337569
H       -1.24210697       1.57233844      -0.58289635
H       -0.83543941       1.81188830       1.12299194
15
Frame=12 idx=009125 GeodesicLength=1.1068561635684877 rxn_smarts="[C:1]([C:2](=[O:3])[C:4]1([O:5][H:11])[C:6]([H:12])([H:13])[C:7]1([H:14])[H:15])([H:8])([H:9])[H:10]>>[C:1]([C@@:2]12[O:3][C:6]([H:12])([H:13])[C@:4]1([O:5][H:11])[C:7]2([H:14])[H:15])([H:8])([H:9])[H:10]"
C        1.75784040       0.46098512      -0.84130306
C        0.60376685      -0.28427515      -0.29197240
O        0.29568576      -1.43430821      -0.82105753
C       -0.44827077      -0.24001841       0.76354449
O       -0.21005714      -0.64691270       2.05642231
C       -1.53226339      -0.76354339      -0.12049513
C       -0.88019172       1.07128753       0.32384242
H        2.42610281      -0.18117272      -1.41533652
H        1.42617000       1.26215766      -1.50241251
H        2.35005013       0.87110444      -0.02104948
H        0.36533691      -1.41819584       1.97873885
H       -2.09008400      -1.56569583       0.36196480
H       -2.04983088      -0.50061600      -1.03602310
H       -1.18877083       1.58479763      -0.57341055
H       -0.82548412       1.78440586       1.13854741
15
Frame=13 idx=009125 GeodesicLength=1.2006915039454238 rxn_smarts="[C:1]([C:2](=[O:3])[C:4]1([O:5][H:11])[C:6]([H:12])([H:13])[C:7]1([H:14])[H:15])([H:8])([H:9])[H:10]>>[C:1]([C@@:2]12[O:3][C:6]([H:12])([H:13])[C@:4]1([O:5][H:11])[C:7]2([H:14])[H:15])([H:8])([H:9])[H:10]"
C        1.74190471       0.47401246      -0.85394138
C        0.60887273      -0.28223074      -0.27428911
O        0.31069043      -1.44201141      -0.79966372
C       -0.44195141      -0.26039085       0.77960127
O       -0.21851309      -0.68467984       2.06654926
C       -1.53253736      -0.73965028      -0.12241712
C       -0.85242049       1.05615974       0.32654716
H        2.45207435      -0.18312386      -1.35605965
H        1.38899824       1.20127538      -1.58588682
H        2.29089938       0.97581183      -0.05507373
H        0.35332555      -1.45795150       1.98020399
H       -2.11417208      -1.52911139       0.35337139
H       -2.03588979      -0.48254015      -1.04797219
H       -1.13579008       1.59656386      -0.56340465
H       -0.81549111       1.75786675       1.15243531
15
Frame=14 idx=009125 GeodesicLength=1.2949021190001904 rxn_smarts="[C:1]([C:2](=[O:3])[C:4]1([O:5][H:11])[C:6]([H:12])([H:13])[C:7]1([H:14])[H:15])([H:8])([H:9])[H:10]>>[C:1]([C@@:2]12[O:3][C:6]([H:12])([H:13])[C@:4]1([O:5][H:11])[C:7]2([H:14])[H:15])([H:8])([H:9])[H:10]"
C        1.72587518       0.48646922      -0.86628905
C        0.61440351      -0.27987063      -0.25640286
O        0.32633795      -1.44922053      -0.77841289
C       -0.43597938      -0.28006425       0.79477692
O       -0.22766620      -0.72119083       2.07571682
C       -1.53179686      -0.71588988      -0.12413665
C       -0.82553099       1.04139780       0.32887687
H        2.47506044      -0.17700360      -1.29833185
H        1.35586903       1.13702790      -1.65959064
H        2.22957834       1.07208745      -0.09533669
H        0.34112165      -1.49602171       1.98122044
H       -2.13630678      -1.49216350       0.34535389
H       -2.02152425      -0.46540273      -1.05928664
H       -1.08345723       1.60760010      -0.55297089
H       -0.80598442       1.73224516       1.16481323
15
Frame=15 idx=009125 GeodesicLength=1.3894278877729653 rxn_smarts="[C:1]([C:2](=[O:3])[C:4]1([O:5][H:11])[C:6]([H:12])([H:13])[C:7]1([H:14])[H:15])([H:8])([H:9])[H:10]>>[C:1]([C@@:2]12[O:3][C:6]([H:12])([H:13])[C@:4]1([O:5][H:11])[C:7]2([H:14])[H:15])([H:8])([H:9])[H:10]"
C        1.70982249       0.49822832      -0.87833737
C        0.62025302      -0.27725078      -0.23850843
O        0.34254144      -1.45604853      -0.75735319
C       -0.43033646      -0.29906802       0.80902484
O       -0.23740841      -0.75638282       2.08390242
C       -1.53017370      -0.69235533      -0.12566625
C       -0.79955125       1.02698080       0.33074213
H        2.49521871      -0.16366304      -1.24304115
H        1.32652184       1.07102135      -1.72376331
H        2.16638852       1.15960806      -0.14022750
H        0.32886514      -1.53234926       1.98179171
H       -2.15662604      -1.45495196       0.33799871
H       -2.00696606      -0.44924906      -1.06993672
H       -1.03193275       1.61787127      -0.54223069
H       -0.79661652       1.70760900       1.17560479
15
Frame=16 idx=009125 GeodesicLength=1.484212134630546 rxn_smarts="[C:1]([C:2](=[O:3])[C:4]1([O:5][H:11])[C:6]([H:12])([H:13])[C:7]1([H:14])[H:15])([H:8])([H:9])[H:10]>>[C:1]([C@@:2]12[O:3][C:6]([H:12])([H:13])[C@:4]1([O:5][H:11])[C:7]2([H:14])[H:15])([H:8])([H:9])[H:10]"
C        1.69376387       0.50939093      -0.89002660
C        0.62632766      -0.27421118      -0.22065516
O        0.35930056      -1.46239819      -0.73644341
C       -0.42502770      -0.31737600       0.82237894
O       -0.24765568      -0.79031077       2.09110121
C       -1.52775984      -0.66908314      -0.12702909
C       -0.77453879       1.01294494       0.33217094
H        2.51230745      -0.14435479      -1.19065937
H        1.30089223       1.00441149      -1.77922334
H        2.10234529       1.23835385      -0.18861202
H        0.31672662      -1.56693780       1.98186398
H       -2.17522433      -1.41757329       0.33127365
H       -1.99228301      -0.43413409      -1.07998378
H       -0.98145937       1.62740019      -0.53117780
H       -0.78771496       1.68387786       1.18502186
