10
Frame=0 idx=004100 GeodesicLength=0.0 rxn_smarts="[C:1]([c:2]1[c:3]([H:10])[n:4][n:5][o:6]1)([H:7])([H:8])[H:9]>>[C:1]([C:2]([C:3]1([H:10])[N:4]=[N:5]1)=[O:6])([H:7])([H:8])[H:9]"
C       -1.48097837      -0.18625665      -0.01558979
C        0.01278819      -0.51360004       0.04849611
C        0.68866443       0.71533447       0.30902632
N        2.59004631       0.35451913       0.63739267
N        2.59467018       0.16449071      -0.45313824
O        0.43136505      -1.64823083      -0.00323444
H       -1.96983225      -0.68902072       0.81792861
H       -1.86235591      -0.59346576      -0.95199989
H       -1.70580341       0.88084814       0.03655623
H        0.70143578       1.51538155      -0.42543758
10
Frame=1 idx=004100 GeodesicLength=0.11547330020005392 rxn_smarts="[C:1]([c:2]1[c:3]([H:10])[n:4][n:5][o:6]1)([H:7])([H:8])[H:9]>>[C:1]([C:2]([C:3]1([H:10])[N:4]=[N:5]1)=[O:6])([H:7])([H:8])[H:9]"
C       -1.47862025      -0.18773390      -0.01048324
C        0.01406516      -0.49985143       0.06773276
C        0.70594237       0.72590683       0.29288198
N        2.55885502       0.36955503       0.63644128
N        2.57096377       0.10749987      -0.44583802
O        0.45752768      -1.62702619      -0.00730933
H       -1.97142110      -0.71419264       0.80591771
H       -1.84697282      -0.57523616      -0.96050864
H       -1.71288152       0.87599058       0.06288118
H        0.70254169       1.52508800      -0.44171569
10
Frame=2 idx=004100 GeodesicLength=0.23100169503164425 rxn_smarts="[C:1]([c:2]1[c:3]([H:10])[n:4][n:5][o:6]1)([H:7])([H:8])[H:9]>>[C:1]([C:2]([C:3]1([H:10])[N:4]=[N:5]1)=[O:6])([H:7])([H:8])[H:9]"
C       -1.47605117      -0.18929810      -0.00588914
C        0.01537179      -0.48661304       0.08704760
C        0.72319025       0.73500818       0.27652156
N        2.52979290       0.38317596       0.63274240
N        2.54695808       0.05447160      -0.43812231
O        0.48138191      -1.60665997      -0.00795397
H       -1.97311838      -0.73899378       0.79240545
H       -1.83121813      -0.55627133      -0.96910147
H       -1.71956200       0.87055566       0.08874130
H        0.70325476       1.53462483      -0.45639141
10
Frame=3 idx=004100 GeodesicLength=0.34653656533864574 rxn_smarts="[C:1]([c:2]1[c:3]([H:10])[n:4][n:5][o:6]1)([H:7])([H:8])[H:9]>>[C:1]([C:2]([C:3]1([H:10])[N:4]=[N:5]1)=[O:6])([H:7])([H:8])[H:9]"
C       -1.47333859      -0.19095057      -0.00178309
C        0.01670306      -0.47364577       0.10577100
C        0.74034833       0.74276761       0.25976947
N        2.50259294       0.39541666       0.62700872
N        2.52289109       0.00498113      -0.43006547
O        0.50315950      -1.58714125      -0.00551577
H       -1.97453585      -0.76331831       0.77774405
H       -1.81553369      -0.53686519      -0.97748089
H       -1.72602295       0.86451742       0.11402869
H        0.70373616       1.54423827      -0.46947671
10
Frame=4 idx=004100 GeodesicLength=0.462108319148843 rxn_smarts="[C:1]([c:2]1[c:3]([H:10])[n:4][n:5][o:6]1)([H:7])([H:8])[H:9]>>[C:1]([C:2]([C:3]1([H:10])[N:4]=[N:5]1)=[O:6])([H:7])([H:8])[H:9]"
C       -1.47053431      -0.19267684       0.00186046
C        0.01809028      -0.46082120       0.12345781
C        0.75738104       0.74930390       0.24251336
N        2.47698130       0.40630859       0.61979831
N        2.49889073      -0.04133018      -0.42174479
O        0.52313552      -1.56853346      -0.00035044
H       -1.97540097      -0.78704312       0.76229637
H       -1.80025804      -0.51728690      -0.98548082
H       -1.73240174       0.85792396       0.13861253
H        0.70411620       1.55415524      -0.48096280
10
Frame=5 idx=004100 GeodesicLength=0.577691014687899 rxn_smarts="[C:1]([c:2]1[c:3]([H:10])[n:4][n:5][o:6]1)([H:7])([H:8])[H:9]>>[C:1]([C:2]([C:3]1([H:10])[N:4]=[N:5]1)=[O:6])([H:7])([H:8])[H:9]"
C       -1.46766551      -0.19447759       0.00507905
C        0.01949090      -0.44802285       0.13992851
C        0.77426654       0.75473081       0.22465168
N        2.45275583       0.41597381       0.61149502
N        2.47504132      -0.08482458      -0.41323196
O        0.54147269      -1.55081618       0.00723674
H       -1.97557586      -0.81015735       0.74625268
H       -1.78555759      -0.49768719      -0.99297990
H       -1.73874385       0.85078008       0.16245226
H        0.70451553       1.56450103      -0.49088408
10
Frame=6 idx=004100 GeodesicLength=0.6933130373307339 rxn_smarts="[C:1]([c:2]1[c:3]([H:10])[n:4][n:5][o:6]1)([H:7])([H:8])[H:9]>>[C:1]([C:2]([C:3]1([H:10])[N:4]=[N:5]1)=[O:6])([H:7])([H:8])[H:9]"
C       -1.46476471      -0.19634308       0.00790995
C        0.02091532      -0.43520966       0.15508351
C        0.79100692       0.75912145       0.20607753
N        2.42970902       0.42451407       0.60242015
N        2.45140023      -0.12577634      -0.40455749
O        0.55837140      -1.53396983       0.01690700
H       -1.97498698      -0.83259614       0.72984065
H       -1.77159033      -0.47822007      -0.99992042
H       -1.74510244       0.84312368       0.18549772
H        0.70504157       1.57535592      -0.49925860
10
Frame=7 idx=004100 GeodesicLength=0.8089438775659807 rxn_smarts="[C:1]([c:2]1[c:3]([H:10])[n:4][n:5][o:6]1)([H:7])([H:8])[H:9]>>[C:1]([C:2]([C:3]1([H:10])[N:4]=[N:5]1)=[O:6])([H:7])([H:8])[H:9]"
C       -1.46185246      -0.19826984       0.01039085
C        0.02233803      -0.42232206       0.16892195
C        0.80760080       0.76253881       0.18667342
N        2.40769336       0.43205400       0.59280616
N        2.42802967      -0.16447437      -0.39574419
O        0.57397296      -1.51792533       0.02838938
H       -1.97360706      -0.85436128       0.71319064
H       -1.75843671      -0.45897465      -1.00626689
H       -1.75150094       0.83497176       0.20774996
H        0.70576235       1.58676296      -0.50611128
10
Frame=8 idx=004100 GeodesicLength=0.9245699390325764 rxn_smarts="[C:1]([c:2]1[c:3]([H:10])[n:4][n:5][o:6]1)([H:7])([H:8])[H:9]>>[C:1]([C:2]([C:3]1([H:10])[N:4]=[N:5]1)=[O:6])([H:7])([H:8])[H:9]"
C       -1.45894615      -0.20025206       0.01255617
C        0.02375316      -0.40932719       0.18145309
C        0.82405644       0.76501663       0.16629834
N        2.38656099       0.43871867       0.58283693
N        2.40498446      -0.20116611      -0.38678331
O        0.58840841      -1.50261173       0.04143817
H       -1.97143277      -0.87544860       0.69643047
H       -1.74616790      -0.44002619      -1.01201044
H       -1.75795291       0.82635072       0.22922041
H        0.70673628       1.59874587      -0.51143983
10
Frame=9 idx=004100 GeodesicLength=1.0403048391705607 rxn_smarts="[C:1]([c:2]1[c:3]([H:10])[n:4][n:5][o:6]1)([H:7])([H:8])[H:9]>>[C:1]([C:2]([C:3]1([H:10])[N:4]=[N:5]1)=[O:6])([H:7])([H:8])[H:9]"
C       -1.45605696      -0.20228704       0.01443756
C        0.02518330      -0.39619338       0.19267673
C        0.84039499       0.76656828       0.14477271
N        2.36611979       0.44461389       0.57264971
N        2.38228201      -0.23607312      -0.37762109
O        0.60181154      -1.48794282       0.05582082
H       -1.96846846      -0.89584858       0.67970045
H       -1.73485149      -0.42145999      -1.01716335
H       -1.76445887       0.81728838       0.24992803
H        0.70804415       1.61133437      -0.51520158
10
Frame=10 idx=004100 GeodesicLength=1.1559872307969523 rxn_smarts="[C:1]([c:2]1[c:3]([H:10])[n:4][n:5][o:6]1)([H:7])([H:8])[H:9]>>[C:1]([C:2]([C:3]1([H:10])[N:4]=[N:5]1)=[O:6])([H:7])([H:8])[H:9]"
C       -1.45319117      -0.20436977       0.01605472
C        0.02659718      -0.38288641       0.20255354
C        0.85661682       0.76719205       0.12190415
N        2.34628433       0.44987273       0.56237899
N        2.36003082      -0.26944113      -0.36821185
O        0.61424732      -1.47383825       0.07136345
H       -1.96469685      -0.91556758       0.66310242
H       -1.72456511      -0.40334246      -1.02171032
H       -1.77099392       0.80781869       0.26986924
H        0.70967058       1.62456214      -0.51730435
10
Frame=11 idx=004100 GeodesicLength=1.2716628288195229 rxn_smarts="[C:1]([c:2]1[c:3]([H:10])[n:4][n:5][o:6]1)([H:7])([H:8])[H:9]>>[C:1]([C:2]([C:3]1([H:10])[N:4]=[N:5]1)=[O:6])([H:7])([H:8])[H:9]"
C       -1.45035262      -0.20649430       0.01742582
C        0.02801740      -0.36939286       0.21100350
C        0.87275107       0.76684793       0.09741973
N        2.32687085       0.45462825       0.55211171
N        2.33828865      -0.30146265      -0.35843104
O        0.62580645      -1.46021566       0.08788299
H       -1.96011441      -0.93458212       0.64677906
H       -1.71540138      -0.38575261      -1.02566169
H       -1.77751955       0.79798127       0.28905675
H        0.71165353       1.63844274      -0.51758683
10
Frame=12 idx=004100 GeodesicLength=1.3873268570904518 rxn_smarts="[C:1]([c:2]1[c:3]([H:10])[n:4][n:5][o:6]1)([H:7])([H:8])[H:9]>>[C:1]([C:2]([C:3]1([H:10])[N:4]=[N:5]1)=[O:6])([H:7])([H:8])[H:9]"
C       -1.44754411      -0.20864885       0.01856438
C        0.02946443      -0.35569933       0.21791715
C        0.88883239       0.76547074       0.07097429
N        2.30770056       0.45904461       0.54190759
N        2.31714653      -0.33232969      -0.34810824
O        0.63656211      -1.44699619       0.10522761
H       -1.95471770      -0.95287824       0.63085427
H       -1.70746166      -0.36874185      -1.02903235
H       -1.78397839       0.78782272       0.30752582
H        0.71399584       1.65295606      -0.51583053
10
Frame=13 idx=004100 GeodesicLength=1.5029837708752065 rxn_smarts="[C:1]([c:2]1[c:3]([H:10])[n:4][n:5][o:6]1)([H:7])([H:8])[H:9]>>[C:1]([C:2]([C:3]1([H:10])[N:4]=[N:5]1)=[O:6])([H:7])([H:8])[H:9]"
C       -1.44476543      -0.21081436       0.01947893
C        0.03097065      -0.34179516       0.22312513
C        0.90490902       0.76296290       0.04213311
N        2.28855992       0.46331839       0.53180431
N        2.29671579      -0.36221347      -0.33700311
O        0.64658117      -1.43410039       0.12325333
H       -1.94849420      -0.97043349       0.61545521
H       -1.70087280      -0.35234529      -1.03183777
H       -1.79028761       0.77740091       0.32533071
H        0.71668350       1.66801995      -0.51173985
10
Frame=14 idx=004100 GeodesicLength=1.6186082135005697 rxn_smarts="[C:1]([c:2]1[c:3]([H:10])[n:4][n:5][o:6]1)([H:7])([H:8])[H:9]>>[C:1]([C:2]([C:3]1([H:10])[N:4]=[N:5]1)=[O:6])([H:7])([H:8])[H:9]"
C       -1.44200987      -0.21296238       0.02017058
C        0.03256824      -0.32765512       0.22639851
C        0.92104053       0.75920704       0.01041150
N        2.26920891       0.46767337       0.52181921
N        2.27712499      -0.39125138      -0.32482817
O        0.65591672      -1.42143155       0.14181855
H       -1.94141777      -0.98721644       0.60070937
H       -1.69577625      -0.33658259      -1.03408597
H       -1.79633155       0.76678476       0.34252862
H        0.71967606       1.68343429      -0.50494220
10
Frame=15 idx=004100 GeodesicLength=1.7341910218025756 rxn_smarts="[C:1]([c:2]1[c:3]([H:10])[n:4][n:5][o:6]1)([H:7])([H:8])[H:9]>>[C:1]([C:2]([C:3]1([H:10])[N:4]=[N:5]1)=[O:6])([H:7])([H:8])[H:9]"
C       -1.43926640      -0.21504752       0.02063934
C        0.03429930      -0.31324581       0.22749408
C        0.93729291       0.75410148      -0.02456664
N        2.24938448       0.47236435       0.51195096
N        2.25846613      -0.41946685      -0.31129957
O        0.66462608      -1.40886269       0.16078936
H       -1.93346883      -1.00321376       0.58669072
H       -1.69229417      -0.32138258      -1.03579667
H       -1.80198342       0.75604256       0.35923803
H        0.72294392       1.69871083      -0.49513961
10
Frame=16 idx=004100 GeodesicLength=1.8497544383808695 rxn_smarts="[C:1]([c:2]1[c:3]([H:10])[n:4][n:5][o:6]1)([H:7])([H:8])[H:9]>>[C:1]([C:2]([C:3]1([H:10])[N:4]=[N:5]1)=[O:6])([H:7])([H:8])[H:9]"
C       -1.43652133      -0.21700610       0.02090588
C        0.03618910      -0.29852182       0.22630073
C        0.95369150       0.74767838      -0.06258521
N        2.22887643       0.47761678       0.50224007
N        2.24068580      -0.44663295      -0.29631567
O        0.67277905      -1.39619965       0.18002959
H       -1.92466338      -1.01851005       0.57327803
H       -1.69042705      -0.30643848      -1.03700668
H       -1.80715860       0.74518202       0.37575040
H        0.72654848       1.71283187      -0.48259715
