16
Frame=0 idx=011335 GeodesicLength=0.0 rxn_smarts="[C:1]([c:2]1[c:3]([C:4]([H:11])([H:12])[H:13])[c:5]([H:14])[c:6]([H:15])[n:7]1[H:16])([H:8])([H:9])[H:10]>>[C:1]([C:2]1=[N:7][C:6]([H:15])=[C:5]([H:14])[C:3]1=[C:4]([H:11])[H:12])([H:8])([H:9])[H:10].[H:13][H:16]"
C       -1.42467598       1.36782184      -0.58010929
C       -0.13856778       0.61922206      -0.60120674
C        0.01572551      -0.77819297      -0.63789171
C       -0.71285069      -1.29389297       0.46619908
C        1.45401651      -1.02767367      -0.52487635
C        1.96794595       0.12901266      -0.09666144
N        0.94958103       1.13761944       0.00124611
H       -2.21392124       0.81028362      -1.08403394
H       -1.30969464       2.33045913      -1.07853781
H       -1.73649372       1.57373263       0.45048985
H       -0.49915101      -2.29135752       0.83860631
H       -1.74125251      -0.98433322       0.62810428
H       -0.04646177      -0.45273671       1.41947264
H        1.94450930      -1.98609875      -0.60553305
H        2.97300957       0.37848521       0.20668039
H        0.51828143       0.46764921       1.19805170
16
Frame=1 idx=011335 GeodesicLength=0.09792967728693604 rxn_smarts="[C:1]([c:2]1[c:3]([C:4]([H:11])([H:12])[H:13])[c:5]([H:14])[c:6]([H:15])[n:7]1[H:16])([H:8])([H:9])[H:10]>>[C:1]([C:2]1=[N:7][C:6]([H:15])=[C:5]([H:14])[C:3]1=[C:4]([H:11])[H:12])([H:8])([H:9])[H:10].[H:13][H:16]"
C       -1.42093612       1.37117148      -0.58294650
C       -0.13559741       0.62043860      -0.59970567
C        0.01560837      -0.78020259      -0.62839804
C       -0.71608380      -1.30258981       0.47176125
C        1.45524920      -1.02495997      -0.52929732
C        1.97192369       0.13401960      -0.10643252
N        0.95154999       1.13600730       0.00583552
H       -2.21142014       0.80992829      -1.08086595
H       -1.30228523       2.33010013      -1.08761627
H       -1.73707574       1.58453998       0.44463227
H       -0.51081446      -2.31045672       0.82043579
H       -1.74847796      -0.99833372       0.61862558
H       -0.05668540      -0.45869063       1.44474099
H        1.94518499      -1.98477298      -0.59623587
H        2.98263063       0.38837470       0.17306304
H        0.51722938       0.48542635       1.23240370
16
Frame=2 idx=011335 GeodesicLength=0.19577926699744286 rxn_smarts="[C:1]([c:2]1[c:3]([C:4]([H:11])([H:12])[H:13])[c:5]([H:14])[c:6]([H:15])[n:7]1[H:16])([H:8])([H:9])[H:10]>>[C:1]([C:2]1=[N:7][C:6]([H:15])=[C:5]([H:14])[C:3]1=[C:4]([H:11])[H:12])([H:8])([H:9])[H:10].[H:13][H:16]"
C       -1.41706745       1.37444938      -0.58577308
C       -0.13252480       0.62157150      -0.59834938
C        0.01557054      -0.78228377      -0.61874880
C       -0.71921186      -1.31147326       0.47741438
C        1.45646150      -1.02234355      -0.53392714
C        1.97591652       0.13902520      -0.11673970
N        0.95353795       1.13410537       0.01065531
H       -2.20887355       0.80952548      -1.07747852
H       -1.29475047       2.32956339      -1.09675779
H       -1.73737299       1.59543939       0.43871790
H       -0.52255965      -2.32927931       0.80171862
H       -1.75536255      -1.01246019       0.60906796
H       -0.06734006      -0.46472592       1.47038800
H        1.94596155      -1.98331930      -0.58690578
H        2.99157895       0.39812870       0.13934917
H        0.51603638       0.50407690       1.26736886
16
Frame=3 idx=011335 GeodesicLength=0.2935537612625453 rxn_smarts="[C:1]([c:2]1[c:3]([C:4]([H:11])([H:12])[H:13])[c:5]([H:14])[c:6]([H:15])[n:7]1[H:16])([H:8])([H:9])[H:10]>>[C:1]([C:2]1=[N:7][C:6]([H:15])=[C:5]([H:14])[C:3]1=[C:4]([H:11])[H:12])([H:8])([H:9])[H:10].[H:13][H:16]"
C       -1.41306206       1.37765155      -0.58858681
C       -0.12934449       0.62261203      -0.59714173
C        0.01561710      -0.78444324      -0.60894723
C       -0.72223455      -1.32056426       0.48314384
C        1.45765028      -1.01983694      -0.53878329
C        1.97991083       0.14402558      -0.12763199
N        0.95554561       1.13187737       0.01573109
H       -2.20627342       0.80907933      -1.07387081
H       -1.28707679       2.32884606      -1.10595025
H       -1.73737812       1.60642086       0.43274778
H       -0.53437082      -2.34779881       0.78246420
H       -1.76189307      -1.02671179       0.59944009
H       -0.07846978      -0.47086279       1.49641732
H        1.94684080      -1.98173301      -0.57756224
H        2.99987422       0.40774754       0.10555163
H        0.51466426       0.52369051       1.30297840
16
Frame=4 idx=011335 GeodesicLength=0.39127719423848484 rxn_smarts="[C:1]([c:2]1[c:3]([C:4]([H:11])([H:12])[H:13])[c:5]([H:14])[c:6]([H:15])[n:7]1[H:16])([H:8])([H:9])[H:10]>>[C:1]([C:2]1=[N:7][C:6]([H:15])=[C:5]([H:14])[C:3]1=[C:4]([H:11])[H:12])([H:8])([H:9])[H:10].[H:13][H:16]"
C       -1.40891482       1.38077386      -0.59138340
C       -0.12605452       0.62354902      -0.59609015
C        0.01575070      -0.78669038      -0.59900154
C       -0.72515178      -1.32988509       0.48893107
C        1.45881058      -1.01745403      -0.54388507
C        1.98389156       0.14901824      -0.13916947
N        0.95757616       1.12928673       0.02107205
H       -2.20361731       0.80859356      -1.07003519
H       -1.27925580       2.32794551      -1.11518128
H       -1.73707965       1.61747553       0.42672669
H       -0.54622654      -2.36598777       0.76268918
H       -1.76805575      -1.04108712       0.58975398
H       -0.09011876      -0.47713298       1.52283034
H        1.94782723      -1.98000602      -0.56823836
H        3.00752924       0.41721658       0.07172941
H        0.51308948       0.54438435       1.33925176
16
Frame=5 idx=011335 GeodesicLength=0.4889649545497798 rxn_smarts="[C:1]([c:2]1[c:3]([C:4]([H:11])([H:12])[H:13])[c:5]([H:14])[c:6]([H:15])[n:7]1[H:16])([H:8])([H:9])[H:10]>>[C:1]([C:2]1=[N:7][C:6]([H:15])=[C:5]([H:14])[C:3]1=[C:4]([H:11])[H:12])([H:8])([H:9])[H:10].[H:13][H:16]"
C       -1.40462291       1.38381241      -0.59415683
C       -0.12265522       0.62437181      -0.59520405
C        0.01597284      -0.78903329      -0.58892356
C       -0.72795620      -1.33945757       0.49475810
C        1.45993536      -1.01520761      -0.54927090
C        1.98784682       0.15400399      -0.15143517
N        0.95963802       1.12629654       0.02667140
H       -2.20090672       0.80807044      -1.06595730
H       -1.27128370       2.32685915      -1.12443855
H       -1.73646409       1.62859622       0.42066259
H       -0.55808719      -2.38381990       0.74242303
H       -1.77383251      -1.05558383       0.58003249
H       -0.10232302      -0.48356150       1.54962261
H        1.94892524      -1.97812892      -0.55898918
H        3.01453593       0.42648786       0.03801217
H        0.51127735       0.56629422       1.37619314
16
Frame=6 idx=011335 GeodesicLength=0.5866417149845825 rxn_smarts="[C:1]([c:2]1[c:3]([C:4]([H:11])([H:12])[H:13])[c:5]([H:14])[c:6]([H:15])[n:7]1[H:16])([H:8])([H:9])[H:10]>>[C:1]([C:2]1=[N:7][C:6]([H:15])=[C:5]([H:14])[C:3]1=[C:4]([H:11])[H:12])([H:8])([H:9])[H:10].[H:13][H:16]"
C       -1.40017730       1.38676559      -0.59689985
C       -0.11914280       0.62506928      -0.59447842
C        0.01628789      -0.79148162      -0.57872018
C       -0.73065178      -1.34931062       0.50059834
C        1.46101853      -1.01311239      -0.55496124
C        1.99175299       0.15897549      -0.16448186
N        0.96173749       1.12286202       0.03255118
H       -2.19813247       0.80751937      -1.06163429
H       -1.26314221       2.32558752      -1.13370317
H       -1.73552330       1.63977429       0.41456203
H       -0.56992274      -2.40127757       0.72169143
H       -1.77921875      -1.07020273       0.57028102
H       -0.11513980      -0.49019052       1.57679592
H        1.95014283      -1.97610287      -0.54984394
H        3.02093392       0.43556314       0.00441417
H        0.50917751       0.58956164       1.41382886
16
Frame=7 idx=011335 GeodesicLength=0.6843149043610928 rxn_smarts="[C:1]([c:2]1[c:3]([C:4]([H:11])([H:12])[H:13])[c:5]([H:14])[c:6]([H:15])[n:7]1[H:16])([H:8])([H:9])[H:10]>>[C:1]([C:2]1=[N:7][C:6]([H:15])=[C:5]([H:14])[C:3]1=[C:4]([H:11])[H:12])([H:8])([H:9])[H:10].[H:13][H:16]"
C       -1.39557025       1.38963149      -0.59960328
C       -0.11551581       0.62562939      -0.59390767
C        0.01669917      -0.79404624      -0.56840046
C       -0.73323488      -1.35947160       0.50642966
C        1.46205340      -1.01118216      -0.56098587
C        1.99558773       0.16393175      -0.17838958
N        0.96388779       1.11893566       0.03871914
H       -2.19528817       0.80694814      -1.05705736
H       -1.25481521       2.32413133      -1.14295504
H       -1.73424641       1.65100289       0.40843407
H       -0.58168896      -2.41834595       0.70053372
H       -1.78420596      -1.08494615       0.56051481
H       -0.12861993      -0.49705672       1.60434773
H        1.95148744      -1.97392091      -0.54086487
H        3.02673893       0.44440899      -0.02897691
H        0.50673112       0.61435009       1.45216192
16
Frame=8 idx=011335 GeodesicLength=0.7820196245529963 rxn_smarts="[C:1]([c:2]1[c:3]([C:4]([H:11])([H:12])[H:13])[c:5]([H:14])[c:6]([H:15])[n:7]1[H:16])([H:8])([H:9])[H:10]>>[C:1]([C:2]1=[N:7][C:6]([H:15])=[C:5]([H:14])[C:3]1=[C:4]([H:11])[H:12])([H:8])([H:9])[H:10].[H:13][H:16]"
C       -1.39079335       1.39240903      -0.60225119
C       -0.11177369       0.62603793      -0.59347602
C        0.01721055      -0.79674039      -0.55797352
C       -0.73571018      -1.36997523       0.51221968
C        1.46303227      -1.00943391      -0.56736701
C        1.99932181       0.16886415      -0.19320863
N        0.96610504       1.11446689       0.04518392
H       -2.19236592       0.80636774      -1.05221527
H       -1.24628312       2.32249284      -1.15216560
H       -1.73262305       1.66227283       0.40229491
H       -0.59335182      -2.43502537       0.67897445
H       -1.78879564      -1.09982227       0.55073569
H       -0.14283002      -0.50422628       1.63227918
H        1.95297136      -1.97158356      -0.53209281
H        3.03198848       0.45301109      -0.06211945
H        0.50389728       0.64088449       1.49118165
16
Frame=9 idx=011335 GeodesicLength=0.8798536094009307 rxn_smarts="[C:1]([c:2]1[c:3]([C:4]([H:11])([H:12])[H:13])[c:5]([H:14])[c:6]([H:15])[n:7]1[H:16])([H:8])([H:9])[H:10]>>[C:1]([C:2]1=[N:7][C:6]([H:15])=[C:5]([H:14])[C:3]1=[C:4]([H:11])[H:12])([H:8])([H:9])[H:10].[H:13][H:16]"
C       -1.38583474       1.39510391      -0.60480759
C       -0.10791790       0.62628516      -0.59309849
C        0.01783200      -0.79957468      -0.54743435
C       -0.73807172      -1.38087552       0.51792976
C        1.46394653      -1.00786586      -0.57417333
C        2.00293284       0.17378969      -0.20904940
N        0.96842120       1.10935737       0.05200319
H       -2.18933823       0.80579867      -1.04710714
H       -1.23749478       2.32069022      -1.16126647
H       -1.73067294       1.67356668       0.39617338
H       -0.60483716      -2.45138780       0.65701771
H       -1.79298603      -1.11486656       0.54094650
H       -0.15783440      -0.51191901       1.66061609
H        1.95461333      -1.96909238      -0.52356740
H        3.03660264       0.46120879      -0.09488480
H        0.50063934       0.66978133       1.53070236
16
Frame=10 idx=011335 GeodesicLength=0.9777138465272824 rxn_smarts="[C:1]([c:2]1[c:3]([C:4]([H:11])([H:12])[H:13])[c:5]([H:14])[c:6]([H:15])[n:7]1[H:16])([H:8])([H:9])[H:10]>>[C:1]([C:2]1=[N:7][C:6]([H:15])=[C:5]([H:14])[C:3]1=[C:4]([H:11])[H:12])([H:8])([H:9])[H:10].[H:13][H:16]"
C       -1.38068354       1.39770942      -0.60726848
C       -0.10394376       0.62635297      -0.59280678
C        0.01856317      -0.80256968      -0.53680239
C       -0.74032756      -1.39218995       0.52353926
C        1.46478633      -1.00650631      -0.58139050
C        2.00637248       0.17867814      -0.22588042
N        0.97084373       1.10358425       0.05915001
H       -2.18620939       0.80524230      -1.04170659
H       -1.22844805       2.31871129      -1.17025890
H       -1.72835495       1.68488592       0.39007986
H       -0.61613515      -2.46737653       0.63471141
H       -1.79677912      -1.13007293       0.53114210
H       -0.17371060      -0.52006114       1.68933221
H        1.95641860      -1.96643663      -0.51536198
H        3.04071238       0.46909999      -0.12731487
H        0.49689544       0.70094889       1.57083607
16
Frame=11 idx=011335 GeodesicLength=1.0755866249949904 rxn_smarts="[C:1]([c:2]1[c:3]([C:4]([H:11])([H:12])[H:13])[c:5]([H:14])[c:6]([H:15])[n:7]1[H:16])([H:8])([H:9])[H:10]>>[C:1]([C:2]1=[N:7][C:6]([H:15])=[C:5]([H:14])[C:3]1=[C:4]([H:11])[H:12])([H:8])([H:9])[H:10].[H:13][H:16]"
C       -1.37532776       1.40022559      -0.60961036
C       -0.09984884       0.62622772      -0.59257421
C        0.01940834      -0.80574161      -0.52608761
C       -0.74247644      -1.40395105       0.52901815
C        1.46554215      -1.00536857      -0.58904708
C        2.00960719       0.18351213      -0.24370741
N        0.97339615       1.09709398       0.06662824
H       -2.18296897       0.80470956      -1.03599245
H       -1.21911917       2.31656001      -1.17910820
H       -1.72565311       1.69622476       0.38403860
H       -0.62719235      -2.48300956       0.61208963
H       -1.80017790      -1.14546124       0.52131505
H       -0.19053717      -0.52871397       1.71842170
H        1.95839865      -1.96361504      -0.50756104
H        3.04433345       0.47664875      -0.15936275
H        0.49261577       0.73465856       1.61153972
16
Frame=12 idx=011335 GeodesicLength=1.1734786858185255 rxn_smarts="[C:1]([c:2]1[c:3]([C:4]([H:11])([H:12])[H:13])[c:5]([H:14])[c:6]([H:15])[n:7]1[H:16])([H:8])([H:9])[H:10]>>[C:1]([C:2]1=[N:7][C:6]([H:15])=[C:5]([H:14])[C:3]1=[C:4]([H:11])[H:12])([H:8])([H:9])[H:10].[H:13][H:16]"
C       -1.36975244       1.40265234      -0.61180225
C       -0.09563051       0.62589383      -0.59235664
C        0.02037417      -0.80911031      -0.51529597
C       -0.74452008      -1.41620014       0.53433139
C        1.46620423      -1.00446488      -0.59716940
C        2.01259512       0.18827209      -0.26251738
N        0.97610765       1.08982309       0.07445115
H       -2.17960225       0.80421255      -1.02993997
H       -1.20947528       2.31423849      -1.18777108
H       -1.72255257       1.70757711       0.37808021
H       -0.63796174      -2.49832041       0.58917077
H       -1.80318826      -1.16105903       0.51144947
H       -0.20840813      -0.53796769       1.74788226
H        1.96056355      -1.96063253      -0.50025001
H        3.04749305       0.48382504      -0.19100806
H        0.48775349       0.77126047       1.65274550
16
Frame=13 idx=011335 GeodesicLength=1.2713492945074727 rxn_smarts="[C:1]([c:2]1[c:3]([C:4]([H:11])([H:12])[H:13])[c:5]([H:14])[c:6]([H:15])[n:7]1[H:16])([H:8])([H:9])[H:10]>>[C:1]([C:2]1=[N:7][C:6]([H:15])=[C:5]([H:14])[C:3]1=[C:4]([H:11])[H:12])([H:8])([H:9])[H:10].[H:13][H:16]"
C       -1.36394136       1.40498849      -0.61381198
C       -0.09128287       0.62533723      -0.59210944
C        0.02146893      -0.81269544      -0.50443367
C       -0.74645540      -1.42897562       0.53944770
C        1.46676278      -1.00380500      -0.60578646
C        2.01530111       0.19293015      -0.28225226
N        0.97900739       1.08171642       0.08262998
H       -2.17609310       0.80376032      -1.02352157
H       -1.19948700       2.31174836      -1.19620502
H       -1.71903674       1.71893686       0.37223660
H       -0.64839035      -2.51334189       0.56597813
H       -1.80581373      -1.17689514       0.50152928
H       -0.22741858      -0.54788445       1.77770636
H        1.96291864      -1.95749553      -0.49354441
H        3.05019734       0.49059586      -0.22223244
H        0.48226296       0.81107937       1.69436920
16
Frame=14 idx=011335 GeodesicLength=1.3692034910999107 rxn_smarts="[C:1]([c:2]1[c:3]([C:4]([H:11])([H:12])[H:13])[c:5]([H:14])[c:6]([H:15])[n:7]1[H:16])([H:8])([H:9])[H:10]>>[C:1]([C:2]1=[N:7][C:6]([H:15])=[C:5]([H:14])[C:3]1=[C:4]([H:11])[H:12])([H:8])([H:9])[H:10].[H:13][H:16]"
C       -1.35787734       1.40723098      -0.61559528
C       -0.08680171       0.62453975      -0.59176811
C        0.02270023      -0.81652271      -0.49350354
C       -0.74828523      -1.44232655       0.54432990
C        1.46720673      -1.00340024      -0.61491977
C        2.01768399       0.19745053      -0.30282337
N        0.98212922       1.07271301       0.09118346
H       -2.17242323       0.80336205      -1.01670346
H       -1.18911909       2.30908938      -1.20435325
H       -1.71509050       1.73029373       0.36655086
H       -0.65844057      -2.52812282       0.54250678
H       -1.80806298      -1.19301051       0.49152305
H       -0.24769245      -0.55857664       1.80788890
H        1.96546965      -1.95422749      -0.48755981
H        3.05247878       0.49694550      -0.25304759
H        0.47612450       0.85456205       1.73629125
16
Frame=15 idx=011335 GeodesicLength=1.4670129698069423 rxn_smarts="[C:1]([c:2]1[c:3]([C:4]([H:11])([H:12])[H:13])[c:5]([H:14])[c:6]([H:15])[n:7]1[H:16])([H:8])([H:9])[H:10]>>[C:1]([C:2]1=[N:7][C:6]([H:15])=[C:5]([H:14])[C:3]1=[C:4]([H:11])[H:12])([H:8])([H:9])[H:10].[H:13][H:16]"
C       -1.35154274       1.40937492      -0.61710443
C       -0.08218030       0.62348453      -0.59126382
C        0.02407733      -0.82061824      -0.48250707
C       -0.75001088      -1.45630345       0.54893907
C        1.46752343      -1.00325842      -0.62459440
C        2.01971211       0.20178946      -0.32408826
N        0.98550375       1.06275978       0.10013544
H       -2.16857274       0.80302423      -1.00944959
H       -1.17833882       2.30626167      -1.21215394
H       -1.71070044       1.74163354       0.36107011
H       -0.66807226      -2.54271685       0.51874826
H       -1.80994483      -1.20944831       0.48139600
H       -0.26935610      -0.57014876       1.83841968
H        1.96821514      -1.95086057      -0.48243552
H        3.05434701       0.50285880      -0.28346748
H        0.46934035       0.90216768       1.77835594
16
Frame=16 idx=011335 GeodesicLength=1.5647556622790715 rxn_smarts="[C:1]([c:2]1[c:3]([C:4]([H:11])([H:12])[H:13])[c:5]([H:14])[c:6]([H:15])[n:7]1[H:16])([H:8])([H:9])[H:10]>>[C:1]([C:2]1=[N:7][C:6]([H:15])=[C:5]([H:14])[C:3]1=[C:4]([H:11])[H:12])([H:8])([H:9])[H:10].[H:13][H:16]"
C       -1.34491814       1.41141309      -0.61828514
C       -0.07740922       0.62215439      -0.59051616
C        0.02561204      -0.82501064      -0.47144144
C       -0.75163435      -1.47096074       0.55323548
C        1.46770109      -1.00338409      -0.63482782
C        2.02136042       0.20589973      -0.34586614
N        0.98916090       1.05180596       0.10951946
H       -2.16451803       0.80274977      -1.00172106
H       -1.16711119       2.30326189      -1.21954044
H       -1.70585474       1.75293878       0.35584714
H       -0.67725327      -2.55718276       0.49467771
H       -1.81146679      -1.22625647       0.47110553
H       -0.29255198      -0.58272092       1.86928693
H        1.97114494      -1.94743821      -0.47832837
H        3.05580254       0.50833182      -0.31352531
H        0.46193579       0.95439842       1.82037962
