11
Frame=0 idx=010843 GeodesicLength=0.0 rxn_smarts="[C:1](#[C:2][C@@:3]1([H:9])[N:4]([H:10])[C@:5]1([C:6]#[N:7])[H:11])[H:8]>>[C:1](#[C:2]/[C:3](=[N:4]/[C:5]([C:6]#[N:7])([H:10])[H:11])[H:9])[H:8]"
C        0.90574504       2.18324402      -0.55819414
C        0.57026351       1.04315739      -0.69224227
C        0.17371287      -0.34281915      -0.93066295
N        0.93038419      -1.38737997      -0.54180196
C       -0.55084274      -1.05864541       0.34980261
C       -0.54560038      -0.23579953       1.54172136
N       -0.58296667       0.37373983       2.51141744
H        1.21226250       3.19383946      -0.42020906
H       -0.48711623      -0.42725321      -1.80719548
H       -0.08029373      -2.04359278       0.56901436
H       -1.54554833      -1.29849067      -0.02164996
11
Frame=1 idx=010843 GeodesicLength=0.1045426799291548 rxn_smarts="[C:1](#[C:2][C@@:3]1([H:9])[N:4]([H:10])[C@:5]1([C:6]#[N:7])[H:11])[H:8]>>[C:1](#[C:2]/[C:3](=[N:4]/[C:5]([C:6]#[N:7])([H:10])[H:11])[H:9])[H:8]"
C        0.91808646       2.19968456      -0.57495789
C        0.55903997       1.06476399      -0.69170264
C        0.16027295      -0.31902551      -0.92904994
N        0.91423785      -1.36200029      -0.53140734
C       -0.54989709      -1.06806847       0.35429228
C       -0.57046271      -0.25742170       1.55464702
N       -0.62750240       0.33047492       2.53669959
H        1.27521151       3.19813061      -0.47410347
H       -0.50384457      -0.40868576      -1.80154113
H       -0.03703202      -2.04906508       0.57780766
H       -1.53810995      -1.32878726      -0.02068415
11
Frame=2 idx=010843 GeodesicLength=0.20809951468768226 rxn_smarts="[C:1](#[C:2][C@@:3]1([H:9])[N:4]([H:10])[C@:5]1([C:6]#[N:7])[H:11])[H:8]>>[C:1](#[C:2]/[C:3](=[N:4]/[C:5]([C:6]#[N:7])([H:10])[H:11])[H:9])[H:8]"
C        0.92777234       2.21676938      -0.59484532
C        0.54750218       1.08677963      -0.69218289
C        0.14625663      -0.29502588      -0.92716849
N        0.89814880      -1.33593160      -0.52078741
C       -0.54896923      -1.07697338       0.35885536
C       -0.59542729      -0.27914130       1.56731009
N       -0.67157161       0.28789103       2.56030901
H        1.33926671       3.19675783      -0.52312968
H       -0.52100558      -0.39052106      -1.79561589
H        0.00797236      -2.05177851       0.58729766
H       -1.52994532      -1.35882613      -0.02004244
11
Frame=3 idx=010843 GeodesicLength=0.310512429271731 rxn_smarts="[C:1](#[C:2][C@@:3]1([H:9])[N:4]([H:10])[C@:5]1([C:6]#[N:7])[H:11])[H:8]>>[C:1](#[C:2]/[C:3](=[N:4]/[C:5]([C:6]#[N:7])([H:10])[H:11])[H:9])[H:8]"
C        0.94181761       2.23164560      -0.61171468
C        0.53963668       1.10778119      -0.69280756
C        0.13295303      -0.27132994      -0.92469988
N        0.88109635      -1.31146925      -0.50989395
C       -0.54880638      -1.08511588       0.36323388
C       -0.61979566      -0.30110648       1.57977529
N       -0.71373101       0.24463486       2.58316379
H        1.39459516       3.19510835      -0.57412002
H       -0.53722077      -0.37150341      -1.78937051
H        0.05181873      -2.05268656       0.59679696
H       -1.52236373      -1.38595848      -0.02036333
11
Frame=4 idx=010843 GeodesicLength=0.41199400381851226 rxn_smarts="[C:1](#[C:2][C@@:3]1([H:9])[N:4]([H:10])[C@:5]1([C:6]#[N:7])[H:11])[H:8]>>[C:1](#[C:2]/[C:3](=[N:4]/[C:5]([C:6]#[N:7])([H:10])[H:11])[H:9])[H:8]"
C        0.95476938       2.24579155      -0.63343345
C        0.53251179       1.12796589      -0.69687988
C        0.11921368      -0.24855897      -0.92290818
N        0.86366650      -1.28757627      -0.49899029
C       -0.54874919      -1.09243274       0.36768016
C       -0.64325470      -0.32177619       1.59138457
N       -0.75386014       0.20352911       2.60398060
H        1.44766380       3.18996659      -0.61431035
H       -0.55401409      -0.35435801      -1.78354399
H        0.09667028      -2.05058586       0.60740229
H       -1.51461731      -1.41196509      -0.02038149
11
Frame=5 idx=010843 GeodesicLength=0.5127972132319152 rxn_smarts="[C:1](#[C:2][C@@:3]1([H:9])[N:4]([H:10])[C@:5]1([C:6]#[N:7])[H:11])[H:8]>>[C:1](#[C:2]/[C:3](=[N:4]/[C:5]([C:6]#[N:7])([H:10])[H:11])[H:9])[H:8]"
C        0.96939396       2.25863603      -0.65565060
C        0.52796067       1.14717815      -0.70165968
C        0.10583668      -0.22622601      -0.92071988
N        0.84558457      -1.26482295      -0.48774818
C       -0.54936497      -1.09934113       0.37208711
C       -0.66632545      -0.34279649       1.60287730
N       -0.79243527       0.16231888       2.62394232
H        1.49591331       3.18474481      -0.65290304
H       -0.57026362      -0.33711397      -1.77748705
H        0.14110233      -2.04653383       0.61823328
H       -1.50740221      -1.43604349      -0.02097157
11
Frame=6 idx=010843 GeodesicLength=0.6130978803781256 rxn_smarts="[C:1](#[C:2][C@@:3]1([H:9])[N:4]([H:10])[C@:5]1([C:6]#[N:7])[H:11])[H:8]>>[C:1](#[C:2]/[C:3](=[N:4]/[C:5]([C:6]#[N:7])([H:10])[H:11])[H:9])[H:8]"
C        0.98582671       2.27038926      -0.67719489
C        0.52606710       1.16561093      -0.70626648
C        0.09299478      -0.20402447      -0.91771725
N        0.82694828      -1.24301244      -0.47590684
C       -0.55081016      -1.10603857       0.37645484
C       -0.68937400      -0.36475808       1.61449697
N       -0.82994030       0.11986749       2.64361885
H        1.53989572       3.18021303      -0.69314287
H       -0.58560459      -0.31924261      -1.77097931
H        0.18489896      -2.04080809       0.62904746
H       -1.50090249      -1.45819644      -0.02241047
11
Frame=7 idx=010843 GeodesicLength=0.7129278151451377 rxn_smarts="[C:1](#[C:2][C@@:3]1([H:9])[N:4]([H:10])[C@:5]1([C:6]#[N:7])[H:11])[H:8]>>[C:1](#[C:2]/[C:3](=[N:4]/[C:5]([C:6]#[N:7])([H:10])[H:11])[H:9])[H:8]"
C        1.00464813       2.28093124      -0.69699245
C        0.52742960       1.18309441      -0.71013029
C        0.08096375      -0.18189683      -0.91364644
N        0.80771083      -1.22236262      -0.46335787
C       -0.55324597      -1.11267266       0.38075179
C       -0.71247916      -0.38805622       1.62636214
N       -0.86649917       0.07587903       2.66311182
H        1.57896467       3.17739878      -0.73706222
H       -0.59974859      -0.30032116      -1.76384773
H        0.22766530      -2.03376523       0.63970231
H       -1.49540939      -1.47822872      -0.02489106
11
Frame=8 idx=010843 GeodesicLength=0.8121485388470725 rxn_smarts="[C:1](#[C:2][C@@:3]1([H:9])[N:4]([H:10])[C@:5]1([C:6]#[N:7])[H:11])[H:8]>>[C:1](#[C:2]/[C:3](=[N:4]/[C:5]([C:6]#[N:7])([H:10])[H:11])[H:9])[H:8]"
C        1.02500911       2.29013916      -0.71613083
C        0.53163807       1.19923655      -0.71481739
C        0.06948396      -0.16031594      -0.90915093
N        0.78785130      -1.20299219      -0.45037299
C       -0.55654781      -1.11918361       0.38498470
C       -0.73528996      -0.41191693       1.63809431
N       -0.90132023       0.03190926       2.68181631
H        1.61351570       3.17595301      -0.78045528
H       -0.61312632      -0.28139077      -1.75653637
H        0.26974798      -2.02508280       0.65050801
H       -1.49096181      -1.49635576      -0.02793954
11
Frame=9 idx=010843 GeodesicLength=0.9108608269348858 rxn_smarts="[C:1](#[C:2][C@@:3]1([H:9])[N:4]([H:10])[C@:5]1([C:6]#[N:7])[H:11])[H:8]>>[C:1](#[C:2]/[C:3](=[N:4]/[C:5]([C:6]#[N:7])([H:10])[H:11])[H:9])[H:8]"
C        1.04603536       2.29832402      -0.73556206
C        0.53734948       1.21444951      -0.72076140
C        0.05801628      -0.13908500      -0.90438800
N        0.76753917      -1.18420471      -0.43713266
C       -0.56048317      -1.12570789       0.38919924
C       -0.75794917      -0.43641061       1.64966706
N       -0.93489463      -0.01174568       2.69959330
H        1.64581982       3.17466798      -0.82188910
H       -0.62642779      -0.26271465      -1.74902286
H        0.31214540      -2.01408900       0.66161828
H       -1.48715076      -1.51348396      -0.03132178
11
Frame=10 idx=010843 GeodesicLength=1.008985036407276 rxn_smarts="[C:1](#[C:2][C@@:3]1([H:9])[N:4]([H:10])[C@:5]1([C:6]#[N:7])[H:11])[H:8]>>[C:1](#[C:2]/[C:3](=[N:4]/[C:5]([C:6]#[N:7])([H:10])[H:11])[H:9])[H:8]"
C        1.06587690       2.30561514      -0.75773755
C        0.54360240       1.22837802      -0.73010432
C        0.04606630      -0.11877480      -0.90025858
N        0.74678879      -1.16595008      -0.42394820
C       -0.56480940      -1.13210202       0.39344944
C       -0.77990372      -0.46057821       1.66076540
N       -0.96627471      -0.05339094       2.71601283
H        1.67740437       3.17262978      -0.85515397
H       -0.64029515      -0.24578403      -1.74195111
H        0.35538458      -2.00007377       0.67327548
H       -1.48384036      -1.52996908      -0.03434941
11
Frame=11 idx=010843 GeodesicLength=1.1066833863842092 rxn_smarts="[C:1](#[C:2][C@@:3]1([H:9])[N:4]([H:10])[C@:5]1([C:6]#[N:7])[H:11])[H:8]>>[C:1](#[C:2]/[C:3](=[N:4]/[C:5]([C:6]#[N:7])([H:10])[H:11])[H:9])[H:8]"
C        1.08516861       2.31199217      -0.78207042
C        0.55060439       1.24112326      -0.74206861
C        0.03377628      -0.09909115      -0.89637710
N        0.72562130      -1.14808979      -0.41061069
C       -0.56963783      -1.13849510       0.39773844
C       -0.80143258      -0.48497978       1.67164208
N       -0.99599073      -0.09397502       2.73156099
H        1.70821256       3.17037785      -0.88273213
H       -0.65446274      -0.23003317      -1.73506938
H        0.39925056      -1.98303541       0.68526891
H       -1.48110982      -1.54579385      -0.03728210
11
Frame=12 idx=010843 GeodesicLength=1.2040923617824495 rxn_smarts="[C:1](#[C:2][C@@:3]1([H:9])[N:4]([H:10])[C@:5]1([C:6]#[N:7])[H:11])[H:8]>>[C:1](#[C:2]/[C:3](=[N:4]/[C:5]([C:6]#[N:7])([H:10])[H:11])[H:9])[H:8]"
C        1.10449356       2.31741707      -0.80812613
C        0.55841675       1.25285020      -0.75605526
C        0.02119380      -0.07970726      -0.89239355
N        0.70406639      -1.13038836      -0.39694988
C       -0.57501867      -1.14497798       0.40208289
C       -0.82276133      -0.51007834       1.68249292
N       -1.02464130      -0.13443792       2.74662760
H        1.73830639       3.16810027      -0.90668766
H       -0.66877615      -0.21497504      -1.72813665
H        0.44367329      -1.96280219       0.69746035
H       -1.47895273      -1.56100046      -0.04031462
11
Frame=13 idx=010843 GeodesicLength=1.3013180079814122 rxn_smarts="[C:1](#[C:2][C@@:3]1([H:9])[N:4]([H:10])[C@:5]1([C:6]#[N:7])[H:11])[H:8]>>[C:1](#[C:2]/[C:3](=[N:4]/[C:5]([C:6]#[N:7])([H:10])[H:11])[H:9])[H:8]"
C        1.12441973       2.32182280      -0.83552456
C        0.56714313       1.26370289      -0.77152470
C        0.00838267      -0.06030697      -0.88795904
N        0.68215324      -1.11262506      -0.38276901
C       -0.58100251      -1.15161641       0.40649165
C       -0.84410564      -0.53630598       1.69346946
N       -1.05275079      -0.17571096       2.76153135
H        1.76766337       3.16594740      -0.92893005
H       -0.68308193      -0.20014871      -1.72090215
H        0.48853436      -1.93915930       0.70976900
H       -1.47735564      -1.57559971      -0.04365197
11
Frame=14 idx=010843 GeodesicLength=1.398461508426162 rxn_smarts="[C:1](#[C:2][C@@:3]1([H:9])[N:4]([H:10])[C@:5]1([C:6]#[N:7])[H:11])[H:8]>>[C:1](#[C:2]/[C:3](=[N:4]/[C:5]([C:6]#[N:7])([H:10])[H:11])[H:9])[H:8]"
C        1.14530748       2.32524045      -0.86401813
C        0.57673556       1.27393467      -0.78793853
C       -0.00464175      -0.04050619      -0.88268455
N        0.65994914      -1.09445341      -0.36781339
C       -0.58760388      -1.15845205       0.41098348
C       -0.86567803      -0.56413029       1.70471666
N       -1.08092705      -0.21886861       2.77656087
H        1.79657503       3.16380273      -0.95135803
H       -0.69723636      -0.18511924      -1.71309662
H        0.53374371      -1.91180819       0.72214722
H       -1.47622385      -1.58963987      -0.04749897
11
Frame=15 idx=010843 GeodesicLength=1.4956307143516696 rxn_smarts="[C:1](#[C:2][C@@:3]1([H:9])[N:4]([H:10])[C@:5]1([C:6]#[N:7])[H:11])[H:8]>>[C:1](#[C:2]/[C:3](=[N:4]/[C:5]([C:6]#[N:7])([H:10])[H:11])[H:9])[H:8]"
C        1.16731560       2.32783872      -0.89324018
C        0.58687730       1.28401013      -0.80462708
C       -0.01798101      -0.01978020      -0.87607936
N        0.63754953      -1.07533758      -0.35179276
C       -0.59478239      -1.16556369       0.41556949
C       -0.88779096      -0.59417865       1.71634779
N       -1.10993316      -0.26519827       2.79193084
H        1.82585777       3.16110160      -0.97626314
H       -0.71117715      -0.16937669      -1.70437099
H        0.57936637      -1.88018939       0.73465166
H       -1.47530190      -1.60332596      -0.05212626
11
Frame=16 idx=010843 GeodesicLength=1.5926681635062594 rxn_smarts="[C:1](#[C:2][C@@:3]1([H:9])[N:4]([H:10])[C@:5]1([C:6]#[N:7])[H:11])[H:8]>>[C:1](#[C:2]/[C:3](=[N:4]/[C:5]([C:6]#[N:7])([H:10])[H:11])[H:9])[H:8]"
C        1.19031331       2.32897078      -0.92432017
C        0.59809958       1.29292000      -0.82320288
C       -0.03153677       0.00120413      -0.86882875
N        0.61476100      -1.05590616      -0.33493044
C       -0.60257720      -1.17277382       0.42022171
C       -0.90976692      -0.62573137       1.72816646
N       -1.13836259      -0.31296597       2.80725715
H        1.85420841       3.15869563      -0.99929454
H       -0.72500933      -0.15382862      -1.69519974
H        0.62481484      -1.84430217       0.74724994
H       -1.47494434      -1.61628243      -0.05711873
