16
Frame=0 idx=007620 GeodesicLength=0.0 rxn_smarts="[C:1]([C@@:2]1([H:11])[N:3]([H:12])[C@:4]1([C:5]([C:6](=[O:7])[H:16])([H:14])[H:15])[H:13])([H:8])([H:9])[H:10]>>[C:1]([C@@:2]1([H:11])[N:3]([H:12])[C@:4]1([C:5]([O+:7]=[C-:6][H:16])([H:14])[H:15])[H:13])([H:8])([H:9])[H:10]"
C       -1.37271555      -0.06747342       1.28660668
C       -1.30799087       0.05620576      -0.20783421
N       -0.87818467       1.33754798      -0.77060883
C       -0.04924315       0.15161585      -0.96782007
C        1.29007034       0.23478998      -0.32470818
C        1.81748207      -1.37199674       0.19337493
O        2.35823677      -0.96485079      -0.91227786
H       -0.59367698       0.52430258       1.76782497
H       -2.33268104       0.29637833       1.65728099
H       -1.25422285      -1.10929967       1.58781855
H       -2.11047159      -0.45378939      -0.73440727
H       -1.38783073       1.57989276      -1.61012545
H       -0.02051325      -0.30668375      -1.95042509
H        1.30777991       0.47670311       0.74945830
H        1.94869375       0.97813556      -0.78329142
H        2.58526778      -1.36147819       1.01913400
16
Frame=1 idx=007620 GeodesicLength=0.041386598642759814 rxn_smarts="[C:1]([C@@:2]1([H:11])[N:3]([H:12])[C@:4]1([C:5]([C:6](=[O:7])[H:16])([H:14])[H:15])[H:13])([H:8])([H:9])[H:10]>>[C:1]([C@@:2]1([H:11])[N:3]([H:12])[C@:4]1([C:5]([O+:7]=[C-:6][H:16])([H:14])[H:15])[H:13])([H:8])([H:9])[H:10]"
C       -1.37357111      -0.07464799       1.28350148
C       -1.30812482       0.05763886      -0.21027391
N       -0.87962984       1.34255671      -0.76547176
C       -0.04907566       0.15895008      -0.96966062
C        1.29125828       0.23541182      -0.32621642
C        1.82076869      -1.36308124       0.22624150
O        2.32674879      -1.00435372      -0.90776302
H       -0.59425152       0.51327473       1.76879551
H       -2.33358619       0.28778228       1.65549344
H       -1.25665857      -1.11837119       1.57889840
H       -2.10980783      -0.45031612      -0.74004325
H       -1.38993315       1.58879976      -1.60342671
H       -0.02320162      -0.29186899      -1.95594166
H        1.30489429       0.50313483       0.74127039
H        1.95524484       0.96670512      -0.79655034
H        2.61892543      -1.35161493       1.02114698
16
Frame=2 idx=007620 GeodesicLength=0.08278951630722028 rxn_smarts="[C:1]([C@@:2]1([H:11])[N:3]([H:12])[C@:4]1([C:5]([C:6](=[O:7])[H:16])([H:14])[H:15])[H:13])([H:8])([H:9])[H:10]>>[C:1]([C@@:2]1([H:11])[N:3]([H:12])[C@:4]1([C:5]([O+:7]=[C-:6][H:16])([H:14])[H:15])[H:13])([H:8])([H:9])[H:10]"
C       -1.37437243      -0.08167393       1.28034549
C       -1.30819721       0.05900039      -0.21275170
N       -0.88121876       1.34746710      -0.76049675
C       -0.04883875       0.16634070      -0.97148163
C        1.29240688       0.23616970      -0.32747289
C        1.82505122      -1.35312775       0.25877753
O        2.29394793      -1.04364659      -0.90104469
H       -0.59476093       0.50242647       1.76960964
H       -2.33444410       0.27936565       1.65360470
H       -1.25900666      -1.12722639       1.57005663
H       -2.10897592      -0.44710127      -0.74567689
H       -1.39218775       1.59740917      -1.59693234
H       -0.02558324      -0.27699115      -1.96136660
H        1.30186452       0.52943886       0.73275541
H        1.96162476       0.95526640      -0.80931337
H        2.65269043      -1.34311735       1.02138747
16
Frame=3 idx=007620 GeodesicLength=0.12408510577097945 rxn_smarts="[C:1]([C@@:2]1([H:11])[N:3]([H:12])[C@:4]1([C:5]([C:6](=[O:7])[H:16])([H:14])[H:15])[H:13])([H:8])([H:9])[H:10]>>[C:1]([C@@:2]1([H:11])[N:3]([H:12])[C@:4]1([C:5]([O+:7]=[C-:6][H:16])([H:14])[H:15])[H:13])([H:8])([H:9])[H:10]"
C       -1.37516235      -0.08845091       1.27714544
C       -1.30819307       0.06025526      -0.21524028
N       -0.88295284       1.35219759      -0.75572200
C       -0.04851221       0.17374442      -0.97323180
C        1.29351977       0.23707894      -0.32842268
C        1.83045318      -1.34219553       0.29065237
O        2.25999723      -1.08237805      -0.89216662
H       -0.59527964       0.49192020       1.77023182
H       -2.33531553       0.27122628       1.65155082
H       -1.26129187      -1.13571213       1.56139702
H       -2.10794146      -0.44422641      -0.75124710
H       -1.39458255       1.60556399      -1.59068811
H       -0.02761432      -0.26214613      -1.96659916
H        1.29867385       0.55541145       0.72400941
H        1.96777406       0.94399725      -0.82137039
H        2.68642776      -1.33628622       1.01970126
16
Frame=4 idx=007620 GeodesicLength=0.16537977712257562 rxn_smarts="[C:1]([C@@:2]1([H:11])[N:3]([H:12])[C@:4]1([C:5]([C:6](=[O:7])[H:16])([H:14])[H:15])[H:13])([H:8])([H:9])[H:10]>>[C:1]([C@@:2]1([H:11])[N:3]([H:12])[C@:4]1([C:5]([O+:7]=[C-:6][H:16])([H:14])[H:15])[H:13])([H:8])([H:9])[H:10]"
C       -1.37590338      -0.09504127       1.27390799
C       -1.30811410       0.06142482      -0.21775925
N       -0.88484390       1.35680344      -0.75114519
C       -0.04810207       0.18119552      -0.97494720
C        1.29460658       0.23817145      -0.32911418
C        1.83695832      -1.33029769       0.32192526
O        2.22483778      -1.12059099      -0.88099869
H       -0.59577244       0.48169078       1.77069555
H       -2.33616541       0.26327407       1.64938394
H       -1.26345058      -1.14392778       1.55287106
H       -2.10670674      -0.44166177      -0.75679706
H       -1.39713963       1.61335120      -1.58469905
H       -0.02929397      -0.24734265      -1.97168226
H        1.29534839       0.58115774       0.71500485
H        1.97371933       0.93288627      -0.83285640
H        2.72002184      -1.33109315       1.01621063
16
Frame=5 idx=007620 GeodesicLength=0.20674162937223137 rxn_smarts="[C:1]([C@@:2]1([H:11])[N:3]([H:12])[C@:4]1([C:5]([C:6](=[O:7])[H:16])([H:14])[H:15])[H:13])([H:8])([H:9])[H:10]>>[C:1]([C@@:2]1([H:11])[N:3]([H:12])[C@:4]1([C:5]([O+:7]=[C-:6][H:16])([H:14])[H:15])[H:13])([H:8])([H:9])[H:10]"
C       -1.37658045      -0.10146748       1.27063319
C       -1.30796166       0.06251696      -0.22031330
N       -0.88690134       1.36129913      -0.74677096
C       -0.04760974       0.18870900      -0.97663199
C        1.29567771       0.23948030      -0.32956471
C        1.84461489      -1.31742681       0.35255468
O        2.18843612      -1.15821238      -0.86744902
H       -0.59623128       0.47172770       1.77100756
H       -2.33698629       0.25546023       1.64711499
H       -1.26544997      -1.15190533       1.54445943
H       -2.10526740      -0.43940712      -0.76233989
H       -1.39986695       1.62078567      -1.57897806
H       -0.03061972      -0.23260960      -1.97660919
H        1.29191368       0.60672952       0.70573412
H        1.97946906       0.92196213      -0.84382398
H        2.75336333      -1.32764192       1.01097714
16
Frame=6 idx=007620 GeodesicLength=0.24824257028749003 rxn_smarts="[C:1]([C@@:2]1([H:11])[N:3]([H:12])[C@:4]1([C:5]([C:6](=[O:7])[H:16])([H:14])[H:15])[H:13])([H:8])([H:9])[H:10]>>[C:1]([C@@:2]1([H:11])[N:3]([H:12])[C@:4]1([C:5]([O+:7]=[C-:6][H:16])([H:14])[H:15])[H:13])([H:8])([H:9])[H:10]"
C       -1.37716126      -0.10777674       1.26730197
C       -1.30773506       0.06354522      -0.22290877
N       -0.88912004       1.36569525      -0.74258564
C       -0.04703834       0.19630607      -0.97829000
C        1.29674327       0.24104048      -0.32980883
C        1.85341802      -1.30353376       0.38255445
O        2.15071144      -1.19520368      -0.85133897
H       -0.59661516       0.46196585       1.77115535
H       -2.33773986       0.24771240       1.64475315
H       -1.26725858      -1.15969888       1.53609566
H       -2.10362621      -0.43743533      -0.76788660
H       -1.40275948       1.62788894      -1.57350254
H       -0.03159295      -0.21795967      -1.98136568
H        1.28839547       0.63220629       0.69615084
H        1.98504650       0.91121099      -0.85436666
H        2.78633224      -1.32596343       1.00404228
16
Frame=7 idx=007620 GeodesicLength=0.28981566641909834 rxn_smarts="[C:1]([C@@:2]1([H:11])[N:3]([H:12])[C@:4]1([C:5]([C:6](=[O:7])[H:16])([H:14])[H:15])[H:13])([H:8])([H:9])[H:10]>>[C:1]([C@@:2]1([H:11])[N:3]([H:12])[C@:4]1([C:5]([O+:7]=[C-:6][H:16])([H:14])[H:15])[H:13])([H:8])([H:9])[H:10]"
C       -1.37771262      -0.11384653       1.26395374
C       -1.30741615       0.06446140      -0.22551964
N       -0.89150112       1.36992261      -0.73865022
C       -0.04636910       0.20391025      -0.97987382
C        1.29780039       0.24285921      -0.32977578
C        1.86356046      -1.28880619       0.41148941
O        2.11192950      -1.23116975      -0.83283677
H       -0.59702453       0.45259585       1.77115824
H       -2.33850320       0.24020379       1.64224486
H       -1.26894420      -1.16715820       1.52794790
H       -2.10173913      -0.43585165      -0.77339707
H       -1.40579759       1.63451502      -1.56837077
H       -0.03217516      -0.20353927      -1.98588268
H        1.28475576       0.65731973       0.68644299
H        1.99034256       0.90090894      -0.86422931
H        2.81879411      -1.32632522       0.99529893
16
Frame=8 idx=007620 GeodesicLength=0.33154793558579465 rxn_smarts="[C:1]([C@@:2]1([H:11])[N:3]([H:12])[C@:4]1([C:5]([C:6](=[O:7])[H:16])([H:14])[H:15])[H:13])([H:8])([H:9])[H:10]>>[C:1]([C@@:2]1([H:11])[N:3]([H:12])[C@:4]1([C:5]([O+:7]=[C-:6][H:16])([H:14])[H:15])[H:13])([H:8])([H:9])[H:10]"
C       -1.37821994      -0.11972421       1.26058779
C       -1.30701567       0.06528489      -0.22815081
N       -0.89404833       1.37399693      -0.73495994
C       -0.04560245       0.21154060      -0.98139907
C        1.29887319       0.24496862      -0.32951492
C        1.87504979      -1.27322760       0.43935670
O        2.07208543      -1.26606610      -0.81178503
H       -0.59743647       0.44354703       1.77102642
H       -2.33926726       0.23286690       1.63962534
H       -1.27049011      -1.17434118       1.51997191
H       -2.09962063      -0.43461997      -0.77888169
H       -1.40899093       1.64069930      -1.56357353
H       -0.03236194      -0.18936332      -1.99016792
H        1.28102217       0.68213684       0.67657635
H        1.99539593       0.89105761      -0.87352824
H        2.85062722      -1.32875632       0.98481664
16
Frame=9 idx=007620 GeodesicLength=0.37357164963146955 rxn_smarts="[C:1]([C@@:2]1([H:11])[N:3]([H:12])[C@:4]1([C:5]([C:6](=[O:7])[H:16])([H:14])[H:15])[H:13])([H:8])([H:9])[H:10]>>[C:1]([C@@:2]1([H:11])[N:3]([H:12])[C@:4]1([C:5]([O+:7]=[C-:6][H:16])([H:14])[H:15])[H:13])([H:8])([H:9])[H:10]"
C       -1.37865980      -0.12544223       1.25719704
C       -1.30654175       0.06602632      -0.23081125
N       -0.89676239       1.37794430      -0.73151439
C       -0.04474921       0.21919970      -0.98287065
C        1.29997413       0.24739880      -0.32904834
C        1.88794063      -1.25682410       0.46609449
O        2.03116043      -1.29982228      -0.78804784
H       -0.59781867       0.43478713       1.77076942
H       -2.34000827       0.22565639       1.63690171
H       -1.27187047      -1.18130490       1.51212550
H       -2.09728877      -0.43372578      -0.78436284
H       -1.41234361       1.64647924      -1.55911710
H       -0.03217489      -0.17547982      -1.99422119
H        1.27722383       0.70670880       0.66655285
H        2.00020793       0.88169798      -0.88232497
H        2.88171087      -1.33329954       0.97267758
16
Frame=10 idx=007620 GeodesicLength=0.4159744507156637 rxn_smarts="[C:1]([C@@:2]1([H:11])[N:3]([H:12])[C@:4]1([C:5]([C:6](=[O:7])[H:16])([H:14])[H:15])[H:13])([H:8])([H:9])[H:10]>>[C:1]([C@@:2]1([H:11])[N:3]([H:12])[C@:4]1([C:5]([O+:7]=[C-:6][H:16])([H:14])[H:15])[H:13])([H:8])([H:9])[H:10]"
C       -1.37900128      -0.13101896       1.25380032
C       -1.30598041       0.06668506      -0.23350062
N       -0.89963722       1.38176743      -0.72834654
C       -0.04380811       0.22689947      -0.98430019
C        1.30110803       0.25020175      -0.32840038
C        1.90227968      -1.23962385       0.49155800
O        1.98915731      -1.33226065      -0.76154618
H       -0.59816700       0.42634042       1.77040480
H       -2.34070392       0.21850037       1.63409041
H       -1.27301197      -1.18806636       1.50444018
H       -2.09471261      -0.43319617      -0.78984057
H       -1.41584761       1.65184403      -1.55505196
H       -0.03162081      -0.16191874      -1.99805190
H        1.27337848       0.73105327       0.65639252
H        2.00475876       0.87293480      -0.89066585
H        2.91180868      -1.34014188       0.95901796
16
Frame=11 idx=007620 GeodesicLength=0.45865438505039713 rxn_smarts="[C:1]([C@@:2]1([H:11])[N:3]([H:12])[C@:4]1([C:5]([C:6](=[O:7])[H:16])([H:14])[H:15])[H:13])([H:8])([H:9])[H:10]>>[C:1]([C@@:2]1([H:11])[N:3]([H:12])[C@:4]1([C:5]([O+:7]=[C-:6][H:16])([H:14])[H:15])[H:13])([H:8])([H:9])[H:10]"
C       -1.37932943      -0.13637389       1.25039002
C       -1.30531621       0.06724994      -0.23617346
N       -0.90262398       1.38535489      -0.72541231
C       -0.04274279       0.23453161      -0.98561393
C        1.30227404       0.25332079      -0.32755373
C        1.91814469      -1.22179097       0.51537969
O        1.94637163      -1.36310769      -0.73235595
H       -0.59858952       0.41823643       1.76990646
H       -2.34143147       0.21155864       1.63115455
H       -1.27406184      -1.19449281       1.49692282
H       -2.09185724      -0.43298559      -0.79524342
H       -1.41939334       1.65666068      -1.55131177
H       -0.03061968      -0.14883802      -2.00153654
H        1.26940515       0.75491305       0.64620244
H        2.00897909       0.86486889      -0.89840884
H        2.94079090      -1.34910595       0.94365398
16
Frame=12 idx=007620 GeodesicLength=0.5019563895393586 rxn_smarts="[C:1]([C@@:2]1([H:11])[N:3]([H:12])[C@:4]1([C:5]([C:6](=[O:7])[H:16])([H:14])[H:15])[H:13])([H:8])([H:9])[H:10]>>[C:1]([C@@:2]1([H:11])[N:3]([H:12])[C@:4]1([C:5]([O+:7]=[C-:6][H:16])([H:14])[H:15])[H:13])([H:8])([H:9])[H:10]"
C       -1.37959126      -0.14157555       1.24698704
C       -1.30461833       0.06772877      -0.23888452
N       -0.90578273       1.38884088      -0.72279636
C       -0.04161950       0.24213441      -0.98687762
C        1.30352453       0.25684647      -0.32653514
C        1.93565116      -1.20341999       0.53756890
O        1.90281403      -1.39233944      -0.70028151
H       -0.59895038       0.41044815       1.76934320
H       -2.34214242       0.20476170       1.62813039
H       -1.27496240      -1.20075837       1.48958777
H       -2.08886326      -0.43314224      -0.80067286
H       -1.42311691       1.66108997      -1.54803965
H       -0.02931728      -0.13626572      -2.00478407
H        1.26543106       0.77844463       0.63603020
H        2.01291552       0.85766933      -0.90564777
H        2.96862819      -1.36046300       0.92687203
16
Frame=13 idx=007620 GeodesicLength=0.545720031855281 rxn_smarts="[C:1]([C@@:2]1([H:11])[N:3]([H:12])[C@:4]1([C:5]([C:6](=[O:7])[H:16])([H:14])[H:15])[H:13])([H:8])([H:9])[H:10]>>[C:1]([C@@:2]1([H:11])[N:3]([H:12])[C@:4]1([C:5]([O+:7]=[C-:6][H:16])([H:14])[H:15])[H:13])([H:8])([H:9])[H:10]"
C       -1.37980166      -0.14658091       1.24361010
C       -1.30377912       0.06810427      -0.24156231
N       -0.90900880       1.39206204      -0.72046480
C       -0.04035030       0.24966805      -0.98803259
C        1.30482027       0.26078292      -0.32537566
C        1.95470616      -1.18453643       0.55772464
O        1.85858573      -1.41958110      -0.66539983
H       -0.59940213       0.40304134       1.76867322
H       -2.34285690       0.19806201       1.62501665
H       -1.27566942      -1.20669381       1.48249381
H       -2.08550619      -0.43367539      -0.80599481
H       -1.42681915       1.66490493      -1.54516365
H       -0.02755493      -0.12423913      -2.00768452
H        1.26132674       0.80147511       0.62589980
H        2.01649049       0.85141316      -0.91237015
H        2.99481922      -1.37420705       0.90863011
16
Frame=14 idx=007620 GeodesicLength=0.5901562559491405 rxn_smarts="[C:1]([C@@:2]1([H:11])[N:3]([H:12])[C@:4]1([C:5]([C:6](=[O:7])[H:16])([H:14])[H:15])[H:13])([H:8])([H:9])[H:10]>>[C:1]([C@@:2]1([H:11])[N:3]([H:12])[C@:4]1([C:5]([O+:7]=[C-:6][H:16])([H:14])[H:15])[H:13])([H:8])([H:9])[H:10]"
C       -1.38001400      -0.15135223       1.24026165
C       -1.30288160       0.06836901      -0.24422790
N       -0.91235313       1.39506735      -0.71846067
C       -0.03898230       0.25707131      -0.98906874
C        1.30622067       0.26513516      -0.32404118
C        1.97548797      -1.16542634       0.57561284
O        1.81398989      -1.44471422      -0.62772321
H       -0.59992014       0.39606541       1.76793273
H       -2.34364232       0.19159191       1.62177400
H       -1.27628149      -1.21232662       1.47567595
H       -2.08194272      -0.43461135      -0.81125696
H       -1.43059388       1.66816108      -1.54276595
H       -0.02543401      -0.11288949      -2.01023580
H        1.25716531       0.82391815       0.61598443
H        2.01971551       0.84631786      -0.91846529
H        3.01946623      -1.39037699       0.88900410
16
Frame=15 idx=007620 GeodesicLength=0.6353159653633262 rxn_smarts="[C:1]([C@@:2]1([H:11])[N:3]([H:12])[C@:4]1([C:5]([C:6](=[O:7])[H:16])([H:14])[H:15])[H:13])([H:8])([H:9])[H:10]>>[C:1]([C@@:2]1([H:11])[N:3]([H:12])[C@:4]1([C:5]([O+:7]=[C-:6][H:16])([H:14])[H:15])[H:13])([H:8])([H:9])[H:10]"
C       -1.38022903      -0.15587173       1.23698669
C       -1.30190842       0.06850802      -0.24687689
N       -0.91580499       1.39784305      -0.71682350
C       -0.03751036       0.26430317      -0.98999729
C        1.30772496       0.26993645      -0.32254938
C        1.99799036      -1.14627944       0.59096509
O        1.76929358      -1.46753844      -0.58732491
H       -0.60053216       0.38956304       1.76717811
H       -2.34449584       0.18538369       1.61843553
H       -1.27678823      -1.21764491       1.46921849
H       -2.07813952      -0.43597667      -0.81645945
H       -1.43441576       1.67083241      -1.54091772
H       -0.02295333      -0.10229616      -2.01246672
H        1.25290603       0.84569752       0.60641402
H        2.02252876       0.84259703      -0.92391271
H        3.04233395      -1.40905702       0.86813064
16
Frame=16 idx=007620 GeodesicLength=0.6812037760606142 rxn_smarts="[C:1]([C@@:2]1([H:11])[N:3]([H:12])[C@:4]1([C:5]([C:6](=[O:7])[H:16])([H:14])[H:15])[H:13])([H:8])([H:9])[H:10]>>[C:1]([C@@:2]1([H:11])[N:3]([H:12])[C@:4]1([C:5]([O+:7]=[C-:6][H:16])([H:14])[H:15])[H:13])([H:8])([H:9])[H:10]"
C       -1.38049619      -0.16010515       1.23377727
C       -1.30084912       0.06850393      -0.24947233
N       -0.91929531       1.40030532      -0.71553687
C       -0.03590691       0.27130083      -0.99076148
C        1.30935219       0.27517115      -0.32089963
C        2.02218804      -1.12729189       0.60342196
O        1.72468217      -1.48783456      -0.54427552
H       -0.60130088       0.38356620       1.76637506
H       -2.34546766       0.17947576       1.61495523
H       -1.27727016      -1.22256805       1.46314805
H       -2.07408069      -0.43777376      -0.82153130
H       -1.43817859       1.67281278      -1.53958293
H       -0.02008973      -0.09252619      -2.01428108
H        1.24853651       0.86666051       0.59728367
H        2.02492684       0.84038098      -0.92865011
H        3.06324948      -1.43007785       0.84602999
