15
Frame=0 idx=008453 GeodesicLength=0.0 rxn_smarts="[C:1]1([H:8])([H:9])[C@@:2]2([H:10])[C@@:3]3([H:11])[O:4][C:5]([H:12])([H:13])[C@:6]1([H:14])[C@@:7]23[H:15]>>[C:1]1([H:8])([H:9])[C:2]([H:10])([H:12])[C@:7]2([H:15])[C:3]([H:11])=[O+:4][C-:5]([H:13])[C@:6]12[H:14]"
C        0.50556038       1.45338556       0.05395737
C        1.14030053       0.11101362       0.41549159
C       -0.09854687      -1.73990748      -0.19461590
O       -1.15457558      -1.50243286       0.51424875
C       -1.26041105      -0.12474126       0.69070589
C       -0.63058217       0.57520296      -0.51412984
C        0.45459535      -0.52135246      -0.78929206
H        0.25110690       2.16433176       0.84536701
H        1.03785512       1.96487211      -0.75351596
H        2.16473117      -0.09668313       0.69461924
H        0.24940096      -2.76244637      -0.22982475
H       -0.05200161      -0.03823921       1.27728930
H       -2.24880460       0.13508433       1.05250821
H       -1.29794753       0.93557027      -1.29805447
H        0.93931895      -0.55365785      -1.76475438
15
Frame=1 idx=008453 GeodesicLength=0.07422465364406775 rxn_smarts="[C:1]1([H:8])([H:9])[C@@:2]2([H:10])[C@@:3]3([H:11])[O:4][C:5]([H:12])([H:13])[C@:6]1([H:14])[C@@:7]23[H:15]>>[C:1]1([H:8])([H:9])[C:2]([H:10])([H:12])[C@:7]2([H:15])[C:3]([H:11])=[O+:4][C-:5]([H:13])[C@:6]12[H:14]"
C        0.50942055       1.44711785       0.05458902
C        1.14003555       0.10027444       0.41148546
C       -0.08502026      -1.73329903      -0.18228186
O       -1.15635628      -1.49984309       0.51091107
C       -1.27039371      -0.12377788       0.68850319
C       -0.63420200       0.57652767      -0.51184565
C        0.44847939      -0.51836593      -0.79957238
H        0.26214634       2.15297426       0.85258293
H        1.04129104       1.96555165      -0.74822023
H        2.17059249      -0.10079895       0.67368249
H        0.26990882      -2.75339485      -0.20988603
H       -0.05756021      -0.03233789       1.30032122
H       -2.26808930       0.12947359       1.02938406
H       -1.29855225       0.94791743      -1.29309011
H        0.92829981      -0.55801928      -1.77656317
15
Frame=2 idx=008453 GeodesicLength=0.14844872341405113 rxn_smarts="[C:1]1([H:8])([H:9])[C@@:2]2([H:10])[C@@:3]3([H:11])[O:4][C:5]([H:12])([H:13])[C@:6]1([H:14])[C@@:7]23[H:15]>>[C:1]1([H:8])([H:9])[C:2]([H:10])([H:12])[C@:7]2([H:15])[C:3]([H:11])=[O+:4][C-:5]([H:13])[C@:6]12[H:14]"
C        0.51319013       1.44084800       0.05511077
C        1.13984963       0.08972086       0.40754816
C       -0.07183790      -1.72638895      -0.17028539
O       -1.15760983      -1.49726706       0.50811690
C       -1.28024585      -0.12283125       0.68636751
C       -0.63771488       0.57767915      -0.50960345
C        0.44252529      -0.51556089      -0.80954664
H        0.27292776       2.14162278       0.85948406
H        1.04468163       1.96614317      -0.74298092
H        2.17612787      -0.10464061       0.65314382
H        0.28958010      -2.74410274      -0.19106591
H       -0.06305160      -0.02610895       1.32365380
H       -2.28679358       0.12358962       1.00618607
H       -1.29899251       0.95997618      -1.28810101
H        0.91736372      -0.56267930      -1.78802776
15
Frame=3 idx=008453 GeodesicLength=0.22267283856626968 rxn_smarts="[C:1]1([H:8])([H:9])[C@@:2]2([H:10])[C@@:3]3([H:11])[O:4][C:5]([H:12])([H:13])[C@:6]1([H:14])[C@@:7]23[H:15]>>[C:1]1([H:8])([H:9])[C:2]([H:10])([H:12])[C@:7]2([H:15])[C:3]([H:11])=[O+:4][C-:5]([H:13])[C@:6]12[H:14]"
C        0.51686878       1.43457994       0.05553673
C        1.13975590       0.07935182       0.40366102
C       -0.05899902      -1.71920789      -0.15863910
O       -1.15838826      -1.49468958       0.50584783
C       -1.28998138      -0.12189434       0.68428075
C       -0.64112442       0.57867003      -0.50740876
C        0.43672518      -0.51292694      -0.81923343
H        0.28345634       2.13026945       0.86610497
H        1.04801865       1.96666681      -0.73777965
H        2.18136593      -0.10823769       0.63297735
H        0.30848171      -2.73460161      -0.17327526
H       -0.06848133      -0.01956699       1.34727767
H       -2.30492289       0.11744955       0.98291511
H       -1.29926864       0.97176119      -1.28309671
H        0.90649345      -0.56762375      -1.79916850
15
Frame=4 idx=008453 GeodesicLength=0.29689776232711684 rxn_smarts="[C:1]1([H:8])([H:9])[C@@:2]2([H:10])[C@@:3]3([H:11])[O:4][C:5]([H:12])([H:13])[C@:6]1([H:14])[C@@:7]23[H:15]>>[C:1]1([H:8])([H:9])[C:2]([H:10])([H:12])[C@:7]2([H:15])[C:3]([H:11])=[O+:4][C-:5]([H:13])[C@:6]12[H:14]"
C        0.52045630       1.42831710       0.05587945
C        1.13976777       0.06916684       0.39980627
C       -0.04649754      -1.71178391      -0.14734887
O       -1.15873711      -1.49209763       0.50408550
C       -1.29961410      -0.12096217       0.68222393
C       -0.64443348       0.57951103      -0.50526721
C        0.43107237      -0.51045518      -0.82865001
H        0.29373529       2.11890682       0.87247634
H        1.05129432       1.96714058      -0.73259954
H        2.18633280      -0.11161466       0.61316064
H        0.32666651      -2.72491789      -0.15643960
H       -0.07385692      -0.01272351       1.37118737
H       -2.32247910       0.11106937       0.95957683
H       -1.29938072       0.98328440      -1.27808774
H        0.89567364      -0.57284119      -1.81000337
15
Frame=5 idx=008453 GeodesicLength=0.37113122827656414 rxn_smarts="[C:1]1([H:8])([H:9])[C@@:2]2([H:10])[C@@:3]3([H:11])[O:4][C:5]([H:12])([H:13])[C@:6]1([H:14])[C@@:7]23[H:15]>>[C:1]1([H:8])([H:9])[C:2]([H:10])([H:12])[C@:7]2([H:15])[C:3]([H:11])=[O+:4][C-:5]([H:13])[C@:6]12[H:14]"
C        0.52395332       1.42206170       0.05615285
C        1.13989693       0.05916314       0.39596428
C       -0.03432544      -1.70414379      -0.13641483
O       -1.15870153      -1.48947721       0.50281190
C       -1.30915946      -0.12002955       0.68017756
C       -0.64764535       0.58021423      -0.50318322
C        0.42555851      -0.50813640      -0.83781484
H        0.30377095       2.10752466       0.87863181
H        1.05450187       1.96758235      -0.72742123
H        2.19105981      -0.11479410       0.59365893
H        0.34419284      -2.71508187      -0.14047923
H       -0.07918839      -0.00558750       1.39538212
H       -2.33947242       0.10446305       0.93616778
H       -1.29932817       0.99456172      -1.27308286
H        0.88488655      -0.57832044      -1.82055102
15
Frame=6 idx=008453 GeodesicLength=0.445369647490594 rxn_smarts="[C:1]1([H:8])([H:9])[C@@:2]2([H:10])[C@@:3]3([H:11])[O:4][C:5]([H:12])([H:13])[C@:6]1([H:14])[C@@:7]23[H:15]>>[C:1]1([H:8])([H:9])[C:2]([H:10])([H:12])[C@:7]2([H:15])[C:3]([H:11])=[O+:4][C-:5]([H:13])[C@:6]12[H:14]"
C        0.52736051       1.41581605       0.05636791
C        1.14015500       0.04933872       0.39212001
C       -0.02247334      -1.69631072      -0.12583651
O       -1.15831583      -1.48681800       0.50200965
C       -1.31862964      -0.11909361       0.67812420
C       -0.65076236       0.58078854      -0.50116137
C        0.42017790      -0.50596339      -0.84674338
H        0.31356607       2.09611422       0.88459743
H        1.05763569       1.96800666      -0.72222922
H        2.19557054      -0.11779273       0.57444795
H        0.36109744      -2.70511190      -0.12533307
H       -0.08448273       0.00183549       1.41986286
H       -2.35590650       0.09764122       0.91269042
H       -1.29911114       1.00560305      -1.26809026
H        0.87411841      -0.58405358      -1.83082662
15
Frame=7 idx=008453 GeodesicLength=0.5196220163282061 rxn_smarts="[C:1]1([H:8])([H:9])[C@@:2]2([H:10])[C@@:3]3([H:11])[O:4][C:5]([H:12])([H:13])[C@:6]1([H:14])[C@@:7]23[H:15]>>[C:1]1([H:8])([H:9])[C:2]([H:10])([H:12])[C@:7]2([H:15])[C:3]([H:11])=[O+:4][C-:5]([H:13])[C@:6]12[H:14]"
C        0.53067969       1.40958141       0.05653689
C        1.14055308       0.03969025       0.38825510
C       -0.01092809      -1.68830678      -0.11560556
O       -1.15761536      -1.48410749       0.50166390
C       -1.32803874      -0.11815048       0.67604521
C       -0.65378683       0.58124440      -0.49920479
C        0.41492304      -0.50392842      -0.85545170
H        0.32312760       2.08466393       0.89040222
H        1.06069105       1.96842751      -0.71700563
H        2.19989465      -0.12062521       0.55549051
H        0.37742175      -2.69503133      -0.11093792
H       -0.08975285       0.00954302       1.44463635
H       -2.37179339       0.09060975       0.88913793
H       -1.29872826       1.01642243      -1.26311676
H        0.86335267      -0.59003299      -1.84084574
15
Frame=8 idx=008453 GeodesicLength=0.593885302397201 rxn_smarts="[C:1]1([H:8])([H:9])[C@@:2]2([H:10])[C@@:3]3([H:11])[O:4][C:5]([H:12])([H:13])[C@:6]1([H:14])[C@@:7]23[H:15]>>[C:1]1([H:8])([H:9])[C:2]([H:10])([H:12])[C@:7]2([H:15])[C:3]([H:11])=[O+:4][C-:5]([H:13])[C@:6]12[H:14]"
C        0.53391216       1.40335881       0.05666996
C        1.14110104       0.03021411       0.38435534
C        0.00032290      -1.68015049      -0.10571407
O       -1.15662714      -1.48133692       0.50175909
C       -1.33739872      -0.11719863       0.67392378
C       -0.65672106       0.58158949      -0.49731727
C        0.40978821      -0.50202547      -0.86395376
H        0.33245890       2.07316405       0.89607027
H        1.06366417       1.96885660      -0.71173491
H        2.20405664      -0.12330307       0.53675663
H        0.39319494      -2.68485755      -0.09724411
H       -0.09501105       0.01753618       1.46970938
H       -2.38713768       0.08337648       0.86550955
H       -1.29817989       1.02702980      -1.25816908
H        0.85257659      -0.59625337      -1.85062080
15
Frame=9 idx=008453 GeodesicLength=0.668131318807543 rxn_smarts="[C:1]1([H:8])([H:9])[C@@:2]2([H:10])[C@@:3]3([H:11])[O:4][C:5]([H:12])([H:13])[C@:6]1([H:14])[C@@:7]23[H:15]>>[C:1]1([H:8])([H:9])[C:2]([H:10])([H:12])[C@:7]2([H:15])[C:3]([H:11])=[O+:4][C-:5]([H:13])[C@:6]12[H:14]"
C        0.53706564       1.39714629       0.05677808
C        1.14180775       0.02090183       0.38040159
C        0.01128289      -1.67185766      -0.09615341
O       -1.15535699      -1.47849099       0.50227978
C       -1.34671638      -0.11624151       0.67174761
C       -0.65956615       0.58183515      -0.49549604
C        0.40476529      -0.50024690      -0.87226574
H        0.34157984       2.06160023       0.90162767
H        1.06655400       1.96930530      -0.70640201
H        2.20808362      -0.12584549       0.51820281
H        0.40844444      -2.67460516      -0.08417839
H       -0.10028152       0.02583343       1.49508412
H       -2.40196789       0.07591978       0.84178448
H       -1.29746930       1.03744499      -1.25324512
H        0.84177473      -0.60269931      -1.86016543
15
Frame=10 idx=008453 GeodesicLength=0.7423910516073137 rxn_smarts="[C:1]1([H:8])([H:9])[C@@:2]2([H:10])[C@@:3]3([H:11])[O:4][C:5]([H:12])([H:13])[C@:6]1([H:14])[C@@:7]23[H:15]>>[C:1]1([H:8])([H:9])[C:2]([H:10])([H:12])[C@:7]2([H:15])[C:3]([H:11])=[O+:4][C-:5]([H:13])[C@:6]12[H:14]"
C        0.54013777       1.39094629       0.05686976
C        1.14268290       0.01175360       0.37638511
C        0.02197600      -1.66344486      -0.08691118
O       -1.15384653      -1.47556504       0.50322080
C       -1.35600693      -0.11527154       0.66949859
C       -0.66232432       0.58198561      -0.49374777
C        0.39984921      -0.49858939      -0.88039760
H        0.35048173       2.04996569       0.90709282
H        1.06935644       1.96978142      -0.70099198
H        2.21199526      -0.12825091       0.49980533
H        0.42319856      -2.66429640      -0.07172955
H       -0.10556612       0.03442709       1.52078244
H       -2.41627620       0.06826678       0.81796744
H       -1.29659262       1.04766879      -1.24835634
H        0.83093486      -0.60937713      -1.86948785
15
Frame=11 idx=008453 GeodesicLength=0.8166631155844138 rxn_smarts="[C:1]1([H:8])([H:9])[C@@:2]2([H:10])[C@@:3]3([H:11])[O:4][C:5]([H:12])([H:13])[C@:6]1([H:14])[C@@:7]23[H:15]>>[C:1]1([H:8])([H:9])[C:2]([H:10])([H:12])[C@:7]2([H:15])[C:3]([H:11])=[O+:4][C-:5]([H:13])[C@:6]12[H:14]"
C        0.54313279       1.38475870       0.05695446
C        1.14373496       0.00276463       0.37229150
C        0.03241676      -1.65492602      -0.07797349
O       -1.15211571      -1.47254932       0.50457473
C       -1.36527978      -0.11428592       0.66716402
C       -0.66499676       0.58204963      -0.49207184
C        0.39503352      -0.49704734      -0.88836158
H        0.35917377       2.03824963       0.91248717
H        1.07207026       1.97029282      -0.69549013
H        2.21581506      -0.13052630       0.48152711
H        0.43748508      -2.65395138      -0.05986083
H       -0.11088318       0.04332834       1.54681927
H       -2.43007789       0.06041421       0.79404337
H       -1.29554968       1.05771318      -1.24350479
H        0.82004081      -0.61628485      -1.87859896
15
Frame=12 idx=008453 GeodesicLength=0.8909464744863853 rxn_smarts="[C:1]1([H:8])([H:9])[C@@:2]2([H:10])[C@@:3]3([H:11])[O:4][C:5]([H:12])([H:13])[C@:6]1([H:14])[C@@:7]23[H:15]>>[C:1]1([H:8])([H:9])[C:2]([H:10])([H:12])[C@:7]2([H:15])[C:3]([H:11])=[O+:4][C-:5]([H:13])[C@:6]12[H:14]"
C        0.54605302       1.37858289       0.05703976
C        1.14497161      -0.00606928       0.36810940
C        0.04261931      -1.64631232      -0.06932770
O       -1.15017784      -1.46943490       0.50633536
C       -1.37454491      -0.11328521       0.66472869
C       -0.66758472       0.58203271      -0.49047042
C        0.39031302      -0.49561743      -0.89616781
H        0.36765874       2.02644086       0.91782832
H        1.07469379       1.97084637      -0.68988322
H        2.21956145      -0.13267559       0.46333776
H        0.45131649      -2.64358234      -0.04854708
H       -0.11624251       0.05254758       1.57321117
H       -2.44337999       0.05236241       0.77000563
H       -1.29433954       1.06758473      -1.23869486
H        0.80908207      -0.62342048      -1.88750499
15
Frame=13 idx=008453 GeodesicLength=0.9652438505702492 rxn_smarts="[C:1]1([H:8])([H:9])[C@@:2]2([H:10])[C@@:3]3([H:11])[O:4][C:5]([H:12])([H:13])[C@:6]1([H:14])[C@@:7]23[H:15]>>[C:1]1([H:8])([H:9])[C:2]([H:10])([H:12])[C@:7]2([H:15])[C:3]([H:11])=[O+:4][C-:5]([H:13])[C@:6]12[H:14]"
C        0.54890352       1.37241696       0.05713486
C        1.14640063      -0.01475439       0.36382434
C        0.05259730      -1.63761369      -0.06096089
O       -1.14804533      -1.46621089       0.50849845
C       -1.38381173      -0.11226841       0.66217922
C       -0.67008930       0.58194253      -0.48894296
C        0.38568030      -0.49429545      -0.90382861
H        0.37594640       2.01452632       0.92313645
H        1.07722748       1.97144713      -0.68415589
H        2.22325514      -0.13470527       0.44519745
H        0.46471596      -2.63320529      -0.03775577
H       -0.12166667       0.06210460       1.59997790
H       -2.45619494       0.04410209       0.74583776
H       -1.29296195       1.07729562      -1.23392770
H        0.79804318      -0.63078186      -1.89621461
15
Frame=14 idx=008453 GeodesicLength=1.0395489746404578 rxn_smarts="[C:1]1([H:8])([H:9])[C@@:2]2([H:10])[C@@:3]3([H:11])[O:4][C:5]([H:12])([H:13])[C@:6]1([H:14])[C@@:7]23[H:15]>>[C:1]1([H:8])([H:9])[C:2]([H:10])([H:12])[C@:7]2([H:15])[C:3]([H:11])=[O+:4][C-:5]([H:13])[C@:6]12[H:14]"
C        0.55168795       1.36625979       0.05724649
C        1.14802895      -0.02329584       0.35942469
C        0.06236338      -1.62883837      -0.05286150
O       -1.14572814      -1.46286799       0.51105946
C       -1.39308783      -0.11123581       0.65950295
C       -0.67251125       0.58178489      -0.48749014
C        0.38113022      -0.49307796      -0.91135313
H        0.38404172       2.00249372       0.92842755
H        1.07967120       1.97210071      -0.67829561
H        2.22691040      -0.13661817       0.42707659
H        0.47769521      -2.62283079      -0.02746487
H       -0.12716846       0.07201408       1.62713742
H       -2.46852840       0.03562748       0.72152919
H       -1.29141680       1.08685306      -1.22920555
H        0.78691185      -0.63836880      -1.90473353
15
Frame=15 idx=008453 GeodesicLength=1.113860707194101 rxn_smarts="[C:1]1([H:8])([H:9])[C@@:2]2([H:10])[C@@:3]3([H:11])[O:4][C:5]([H:12])([H:13])[C@:6]1([H:14])[C@@:7]23[H:15]>>[C:1]1([H:8])([H:9])[C:2]([H:10])([H:12])[C@:7]2([H:15])[C:3]([H:11])=[O+:4][C-:5]([H:13])[C@:6]12[H:14]"
C        0.55441120       1.36010906       0.05738227
C        1.14986338      -0.03170004       0.35489725
C        0.07192962      -1.61999326      -0.04501809
O       -1.14323385      -1.45939516       0.51401671
C       -1.40238162      -0.11018753       0.65668675
C       -0.67485131       0.58156631      -0.48611162
C        0.37665611      -0.49196179      -0.91875158
H        0.39195288       1.99032869       0.93371899
H        1.08202601       1.97281096      -0.67228817
H        2.23054259      -0.13841820       0.40893931
H        0.49026974      -2.61247071      -0.01765041
H       -0.13276779       0.08229819       1.65471065
H       -2.48038752       0.02692676       0.69706503
H       -1.28970352       1.09626683      -1.22452951
H        0.77567409      -0.64618010      -1.91306758
15
Frame=16 idx=008453 GeodesicLength=1.1881744404866699 rxn_smarts="[C:1]1([H:8])([H:9])[C@@:2]2([H:10])[C@@:3]3([H:11])[O:4][C:5]([H:12])([H:13])[C@:6]1([H:14])[C@@:7]23[H:15]>>[C:1]1([H:8])([H:9])[C:2]([H:10])([H:12])[C@:7]2([H:15])[C:3]([H:11])=[O+:4][C-:5]([H:13])[C@:6]12[H:14]"
C        0.55707822       1.35396210       0.05754909
C        1.15191028      -0.03997357       0.35022946
C        0.08130799      -1.61108467      -0.03742089
O       -1.14056829      -1.45578197       0.51736890
C       -1.41170014      -0.10912450       0.65371822
C       -0.67711000       0.58129261      -0.48480692
C        0.37225185      -0.49094409      -0.92603370
H        0.39968719       1.97801691       0.93902618
H        1.08429319       1.97358099      -0.66611994
H        2.23416404      -0.14010921       0.39075336
H        0.50245213      -2.60213481      -0.00829281
H       -0.13848481       0.09298183       1.68271818
H       -2.49177620       0.01798789       0.67243213
H       -1.28782215       1.10554570      -1.21989952
H        0.76431670      -0.65421519      -1.92122175
