13
Frame=0 idx=001054 GeodesicLength=0.0 rxn_smarts="[C:1]([C@@:2]([O:3][H:11])([C:4](=[O:5])[N:6]([H:12])[H:13])[H:10])([H:7])([H:8])[H:9]>>[C:1]([C:2]([O:3][H:11])([H:10])[H:12])([H:7])([H:8])[H:9].[C:4](=[O:5])=[N:6][H:13]"
C       -1.46074807       0.13655324      -0.21740926
C       -0.26230467      -0.31101689       0.58295014
O       -0.15478474      -1.73604577       0.63979991
C        1.13445245       0.96160276      -0.00185984
O        0.85870947       2.04748182       0.36714242
N        1.96051795       0.17085693      -0.60793487
H       -1.56490520       1.22015270      -0.19151311
H       -2.36866529      -0.30957796       0.19454392
H       -1.36826688      -0.17184433      -1.26314679
H       -0.29088976       0.02784441       1.61622441
H       -0.34680706      -2.09374048      -0.23196165
H        1.00185174      -0.46993376       0.02728044
H        2.86184005       0.52766738      -0.91411578
13
Frame=1 idx=001054 GeodesicLength=0.10070480762040557 rxn_smarts="[C:1]([C@@:2]([O:3][H:11])([C:4](=[O:5])[N:6]([H:12])[H:13])[H:10])([H:7])([H:8])[H:9]>>[C:1]([C:2]([O:3][H:11])([H:10])[H:12])([H:7])([H:8])[H:9].[C:4](=[O:5])=[N:6][H:13]"
C       -1.47121770       0.13812386      -0.20773402
C       -0.26623752      -0.31278570       0.58265959
O       -0.16990583      -1.73930989       0.62319469
C        1.13174037       0.97437800      -0.03456302
O        0.86959571       2.06975588       0.31640590
N        1.96372471       0.16219092      -0.60156146
H       -1.59345340       1.21906104      -0.15755152
H       -2.37640542      -0.32444943       0.19185249
H       -1.37456087      -0.14726445      -1.25954336
H       -0.30567214       0.01599667       1.61930629
H       -0.31613026      -2.07746436      -0.26516616
H        1.03922189      -0.48239265       0.10223310
H        2.86930047       0.50416010      -0.90953251
13
Frame=2 idx=001054 GeodesicLength=0.2014144192229342 rxn_smarts="[C:1]([C@@:2]([O:3][H:11])([C:4](=[O:5])[N:6]([H:12])[H:13])[H:10])([H:7])([H:8])[H:9]>>[C:1]([C:2]([O:3][H:11])([H:10])[H:12])([H:7])([H:8])[H:9].[C:4](=[O:5])=[N:6][H:13]"
C       -1.48299701       0.13988271      -0.19633678
C       -0.27011878      -0.31435750       0.58183541
O       -0.18059151      -1.74175846       0.60148052
C        1.12881416       0.98556209      -0.07087400
O        0.87920511       2.09122435       0.25693966
N        1.96948846       0.15107027      -0.58909576
H       -1.62265094       1.21731795      -0.12103151
H       -2.38423293      -0.33975745       0.19180472
H       -1.38461764      -0.12152562      -1.25413736
H       -0.31981987       0.00180777       1.62244387
H       -0.28421591      -2.05833901      -0.30078126
H        1.07242821      -0.48876089       0.17641419
H        2.87930863       0.47763379      -0.89866170
13
Frame=3 idx=001054 GeodesicLength=0.3021961225136022 rxn_smarts="[C:1]([C@@:2]([O:3][H:11])([C:4](=[O:5])[N:6]([H:12])[H:13])[H:10])([H:7])([H:8])[H:9]>>[C:1]([C:2]([O:3][H:11])([H:10])[H:12])([H:7])([H:8])[H:9].[C:4](=[O:5])=[N:6][H:13]"
C       -1.49564829       0.14184827      -0.18332572
C       -0.27401945      -0.31582145       0.58092784
O       -0.18739694      -1.74338029       0.57570303
C        1.12622759       0.99456173      -0.10984065
O        0.88749125       2.11106484       0.18889769
N        1.97730189       0.13886393      -0.57188711
H       -1.65169871       1.21497808      -0.08221256
H       -2.39203232      -0.35520130       0.19389499
H       -1.39756007      -0.09475184      -1.24690876
H       -0.33362778      -0.01484580       1.62599770
H       -0.25189171      -2.03649918      -0.33811849
H        1.10110257      -0.49041312       0.24833431
H        2.89175197       0.44959614      -0.88146228
13
Frame=4 idx=001054 GeodesicLength=0.40295687576290595 rxn_smarts="[C:1]([C@@:2]([O:3][H:11])([C:4](=[O:5])[N:6]([H:12])[H:13])[H:10])([H:7])([H:8])[H:9]>>[C:1]([C:2]([O:3][H:11])([H:10])[H:12])([H:7])([H:8])[H:9].[C:4](=[O:5])=[N:6][H:13]"
C       -1.50875185       0.14401128      -0.16888918
C       -0.27791816      -0.31729261       0.58027681
O       -0.19097119      -1.74420272       0.54686903
C        1.12436479       1.00114015      -0.15052667
O        0.89446753       2.12863732       0.11291270
N        1.98646306       0.12678948      -0.55142323
H       -1.67983098       1.21214082      -0.04167389
H       -2.39970843      -0.37034040       0.19771658
H       -1.41258621      -0.06723133      -1.23790959
H       -0.34724858      -0.03407642       1.63019508
H       -0.21998640      -2.01223583      -0.37646935
H        1.12536802      -0.48879892       0.31691679
H        2.90633839       0.42145918      -0.85799508
13
Frame=5 idx=001054 GeodesicLength=0.5037210318408495 rxn_smarts="[C:1]([C@@:2]([O:3][H:11])([C:4](=[O:5])[N:6]([H:12])[H:13])[H:10])([H:7])([H:8])[H:9]>>[C:1]([C:2]([O:3][H:11])([H:10])[H:12])([H:7])([H:8])[H:9].[C:4](=[O:5])=[N:6][H:13]"
C       -1.52185967       0.14640280      -0.15337864
C       -0.28189395      -0.31881239       0.58022535
O       -0.19207550      -1.74414523       0.51590948
C        1.12341907       1.00525544      -0.19215824
O        0.90048597       2.14324475       0.03027990
N        1.99645150       0.11547572      -0.52820751
H       -1.70648084       1.20889762       0.00011754
H       -2.40714474      -0.38498545       0.20237523
H       -1.42855486      -0.03902877      -1.22737224
H       -0.36121342      -0.05590712       1.63521515
H       -0.18868586      -1.98570678      -0.41519087
H        1.14574409      -0.48506636       0.38251190
H        2.92180820       0.39437578      -0.83032705
13
Frame=6 idx=001054 GeodesicLength=0.6044751324690869 rxn_smarts="[C:1]([C@@:2]([O:3][H:11])([C:4](=[O:5])[N:6]([H:12])[H:13])[H:10])([H:7])([H:8])[H:9]>>[C:1]([C:2]([O:3][H:11])([H:10])[H:12])([H:7])([H:8])[H:9].[C:4](=[O:5])=[N:6][H:13]"
C       -1.53472978       0.14900850      -0.13699942
C       -0.28593161      -0.32043396       0.58090915
O       -0.19125878      -1.74315856       0.48346120
C        1.12339534       1.00705665      -0.23438440
O        0.90581488       2.15441926      -0.05800024
N        2.00675457       0.10553191      -0.50303919
H       -1.73129917       1.20533429       0.04268383
H       -2.41430666      -0.39890391       0.20752850
H       -1.44490988      -0.01034150      -1.21541010
H       -0.37565452      -0.08037736       1.64101995
H       -0.15828900      -1.95710358      -0.45382238
H        1.16275572      -0.48014416       0.44514724
H        2.93765889       0.36911243      -0.79909413
13
Frame=7 idx=001054 GeodesicLength=0.7051526220999694 rxn_smarts="[C:1]([C@@:2]([O:3][H:11])([C:4](=[O:5])[N:6]([H:12])[H:13])[H:10])([H:7])([H:8])[H:9]>>[C:1]([C:2]([O:3][H:11])([H:10])[H:12])([H:7])([H:8])[H:9].[C:4](=[O:5])=[N:6][H:13]"
C       -1.54716970       0.15181540      -0.11995744
C       -0.29001467      -0.32218284       0.58240846
O       -0.18897695      -1.74117157       0.45004496
C        1.12422522       1.00674439      -0.27697599
O        0.91078109       2.16177195      -0.15083561
N        2.01691960       0.09737327      -0.47646849
H       -1.75408350       1.20152553       0.08561879
H       -2.42115630      -0.41194085       0.21284356
H       -1.46116521       0.01867506      -1.20217118
H       -0.39068234      -0.10746042       1.64749718
H       -0.12890268      -1.92660323      -0.49196867
H        1.17691355      -0.47474283       0.50508292
H        2.95331189       0.34619615      -0.76511849
13
Frame=8 idx=001054 GeodesicLength=0.8059043745385973 rxn_smarts="[C:1]([C@@:2]([O:3][H:11])([C:4](=[O:5])[N:6]([H:12])[H:13])[H:10])([H:7])([H:8])[H:9]>>[C:1]([C:2]([O:3][H:11])([H:10])[H:12])([H:7])([H:8])[H:9].[C:4](=[O:5])=[N:6][H:13]"
C       -1.55916644       0.15481318      -0.10237922
C       -0.29409005      -0.32409768       0.58470162
O       -0.18559628      -1.73823406       0.41602175
C        1.12583961       1.00458350      -0.31995437
O        0.91570716       2.16514106      -0.24738956
N        2.02664142       0.09132060      -0.44913488
H       -1.77484661       1.19761528       0.12864585
H       -2.42780428      -0.42399208       0.21820715
H       -1.47721303       0.04785934      -1.18775614
H       -0.40617288      -0.13707539       1.65442841
H       -0.10070401      -1.89451261      -0.52936456
H        1.18876720      -0.46947451       0.56246847
H        2.96863820       0.32605337      -0.72849451
13
Frame=9 idx=001054 GeodesicLength=0.9065141974929117 rxn_smarts="[C:1]([C@@:2]([O:3][H:11])([C:4](=[O:5])[N:6]([H:12])[H:13])[H:10])([H:7])([H:8])[H:9]>>[C:1]([C:2]([O:3][H:11])([H:10])[H:12])([H:7])([H:8])[H:9].[C:4](=[O:5])=[N:6][H:13]"
C       -1.57037919       0.15798589      -0.08452061
C       -0.29824257      -0.32615942       0.58792581
O       -0.18139549      -1.73407577       0.38186009
C        1.12809606       1.00078411      -0.36291806
O        0.92102653       2.16425969      -0.34639364
N        2.03543794       0.08756579      -0.42066567
H       -1.79349749       1.19342705       0.17151691
H       -2.43397774      -0.43515306       0.22296005
H       -1.49205910       0.07738808      -1.17238698
H       -0.42269431      -0.16921991       1.66169766
H       -0.07319182      -1.86067797      -0.56556192
H        1.19857228      -0.46465410       0.61819411
H        2.98230490       0.30852961      -0.69170773
13
Frame=10 idx=001054 GeodesicLength=1.006852015885871 rxn_smarts="[C:1]([C@@:2]([O:3][H:11])([C:4](=[O:5])[N:6]([H:12])[H:13])[H:10])([H:7])([H:8])[H:9]>>[C:1]([C:2]([O:3][H:11])([H:10])[H:12])([H:7])([H:8])[H:9].[C:4](=[O:5])=[N:6][H:13]"
C       -1.58092613       0.16126317      -0.06644964
C       -0.30229301      -0.32838506       0.59186511
O       -0.17662235      -1.72884348       0.34776462
C        1.13085315       0.99560076      -0.40623786
O        0.92700985       2.15922386      -0.44689131
N        2.04298570       0.08638672      -0.39217940
H       -1.81011897       1.18915449       0.21389907
H       -2.43981142      -0.44518943       0.22744325
H       -1.50616814       0.10675025      -1.15614439
H       -0.43953607      -0.20350253       1.66890482
H       -0.04685349      -1.82565308      -0.60043359
H        1.20677113      -0.46083134       0.67186892
H        2.99470974       0.29402569      -0.65340960
13
Frame=11 idx=001054 GeodesicLength=1.1073818512228035 rxn_smarts="[C:1]([C@@:2]([O:3][H:11])([C:4](=[O:5])[N:6]([H:12])[H:13])[H:10])([H:7])([H:8])[H:9]>>[C:1]([C:2]([O:3][H:11])([H:10])[H:12])([H:7])([H:8])[H:9].[C:4](=[O:5])=[N:6][H:13]"
C       -1.59080006       0.16463691      -0.04832050
C       -0.30632471      -0.33081259       0.59658686
O       -0.17144294      -1.72258921       0.31407157
C        1.13412721       0.98938967      -0.44974441
O        0.93411244       2.15042633      -0.54808470
N        2.04918319       0.08799283      -0.36322234
H       -1.82503104       1.18473771       0.25573730
H       -2.44540399      -0.45434334       0.23119116
H       -1.51907297       0.13618886      -1.13916668
H       -0.45708974      -0.23987235       1.67586819
H       -0.02127604      -1.78957477      -0.63364368
H        1.21371913      -0.45829634       0.72427472
H        3.00529953       0.28211630      -0.61554749
13
Frame=12 idx=001054 GeodesicLength=1.207904779087439 rxn_smarts="[C:1]([C@@:2]([O:3][H:11])([C:4](=[O:5])[N:6]([H:12])[H:13])[H:10])([H:7])([H:8])[H:9]>>[C:1]([C:2]([O:3][H:11])([H:10])[H:12])([H:7])([H:8])[H:9].[C:4](=[O:5])=[N:6][H:13]"
C       -1.59996694       0.16808383      -0.03016377
C       -0.31024530      -0.33345154       0.60197347
O       -0.16599282      -1.71531651       0.28086719
C        1.13779846       0.98228609      -0.49364237
O        0.94246182       2.13797687      -0.64959842
N        2.05370942       0.09261697      -0.33403880
H       -1.83833741       1.18014504       0.29707758
H       -2.45067582      -0.46259117       0.23421845
H       -1.53077802       0.16565682      -1.12149952
H       -0.47503776      -0.27805306       1.68229737
H        0.00348430      -1.75264161      -0.66515714
H        1.21965597      -0.45742954       0.77551526
H        3.01392412       0.27271781      -0.57784932
13
Frame=13 idx=001054 GeodesicLength=1.3084760095013803 rxn_smarts="[C:1]([C@@:2]([O:3][H:11])([C:4](=[O:5])[N:6]([H:12])[H:13])[H:10])([H:7])([H:8])[H:9]>>[C:1]([C:2]([O:3][H:11])([H:10])[H:12])([H:7])([H:8])[H:9].[C:4](=[O:5])=[N:6][H:13]"
C       -1.60842525       0.17158071      -0.01204160
C       -0.31402796      -0.33632083       0.60799086
O       -0.16033319      -1.70706697       0.24830742
C        1.14182023       0.97451035      -0.53799961
O        0.95230024       2.12220189      -0.75100200
N        2.05629774       0.10056904      -0.30453524
H       -1.85026342       1.17530527       0.33795608
H       -2.45561731      -0.47000879       0.23638180
H       -1.54114041       0.19522021      -1.10321646
H       -0.49333264      -0.31780512       1.68799603
H        0.02763004      -1.71503620      -0.69485072
H        1.22480920      -0.45857170       0.82588406
H        3.02028273       0.26542212      -0.54087060
13
Frame=14 idx=001054 GeodesicLength=1.4091274816527262 rxn_smarts="[C:1]([C@@:2]([O:3][H:11])([C:4](=[O:5])[N:6]([H:12])[H:13])[H:10])([H:7])([H:8])[H:9]>>[C:1]([C:2]([O:3][H:11])([H:10])[H:12])([H:7])([H:8])[H:9].[C:4](=[O:5])=[N:6][H:13]"
C       -1.61615460       0.17510481       0.00603970
C       -0.31763880      -0.33945218       0.61458939
O       -0.15451032      -1.69786855       0.21643661
C        1.14616532       0.96622952      -0.58294558
O        0.96375232       2.10336022      -0.85222966
N        2.05668772       0.11230917      -0.27448455
H       -1.86094640       1.17012810       0.37848166
H       -2.46018213      -0.47666954       0.23760003
H       -1.55007001       0.22496654      -1.08429719
H       -0.51186179      -0.35895023       1.69275877
H        0.05128088      -1.67685082      -0.72270002
H        1.22936013      -0.46205760       0.87562449
H        3.02411769       0.25975055      -0.50487364
13
Frame=15 idx=001054 GeodesicLength=1.5098201859918183 rxn_smarts="[C:1]([C@@:2]([O:3][H:11])([C:4](=[O:5])[N:6]([H:12])[H:13])[H:10])([H:7])([H:8])[H:9]>>[C:1]([C:2]([O:3][H:11])([H:10])[H:12])([H:7])([H:8])[H:9].[C:4](=[O:5])=[N:6][H:13]"
C       -1.62312780       0.17863856       0.02408272
C       -0.32102474      -0.34286669       0.62174576
O       -0.14847540      -1.68773191       0.18525895
C        1.15081644       0.95763527      -0.62851942
O        0.97689640       2.08164484      -0.95335374
N        2.05451846       0.12844448      -0.24363334
H       -1.87052708       1.16452154       0.41879584
H       -2.46429639      -0.48262938       0.23777354
H       -1.55746432       0.25499356      -1.06471695
H       -0.53048955      -0.40129785       1.69644164
H        0.07464958      -1.63815100      -0.74871920
H        1.23348818      -0.46819619       0.92489060
H        3.02503621       0.25499476      -0.47004638
13
Frame=16 idx=001054 GeodesicLength=1.610667283889921 rxn_smarts="[C:1]([C@@:2]([O:3][H:11])([C:4](=[O:5])[N:6]([H:12])[H:13])[H:10])([H:7])([H:8])[H:9]>>[C:1]([C:2]([O:3][H:11])([H:10])[H:12])([H:7])([H:8])[H:9].[C:4](=[O:5])=[N:6][H:13]"
C       -1.62935435       0.18215156       0.04212900
C       -0.32414328      -0.34660546       0.62944286
O       -0.14213679      -1.67667207       0.15477867
C        1.15578871       0.94892642      -0.67487284
O        0.99193353       2.05727456      -1.05457550
N        2.04936106       0.14969469      -0.21184222
H       -1.87915118       1.15837494       0.45905031
H       -2.46792737      -0.48796802       0.23687482
H       -1.56326332       0.28540815      -1.04440162
H       -0.54908420      -0.44470942       1.69893449
H        0.09795871      -1.59897152      -0.77292491
H        1.23741808      -0.47725816       0.97367026
H        3.02260040       0.25035432      -0.43626332
