16
Frame=0 idx=001870 GeodesicLength=0.0 rxn_smarts="[C:1]([C@@:2]1([H:10])[C:3]([H:11])([H:12])[C@:4]1([C:5]([O:6][H:16])([H:14])[H:15])[H:13])([H:7])([H:8])[H:9]>>[C:1]([O:6][C:5]([C:4]1([H:13])[C:2]([H:10])([H:16])[C:3]1([H:11])[H:12])([H:14])[H:15])([H:7])([H:8])[H:9]"
C       -1.17949477      -1.07870960       0.95030664
C       -0.64687447       0.44734365      -0.97283982
C       -0.25526139       1.60091607      -0.11563204
C        0.80013098       0.69279119      -0.67251702
C        1.38921224      -0.45709689       0.14340845
O        0.47826094      -1.57354853       0.07824843
H       -1.98239170      -1.50435984       0.36743847
H       -0.80273986      -1.72246886       1.73657350
H       -1.33391747      -0.05271448       1.24132550
H       -1.03118997       0.65706462      -1.96645059
H       -0.28480145       2.60567549      -0.52842048
H       -0.45170810       1.59691851       0.95844875
H        1.48125590       1.11523413      -1.40485475
H        2.32549860      -0.79585357      -0.30106420
H        1.56098513      -0.23617279       1.19886463
H       -0.06696461      -1.29501910      -0.71283550
16
Frame=1 idx=001870 GeodesicLength=0.09276995223478479 rxn_smarts="[C:1]([C@@:2]1([H:10])[C:3]([H:11])([H:12])[C@:4]1([C:5]([O:6][H:16])([H:14])[H:15])[H:13])([H:7])([H:8])[H:9]>>[C:1]([O:6][C:5]([C:4]1([H:13])[C:2]([H:10])([H:16])[C:3]1([H:11])[H:12])([H:14])[H:15])([H:7])([H:8])[H:9]"
C       -1.17318754      -1.07280834       0.94760452
C       -0.64606052       0.44647652      -0.97016639
C       -0.25249230       1.60241423      -0.11564875
C        0.80190862       0.69117268      -0.66662839
C        1.38826216      -0.46231252       0.14452282
O        0.48249267      -1.58049195       0.05905228
H       -1.97714976      -1.51983664       0.38128605
H       -0.78691361      -1.69511559       1.74743915
H       -1.36395243      -0.05543524       1.25014080
H       -1.02831581       0.65982603      -1.96358176
H       -0.28194255       2.60613637      -0.53019483
H       -0.45144020       1.59927235       0.95721175
H        1.48071849       1.10989611      -1.40304501
H        2.33050069      -0.79282976      -0.29354286
H        1.54909091      -0.24588344       1.20280255
H       -0.07151883      -1.29048081      -0.74725193
16
Frame=2 idx=001870 GeodesicLength=0.1854703884931811 rxn_smarts="[C:1]([C@@:2]1([H:10])[C:3]([H:11])([H:12])[C@:4]1([C:5]([O:6][H:16])([H:14])[H:15])[H:13])([H:7])([H:8])[H:9]>>[C:1]([O:6][C:5]([C:4]1([H:13])[C:2]([H:10])([H:16])[C:3]1([H:11])[H:12])([H:14])[H:15])([H:7])([H:8])[H:9]"
C       -1.16710777      -1.06649899       0.94506549
C       -0.64524766       0.44562419      -0.96751399
C       -0.24964109       1.60383187      -0.11559617
C        0.80368588       0.68945333      -0.66076144
C        1.38732133      -0.46762794       0.14556094
O        0.48674016      -1.58719639       0.04044797
H       -1.97096158      -1.53568849       0.39552606
H       -0.77143584      -1.66697795       1.75792446
H       -1.39457466      -0.05910411       1.25853387
H       -1.02546865       0.66271219      -1.96068419
H       -0.27894039       2.60654953      -0.53181625
H       -0.45124456       1.60144251       0.95601021
H        1.48018468       1.10450294      -1.40118754
H        2.33523040      -0.79019043      -0.28617134
H        1.53756285      -0.25549904       1.20644014
H       -0.07610309      -1.28533321      -0.78177821
16
Frame=3 idx=001870 GeodesicLength=0.2781301224252791 rxn_smarts="[C:1]([C@@:2]1([H:10])[C:3]([H:11])([H:12])[C@:4]1([C:5]([O:6][H:16])([H:14])[H:15])[H:13])([H:7])([H:8])[H:9]>>[C:1]([O:6][C:5]([C:4]1([H:13])[C:2]([H:10])([H:16])[C:3]1([H:11])[H:12])([H:14])[H:15])([H:7])([H:8])[H:9]"
C       -1.16128294      -1.05980282       0.94267983
C       -0.64444433       0.44478752      -0.96487606
C       -0.24670288       1.60517914      -0.11548602
C        0.80545748       0.68762805      -0.65492358
C        1.38638175      -0.47303389       0.14653627
O        0.49099565      -1.59368557       0.02244169
H       -1.96381693      -1.55187720       0.41015941
H       -0.75636151      -1.63807889       1.76803110
H       -1.42567679      -0.06378714       1.26654142
H       -1.02266674       0.66572138      -1.95774751
H       -0.27578743       2.60691972      -0.53331075
H       -0.45110245       1.60346533       0.95483385
H        1.47964961       1.09903991      -1.39929599
H        2.33969908      -0.78791714      -0.27893099
H        1.52637879      -0.26500296       1.20980602
H       -0.08072036      -1.27955544      -0.81645869
16
Frame=4 idx=001870 GeodesicLength=0.3707744384578108 rxn_smarts="[C:1]([C@@:2]1([H:10])[C:3]([H:11])([H:12])[C@:4]1([C:5]([O:6][H:16])([H:14])[H:15])[H:13])([H:7])([H:8])[H:9]>>[C:1]([O:6][C:5]([C:4]1([H:13])[C:2]([H:10])([H:16])[C:3]1([H:11])[H:12])([H:14])[H:15])([H:7])([H:8])[H:9]"
C       -1.15573590      -1.05274343       0.94043852
C       -0.64365853       0.44396628      -0.96224648
C       -0.24367399       1.60646540      -0.11533203
C        0.80721819       0.68569159      -0.64912182
C        1.38543352      -0.47852265       0.14746310
O        0.49525349      -1.59998547       0.00503471
H       -1.95570645      -1.56835395       0.42519269
H       -0.74174061      -1.60844788       1.77775872
H       -1.45715642      -0.06954657       1.27420650
H       -1.01992746       0.66885137      -1.95476194
H       -0.27247689       2.60725040      -0.53470756
H       -0.45099532       1.60537673       0.95367010
H        1.47910930       1.09349194      -1.39738261
H        2.34391742      -0.78599031      -0.27179807
H        1.51551084      -0.27438251       1.21292935
H       -0.08537118      -1.27312093      -0.85134318
16
Frame=5 idx=001870 GeodesicLength=0.4634177388840758 rxn_smarts="[C:1]([C@@:2]1([H:10])[C:3]([H:11])([H:12])[C@:4]1([C:5]([O:6][H:16])([H:14])[H:15])[H:13])([H:7])([H:8])[H:9]>>[C:1]([O:6][C:5]([C:4]1([H:13])[C:2]([H:10])([H:16])[C:3]1([H:11])[H:12])([H:14])[H:15])([H:7])([H:8])[H:9]"
C       -1.15048803      -1.04534634       0.93833200
C       -0.64289835       0.44316026      -0.95961738
C       -0.24055010       1.60770042      -0.11514943
C        0.80896251       0.68363830      -0.64336308
C        1.38446359      -0.48408821       0.14835694
O        0.49950802      -1.60612287      -0.01177458
H       -1.94662128      -1.58507942       0.44062467
H       -0.72761404      -1.57811326       1.78710674
H       -1.48891863      -0.07643492       1.28158129
H       -1.01726871       0.67210084      -1.95171521
H       -0.26900103       2.60754439      -0.53603903
H       -0.45089954       1.60721443       0.95250518
H        1.47855964       1.08784229      -1.39546065
H        2.34789356      -0.78439122      -0.26474440
H        1.50492649      -0.28362795       1.21583936
H       -0.09005409      -1.26599675      -0.88648242
16
Frame=6 idx=001870 GeodesicLength=0.5560905575465953 rxn_smarts="[C:1]([C@@:2]1([H:10])[C:3]([H:11])([H:12])[C@:4]1([C:5]([O:6][H:16])([H:14])[H:15])[H:13])([H:7])([H:8])[H:9]>>[C:1]([O:6][C:5]([C:4]1([H:13])[C:2]([H:10])([H:16])[C:3]1([H:11])[H:12])([H:14])[H:15])([H:7])([H:8])[H:9]"
C       -1.14555729      -1.03763103       0.93635405
C       -0.64217365       0.44236787      -0.95698510
C       -0.23732581       1.60889211      -0.11495025
C        0.81068474       0.68146071      -0.63765490
C        1.38345913      -0.48972650       0.14923119
O        0.50375562      -1.61212582      -0.02797933
H       -1.93654505      -1.60201573       0.45646079
H       -0.71403186      -1.54707978       1.79607562
H       -1.52087422      -0.08451945       1.28870409
H       -1.01471420       0.67547249      -1.94859773
H       -0.26534988       2.60780460      -0.53732879
H       -0.45079213       1.60901265       0.95133076
H        1.47799694       1.08207269      -1.39354004
H        2.35163281      -0.78310424      -0.25774513
H        1.49459632      -0.29272902       1.21856209
H       -0.09476148      -1.25815155      -0.92193731
16
Frame=7 idx=001870 GeodesicLength=0.6488231664864809 rxn_smarts="[C:1]([C@@:2]1([H:10])[C:3]([H:11])([H:12])[C@:4]1([C:5]([O:6][H:16])([H:14])[H:15])[H:13])([H:7])([H:8])[H:9]>>[C:1]([O:6][C:5]([C:4]1([H:13])[C:2]([H:10])([H:16])[C:3]1([H:11])[H:12])([H:14])[H:15])([H:7])([H:8])[H:9]"
C       -1.14096247      -1.02961807       0.93449519
C       -0.64149172       0.44158728      -0.95434639
C       -0.23399746       1.61004711      -0.11475095
C        0.81237949       0.67915139      -0.63200418
C        1.38240520      -0.49543413       0.15010178
O        0.50799322      -1.61802278      -0.04357873
H       -1.92545869      -1.61911610       0.47271708
H       -0.70103265      -1.51537023       1.80466365
H       -1.55293851      -0.09386085       1.29562371
H       -1.01228168       0.67896972      -1.94540010
H       -0.26151387       2.60803258      -0.53860713
H       -0.45065259       1.61080328       0.95013234
H        1.47741981       1.07616558      -1.39163158
H        2.35513961      -0.78211374      -0.25076835
H        1.48448360      -0.30167964       1.22112545
H       -0.09949128      -1.24954140      -0.95777180
16
Frame=8 idx=001870 GeodesicLength=0.7416300065112984 rxn_smarts="[C:1]([C@@:2]1([H:10])[C:3]([H:11])([H:12])[C@:4]1([C:5]([O:6][H:16])([H:14])[H:15])[H:13])([H:7])([H:8])[H:9]>>[C:1]([O:6][C:5]([C:4]1([H:13])[C:2]([H:10])([H:16])[C:3]1([H:11])[H:12])([H:14])[H:15])([H:7])([H:8])[H:9]"
C       -1.13672070      -1.02132494       0.93274779
C       -0.64086031       0.44081529      -0.95169934
C       -0.23056054       1.61117045      -0.11456607
C        0.81404048       0.67670138      -0.62641765
C        1.38128557      -0.50120881       0.15098411
O        0.51221548      -1.62384178      -0.05856786
H       -1.91334540      -1.63634008       0.48941003
H       -0.68865869      -1.48298611       1.81285814
H       -1.58502656      -0.10452595       1.30239416
H       -1.00999318       0.68259812      -1.94211405
H       -0.25748280       2.60822606      -0.53990133
H       -0.45045803       1.61261693       0.94889786
H        1.47682546       1.07010111      -1.38974341
H        2.35841461      -0.78140566      -0.24378151
H        1.47455279      -0.31047496       1.22355520
H       -0.10422818      -1.24012105      -0.99405606
16
Frame=9 idx=001870 GeodesicLength=0.8346829967322731 rxn_smarts="[C:1]([C@@:2]1([H:10])[C:3]([H:11])([H:12])[C@:4]1([C:5]([O:6][H:16])([H:14])[H:15])[H:13])([H:7])([H:8])[H:9]>>[C:1]([O:6][C:5]([C:4]1([H:13])[C:2]([H:10])([H:16])[C:3]1([H:11])[H:12])([H:14])[H:15])([H:7])([H:8])[H:9]"
C       -1.13284571      -1.01281037       0.93109275
C       -0.64030121       0.44004798      -0.94901351
C       -0.22700232       1.61227661      -0.11441549
C        0.81565588       0.67409808      -0.62090899
C        1.38007687      -0.50704862       0.15189631
O        0.51645802      -1.62963235      -0.07289421
H       -1.90017912      -1.65365697       0.50646336
H       -0.67691740      -1.45003221       1.82066476
H       -1.61712081      -0.11645342       1.30908546
H       -1.00789943       0.68635528      -1.93869112
H       -0.25323857       2.60839247      -0.54125830
H       -0.45014184       1.61450788       0.94761789
H        1.47620078       1.06384594      -1.38790661
H        2.36146108      -0.78095429      -0.23673841
H        1.46476373      -0.31909310       1.22587186
H       -0.10896995      -1.22984291      -1.03086574
16
Frame=10 idx=001870 GeodesicLength=0.9277841963908934 rxn_smarts="[C:1]([C@@:2]1([H:10])[C:3]([H:11])([H:12])[C@:4]1([C:5]([O:6][H:16])([H:14])[H:15])[H:13])([H:7])([H:8])[H:9]>>[C:1]([O:6][C:5]([C:4]1([H:13])[C:2]([H:10])([H:16])[C:3]1([H:11])[H:12])([H:14])[H:15])([H:7])([H:8])[H:9]"
C       -1.12936244      -1.00405890       0.92952221
C       -0.63980543       0.43927586      -0.94632174
C       -0.22333271       1.61335520      -0.11431313
C        0.81722693       0.67133512      -0.61547572
C        1.37876690      -0.51295908       0.15285307
O        0.52067898      -1.63540463      -0.08661360
H       -1.88594432      -1.67098464       0.52399626
H       -0.66585806      -1.41641303       1.82806011
H       -1.64907308      -0.12982636       1.31574220
H       -1.00598920       0.69025353      -1.93516527
H       -0.24878312       2.60851995      -0.54268712
H       -0.44973801       1.61647212       0.94627313
H        1.47556111       1.05739744      -1.38609952
H        2.36427551      -0.78076404      -0.22961352
H        1.45507255      -0.32755518       1.22810692
H       -0.11369562      -1.21864334      -1.06826431
16
Frame=11 idx=001870 GeodesicLength=1.0209664375469525 rxn_smarts="[C:1]([C@@:2]1([H:10])[C:3]([H:11])([H:12])[C@:4]1([C:5]([O:6][H:16])([H:14])[H:15])[H:13])([H:7])([H:8])[H:9]>>[C:1]([O:6][C:5]([C:4]1([H:13])[C:2]([H:10])([H:16])[C:3]1([H:11])[H:12])([H:14])[H:15])([H:7])([H:8])[H:9]"
C       -1.12628618      -0.99509215       0.92802684
C       -0.63937950       0.43849141      -0.94362242
C       -0.21954812       1.61440703      -0.11427735
C        0.81874779       0.66840005      -0.61012446
C        1.37733897      -0.51894246       0.15387354
O        0.52488274      -1.64119255      -0.09971893
H       -1.87061780      -1.68828141       0.54200730
H       -0.65549373      -1.38214001       1.83503715
H       -1.68081789      -0.14468299       1.32242346
H       -1.00428518       0.69430077      -1.93152193
H       -0.24410555       2.60860467      -0.54421870
H       -0.44922872       1.61853227       0.94484705
H        1.47490639       1.05073340      -1.38432923
H        2.36685712      -0.78082774      -0.22236681
H        1.44543874      -0.33585882       1.23028622
H       -0.11840908      -1.20645148      -1.10632173
16
Frame=12 idx=001870 GeodesicLength=1.1142154725003754 rxn_smarts="[C:1]([C@@:2]1([H:10])[C:3]([H:11])([H:12])[C@:4]1([C:5]([O:6][H:16])([H:14])[H:15])[H:13])([H:7])([H:8])[H:9]>>[C:1]([O:6][C:5]([C:4]1([H:13])[C:2]([H:10])([H:16])[C:3]1([H:11])[H:12])([H:14])[H:15])([H:7])([H:8])[H:9]"
C       -1.12363208      -0.98592737       0.92660102
C       -0.63902814       0.43768418      -0.94091955
C       -0.21564711       1.61542909      -0.11432518
C        0.82021304       0.66528031      -0.60486036
C        1.37577533      -0.52500320       0.15497501
O        0.52906763      -1.64702743      -0.11220542
H       -1.85417807      -1.70549178       0.56051391
H       -0.64583919      -1.34721873       1.84158080
H       -1.71228939      -0.16106971       1.32918360
H       -1.00281006       0.69850584      -1.92775246
H       -0.23919722       2.60863904      -0.54587915
H       -0.44860079       1.62070531       0.94332444
H        1.47423863       1.04383350      -1.38259840
H        2.36920220      -0.78113996      -0.21496093
H        1.43582219      -0.34400391       1.23243381
H       -0.12309696      -1.19319519      -1.14511116
16
Frame=13 idx=001870 GeodesicLength=1.2075074686499419 rxn_smarts="[C:1]([C@@:2]1([H:10])[C:3]([H:11])([H:12])[C@:4]1([C:5]([O:6][H:16])([H:14])[H:15])[H:13])([H:7])([H:8])[H:9]>>[C:1]([O:6][C:5]([C:4]1([H:13])[C:2]([H:10])([H:16])[C:3]1([H:11])[H:12])([H:14])[H:15])([H:7])([H:8])[H:9]"
C       -1.12141982      -0.97657940       0.92523692
C       -0.63875610       0.43684380      -0.93821921
C       -0.21162842       1.61641858      -0.11447498
C        0.82161666       0.66196266      -0.59968899
C        1.37405560      -0.53114753       0.15617502
O        0.53323023      -1.65294008      -0.12406419
H       -1.83659469      -1.72256872       0.57953253
H       -0.63691077      -1.31165399       1.84767787
H       -1.74341333      -0.17903158       1.33607874
H       -1.00158761       0.70288104      -1.92384808
H       -0.23404777       2.60861676      -0.54769473
H       -0.44784255       1.62300761       0.94168869
H        1.47356096       1.03667672      -1.38090938
H        2.37130326      -0.78169830      -0.20735661
H        1.42618005      -0.35199156       1.23457259
H       -0.12774572      -1.17879603      -1.18470618
16
Frame=14 idx=001870 GeodesicLength=1.3008318977241276 rxn_smarts="[C:1]([C@@:2]1([H:10])[C:3]([H:11])([H:12])[C@:4]1([C:5]([O:6][H:16])([H:14])[H:15])[H:13])([H:7])([H:8])[H:9]>>[C:1]([O:6][C:5]([C:4]1([H:13])[C:2]([H:10])([H:16])[C:3]1([H:11])[H:12])([H:14])[H:15])([H:7])([H:8])[H:9]"
C       -1.11966960      -0.96706825       0.92392336
C       -0.63856676       0.43595426      -0.93552989
C       -0.20749353       1.61736615      -0.11474612
C        0.82295260       0.65843078      -0.59461532
C        1.37216021      -0.53738371       0.15749171
O        0.53736991      -1.65896671      -0.13528540
H       -1.81783970      -1.73945762       0.59908176
H       -0.62872797      -1.27543403       1.85330176
H       -1.77411138      -0.19861055       1.34318413
H       -1.00064358       0.70743855      -1.91979907
H       -0.22864999       2.60852457      -0.54969243
H       -0.44694634       1.62544878       0.93992140
H        1.47287747       1.02924180      -1.37926014
H        2.37315322      -0.78250234      -0.19951305
H        1.41646885      -0.35982502       1.23672548
H       -0.13233342      -1.16315666      -1.22518820
16
Frame=15 idx=001870 GeodesicLength=1.3941412414707512 rxn_smarts="[C:1]([C@@:2]1([H:10])[C:3]([H:11])([H:12])[C@:4]1([C:5]([O:6][H:16])([H:14])[H:15])[H:13])([H:7])([H:8])[H:9]>>[C:1]([O:6][C:5]([C:4]1([H:13])[C:2]([H:10])([H:16])[C:3]1([H:11])[H:12])([H:14])[H:15])([H:7])([H:8])[H:9]"
C       -1.11840721      -0.95741001       0.92264654
C       -0.63846263       0.43499994      -0.93286580
C       -0.20324541       1.61826199      -0.11515905
C        0.82421417       0.65466856      -0.58964348
C        1.37006667      -0.54372126       0.15894334
O        0.54148144      -1.66514020      -0.14586148
H       -1.79787857      -1.75610206       0.61918844
H       -0.62130886      -1.23855078       1.85842543
H       -1.80429054      -0.21985080       1.35057431
H       -1.00000141       0.71219438      -1.91560002
H       -0.22299619       2.60834995      -0.55189768
H       -0.44591054       1.62803567       0.93800221
H        1.47219525       1.02150902      -1.37764583
H        2.37474110      -0.78355435      -0.19138745
H        1.40664052      -0.36750966       1.23891480
H       -0.13683780      -1.14618037      -1.26663428
16
Frame=16 idx=001870 GeodesicLength=1.4874034361233188 rxn_smarts="[C:1]([C@@:2]1([H:10])[C:3]([H:11])([H:12])[C@:4]1([C:5]([O:6][H:16])([H:14])[H:15])[H:13])([H:7])([H:8])[H:9]>>[C:1]([O:6][C:5]([C:4]1([H:13])[C:2]([H:10])([H:16])[C:3]1([H:11])[H:12])([H:14])[H:15])([H:7])([H:8])[H:9]"
C       -1.11766049      -0.94762012       0.92139209
C       -0.63844603       0.43396142      -0.93024307
C       -0.19888767       1.61909244      -0.11573513
C        0.82539430       0.65065675      -0.58477867
C        1.36775243      -0.55017157       0.16054865
O        0.54556289      -1.67149855      -0.15577691
H       -1.77667196      -1.77244421       0.63987583
H       -0.61468051      -1.20098744       1.86301381
H       -1.83384859      -0.24279950       1.35833064
H       -0.99969051       0.71716667      -1.91124263
H       -0.21707768       2.60807760      -0.55433583
H       -0.44473536       1.63077189       0.93590925
H        1.47152237       1.01345646      -1.37606119
H        2.37605503      -0.78485866      -0.18293580
H        1.39664651      -0.37505023       1.24116214
H       -0.14123474      -1.12775295      -1.30912319
