18
Frame=0 idx=009232 GeodesicLength=0.0 rxn_smarts="[C:1]([O:2][C:3]1([H:11])[C:4]([H:12])([H:13])[N:5]([C:6]([H:14])([H:15])[H:16])[C:7]1([H:17])[H:18])([H:8])([H:9])[H:10]>>[C:1]([O:2][C:3](=[C:7]([H:17])[H:18])[H:11])([H:8])([H:9])[H:10].[C:4](=[N:5][C:6]([H:14])([H:15])[H:16])([H:12])[H:13]"
C        2.36980015       0.81028461       0.58898209
O        1.24211959       1.05921789      -0.22183268
C        0.82110999      -0.02601394      -0.94074747
C       -0.40444913      -1.13201769       0.04265036
N       -1.76902425      -0.89292305      -0.10289690
C       -2.25874938       0.13863788       0.76801544
C       -0.49767926      -0.03960818      -1.41151237
H        2.60859498       1.74172050       1.09807154
H        3.22940626       0.50373083      -0.01856068
H        2.16845683       0.03539649       1.33587222
H        1.57687445      -0.70546314      -1.31920639
H       -0.08488819      -2.10972479      -0.31724911
H        0.05252217      -0.86541645       1.00961467
H       -2.09289532       1.17020962       0.39767826
H       -1.79915501       0.10042601       1.77188989
H       -3.33821488       0.02425379       0.88606364
H       -1.07839674       0.87306164      -1.32677746
H       -0.74543223      -0.68577201      -2.24005508
18
Frame=1 idx=009232 GeodesicLength=0.09898767007140612 rxn_smarts="[C:1]([O:2][C:3]1([H:11])[C:4]([H:12])([H:13])[N:5]([C:6]([H:14])([H:15])[H:16])[C:7]1([H:17])[H:18])([H:8])([H:9])[H:10]>>[C:1]([O:2][C:3](=[C:7]([H:17])[H:18])[H:11])([H:8])([H:9])[H:10].[C:4](=[N:5][C:6]([H:14])([H:15])[H:16])([H:12])[H:13]"
C        2.38489019       0.80847465       0.58227888
O        1.23963668       1.05259019      -0.20436661
C        0.82147697      -0.02638983      -0.93438864
C       -0.41262763      -1.14356664       0.06337305
N       -1.77002574      -0.89105052      -0.10220907
C       -2.27282824       0.13773440       0.76471914
C       -0.49262357      -0.03424941      -1.42095696
H        2.61259204       1.73225587       1.11023417
H        3.24008787       0.53551422      -0.04716985
H        2.21470535       0.01260081       1.31480690
H        1.58194817      -0.69381779      -1.32586125
H       -0.09776314      -2.13013109      -0.27628109
H        0.04095449      -0.86410314       1.02800505
H       -2.11469206       1.16953750       0.39383904
H       -1.81738924       0.10786482       1.77009860
H       -3.35207728       0.01733653       0.87870115
H       -1.07545607       0.87664623      -1.33198566
H       -0.73080879      -0.66724678      -2.26283685
18
Frame=2 idx=009232 GeodesicLength=0.1979041536057334 rxn_smarts="[C:1]([O:2][C:3]1([H:11])[C:4]([H:12])([H:13])[N:5]([C:6]([H:14])([H:15])[H:16])[C:7]1([H:17])[H:18])([H:8])([H:9])[H:10]>>[C:1]([O:2][C:3](=[C:7]([H:17])[H:18])[H:11])([H:8])([H:9])[H:10].[C:4](=[N:5][C:6]([H:14])([H:15])[H:16])([H:12])[H:13]"
C        2.40000880       0.80665532       0.57518531
O        1.23770269       1.04526648      -0.18711116
C        0.82200004      -0.02727180      -0.92810997
C       -0.42091685      -1.15529476       0.08486775
N       -1.77058939      -0.88918079      -0.10150094
C       -2.28706769       0.13648279       0.76131279
C       -0.48722780      -0.02848758      -1.43050800
H        2.61730535       1.72204194       1.12201550
H        3.24963897       0.56755568      -0.07527998
H        2.26095932      -0.00919627       1.29226960
H        1.58711114      -0.68215382      -1.33279204
H       -0.11154099      -2.15084742      -0.23345263
H        0.02928478      -0.86246096       1.04683132
H       -2.13684774       1.16853496       0.38999656
H       -1.83614210       0.11498862       1.76827785
H       -3.36606176       0.00971447       0.87091367
H       -1.07201614       0.88065737      -1.33666309
H       -0.71560062      -0.64700421      -2.28625256
18
Frame=3 idx=009232 GeodesicLength=0.2967917046155546 rxn_smarts="[C:1]([O:2][C:3]1([H:11])[C:4]([H:12])([H:13])[N:5]([C:6]([H:14])([H:15])[H:16])[C:7]1([H:17])[H:18])([H:8])([H:9])[H:10]>>[C:1]([O:2][C:3](=[C:7]([H:17])[H:18])[H:11])([H:8])([H:9])[H:10].[C:4](=[N:5][C:6]([H:14])([H:15])[H:16])([H:12])[H:13]"
C        2.41522669       0.80478223       0.56765288
O        1.23637174       1.03722699      -0.17008139
C        0.82268041      -0.02866699      -0.92190978
C       -0.42931253      -1.16716248       0.10723135
N       -1.77065367      -0.88733631      -0.10075056
C       -2.30154198       0.13481844       0.75774894
C       -0.48147697      -0.02226258      -1.44015007
H        2.62283062       1.71102298       1.13334517
H        3.25812336       0.59976762      -0.10296606
H        2.30729484      -0.03000863       1.26823684
H        1.59233735      -0.67046269      -1.34001347
H       -0.12627666      -2.17181033      -0.18852532
H        0.01749918      -0.86037580       1.06614795
H       -2.15952460       1.16713513       0.38607864
H       -1.85553310       0.12180278       1.76639478
H       -3.38022658       0.00122335       0.86260929
H       -1.06806682       0.88513457      -1.34074030
H       -0.69975129      -0.62482829      -2.31030891
18
Frame=4 idx=009232 GeodesicLength=0.39569956393609346 rxn_smarts="[C:1]([O:2][C:3]1([H:11])[C:4]([H:12])([H:13])[N:5]([C:6]([H:14])([H:15])[H:16])[C:7]1([H:17])[H:18])([H:8])([H:9])[H:10]>>[C:1]([O:2][C:3](=[C:7]([H:17])[H:18])[H:11])([H:8])([H:9])[H:10].[C:4](=[N:5][C:6]([H:14])([H:15])[H:16])([H:12])[H:13]"
C        2.43062352       0.80280421       0.55962499
O        1.23570637       1.02845027      -0.15328488
C        0.82352365      -0.03058334      -0.91579136
C       -0.43780620      -1.17912113       0.13057631
N       -1.77014388      -0.88553763      -0.09992784
C       -2.31633394       0.13266775       0.75396658
C       -0.47535271      -0.01550569      -1.44986024
H        2.62924964       1.69912920       1.14420665
H        3.26559886       0.63211670      -0.13035142
H        2.35382334      -0.04992242       1.24262693
H        1.59759544      -0.65874674      -1.34753708
H       -0.14205519      -2.19294354      -0.14119345
H        0.00558326      -0.85770986       1.08601757
H       -2.18290646       1.16525284       0.38198229
H       -1.87569336       0.12832235       1.76439998
H       -3.39462213      -0.00831821       0.85367565
H       -1.06359618       0.89011821      -1.34413428
H       -0.68319404      -0.60047295      -2.33499643
18
Frame=5 idx=009232 GeodesicLength=0.49465321559066516 rxn_smarts="[C:1]([O:2][C:3]1([H:11])[C:4]([H:12])([H:13])[N:5]([C:6]([H:14])([H:15])[H:16])[C:7]1([H:17])[H:18])([H:8])([H:9])[H:10]>>[C:1]([O:2][C:3](=[C:7]([H:17])[H:18])[H:11])([H:8])([H:9])[H:10].[C:4](=[N:5][C:6]([H:14])([H:15])[H:16])([H:12])[H:13]"
C        2.44624958       0.80069576       0.55106148
O        1.23574989       1.01891498      -0.13673565
C        0.82453877      -0.03303385      -0.90977020
C       -0.44638934      -1.19114190       0.15498945
N       -1.76898945      -0.88380111      -0.09899599
C       -2.33149205       0.12997229       0.74992376
C       -0.46883546      -0.00816414      -1.45962823
H        2.63662762       1.68631261       1.15455382
H        3.27209602       0.66455334      -0.15747300
H        2.40060968      -0.06898366       1.21536154
H        1.60286861      -0.64700564      -1.35537359
H       -0.15900087      -2.21416642      -0.09121287
H       -0.00645751      -0.85437695       1.10648096
H       -2.20712614       1.16281746       0.37763017
H       -1.89671599       0.13455376       1.76225774
H       -3.40927854      -0.01906116       0.84403386
H       -1.05859189       0.89564305      -1.34679054
H       -0.66586292      -0.57372843      -2.36031272
18
Frame=6 idx=009232 GeodesicLength=0.593685043525786 rxn_smarts="[C:1]([O:2][C:3]1([H:11])[C:4]([H:12])([H:13])[N:5]([C:6]([H:14])([H:15])[H:16])[C:7]1([H:17])[H:18])([H:8])([H:9])[H:10]>>[C:1]([O:2][C:3](=[C:7]([H:17])[H:18])[H:11])([H:8])([H:9])[H:10].[C:4](=[N:5][C:6]([H:14])([H:15])[H:16])([H:12])[H:13]"
C        2.46217337       0.79838067       0.54189215
O        1.23656909       1.00858813      -0.12045455
C        0.82572381      -0.03603122      -0.90386418
C       -0.45504685      -1.20316984       0.18059844
N       -1.76710103      -0.88215879      -0.09791305
C       -2.34708214       0.12663881       0.74554959
C       -0.46191439      -0.00015803      -1.46943804
H        2.64507503       1.67249566       1.16433205
H        3.27764585       0.69700050      -0.18441999
H        2.44770086      -0.08724709       1.18635689
H        1.60811509      -0.63525872      -1.36353562
H       -0.17720159      -2.23533166      -0.03822686
H       -0.01863184      -0.85022478       1.12759182
H       -2.23236012       1.15971189       0.37289389
H       -1.91872739       0.14049271       1.75990425
H       -3.42421080      -0.03122393       0.83355746
H       -1.05304457       0.90175115      -1.34859961
H       -0.64768238      -0.54425546      -2.38622464
18
Frame=7 idx=009232 GeodesicLength=0.6928028587868035 rxn_smarts="[C:1]([O:2][C:3]1([H:11])[C:4]([H:12])([H:13])[N:5]([C:6]([H:14])([H:15])[H:16])[C:7]1([H:17])[H:18])([H:8])([H:9])[H:10]>>[C:1]([O:2][C:3](=[C:7]([H:17])[H:18])[H:11])([H:8])([H:9])[H:10].[C:4](=[N:5][C:6]([H:14])([H:15])[H:16])([H:12])[H:13]"
C        2.47842635       0.79581467       0.53207278
O        1.23820466       0.99744016      -0.10446661
C        0.82707783      -0.03958928      -0.89810140
C       -0.46376527      -1.21517064       0.20750221
N       -1.76439728      -0.88063313      -0.09663274
C       -2.36314241       0.12258819       0.74079699
C       -0.45457619       0.00857410      -1.47929305
H        2.65468610       1.65761923       1.17344423
H        3.28225784       0.72936918      -0.21117341
H        2.49509803      -0.10472701       1.15553930
H        1.61330545      -0.62352092      -1.37202766
H       -0.19677278      -2.25629382       0.01801529
H       -0.03092995      -0.84515979       1.14937385
H       -2.25872895       1.15584087       0.36767600
H       -1.94180680       0.14613890       1.75729414
H       -3.43941280      -0.04498080       0.82217665
H       -1.04694801       0.90846722      -1.34950002
H       -0.62857581      -0.51177713      -2.41269655
18
Frame=8 idx=009232 GeodesicLength=0.7920274340921494 rxn_smarts="[C:1]([O:2][C:3]1([H:11])[C:4]([H:12])([H:13])[N:5]([C:6]([H:14])([H:15])[H:16])[C:7]1([H:17])[H:18])([H:8])([H:9])[H:10]>>[C:1]([O:2][C:3](=[C:7]([H:17])[H:18])[H:11])([H:8])([H:9])[H:10].[C:4](=[N:5][C:6]([H:14])([H:15])[H:16])([H:12])[H:13]"
C        2.49505159       0.79292240       0.52153008
O        1.24070189       0.98542941      -0.08878837
C        0.82858652      -0.04371490      -0.89251577
C       -0.47251707      -1.22709414       0.23582933
N       -1.76077138      -0.87925819      -0.09510046
C       -2.37970722       0.11771199       0.73558481
C       -0.44680690       0.01812176      -1.48918734
H        2.66556357       1.64160703       1.18181712
H        3.28594147       0.76159031      -0.23776818
H        2.54281420      -0.12151341       1.12277160
H        1.61838440      -0.61182205      -1.38085718
H       -0.21785713      -2.27682681       0.07793134
H       -0.04333955      -0.83904770       1.17186651
H       -2.28637120       1.15105904       0.36182912
H       -1.96607279       0.15147195       1.75435455
H       -3.45485572      -0.06055886       0.80976476
H       -1.04029455       0.91582890      -1.34939735
H       -0.60845013      -0.47590671      -2.43966458
18
Frame=9 idx=009232 GeodesicLength=0.8912895003325033 rxn_smarts="[C:1]([O:2][C:3]1([H:11])[C:4]([H:12])([H:13])[N:5]([C:6]([H:14])([H:15])[H:16])[C:7]1([H:17])[H:18])([H:8])([H:9])[H:10]>>[C:1]([O:2][C:3](=[C:7]([H:17])[H:18])[H:11])([H:8])([H:9])[H:10].[C:4](=[N:5][C:6]([H:14])([H:15])[H:16])([H:12])[H:13]"
C        2.51219570       0.78946809       0.51011311
O        1.24417115       0.97249872      -0.07351991
C        0.83016696      -0.04840281      -0.88717572
C       -0.48124970      -1.23871163       0.26592602
N       -1.75607322      -0.87810050      -0.09321209
C       -2.39695374       0.11175336       0.72969983
C       -0.43865568       0.02871322      -1.49904187
H        2.67805590       1.62416647       1.18924677
H        3.28895694       0.79346291      -0.26432350
H        2.59081230      -0.13793459       1.08788764
H        1.62318451      -0.60024736      -1.39015711
H       -0.24009459      -2.29632077       0.14221620
H       -0.05594520      -0.83133030       1.19521365
H       -2.31565636       1.14501612       0.35497738
H       -1.99195023       0.15640843       1.75088063
H       -3.47058447      -0.07848538       0.79598430
H       -1.03308927       0.92394723      -1.34798245
H       -0.58729101      -0.43590121      -2.46673288
18
Frame=10 idx=009232 GeodesicLength=0.9906440951610268 rxn_smarts="[C:1]([O:2][C:3]1([H:11])[C:4]([H:12])([H:13])[N:5]([C:6]([H:14])([H:15])[H:16])[C:7]1([H:17])[H:18])([H:8])([H:9])[H:10]>>[C:1]([O:2][C:3](=[C:7]([H:17])[H:18])[H:11])([H:8])([H:9])[H:10].[C:4](=[N:5][C:6]([H:14])([H:15])[H:16])([H:12])[H:13]"
C        2.52984047       0.78547475       0.49781242
O        1.24866114       0.95863902      -0.05864450
C        0.83186943      -0.05363632      -0.88209431
C       -0.48994647      -1.25001292       0.29780819
N       -1.75019783      -0.87714133      -0.09090293
C       -2.41482330       0.10466974       0.72314687
C       -0.43007145       0.04037578      -1.50887878
H        2.69210206       1.60531367       1.19575264
H        3.29115686       0.82492720      -0.29087608
H        2.63910726      -0.15388906       1.05081589
H        1.62772553      -0.58883265      -1.39980873
H       -0.26403557      -2.31473863       0.21094529
H       -0.06866043      -0.82210788       1.21938225
H       -2.34664668       1.13761566       0.34704320
H       -2.01933924       0.16102137       1.74684973
H       -3.48647559      -0.09890006       0.78090133
H       -1.02533027       0.93283655      -1.34528559
H       -0.56493594      -0.39161490      -2.49396689
18
Frame=11 idx=009232 GeodesicLength=1.0900867196898585 rxn_smarts="[C:1]([O:2][C:3]1([H:11])[C:4]([H:12])([H:13])[N:5]([C:6]([H:14])([H:15])[H:16])[C:7]1([H:17])[H:18])([H:8])([H:9])[H:10]>>[C:1]([O:2][C:3](=[C:7]([H:17])[H:18])[H:11])([H:8])([H:9])[H:10].[C:4](=[N:5][C:6]([H:14])([H:15])[H:16])([H:12])[H:13]"
C        2.54801702       0.78085800       0.48455999
O        1.25421658       0.94380944      -0.04419911
C        0.83367876      -0.05940395      -0.87732903
C       -0.49857641      -1.26092497       0.33161148
N       -1.74302397      -0.87639815      -0.08808424
C       -2.43333869       0.09633689       0.71585212
C       -0.42104675       0.05322052      -1.51870030
H        2.70780492       1.58493473       1.20123813
H        3.29256378       0.85586171      -0.31744739
H        2.68764406      -0.16945610       1.01146002
H        1.63194990      -0.57762800      -1.40982052
H       -0.28985432      -2.33168314       0.28441375
H       -0.08145623      -0.81124214       1.24437900
H       -2.37950653       1.12865567       0.33782998
H       -2.04832885       0.16529681       1.74215398
H       -3.50246761      -0.12208673       0.76443845
H       -1.01701884       0.94251773      -1.34121136
H       -0.54125683      -0.34266835      -2.52114494
18
Frame=12 idx=009232 GeodesicLength=1.1895904366456809 rxn_smarts="[C:1]([O:2][C:3]1([H:11])[C:4]([H:12])([H:13])[N:5]([C:6]([H:14])([H:15])[H:16])[C:7]1([H:17])[H:18])([H:8])([H:9])[H:10]>>[C:1]([O:2][C:3](=[C:7]([H:17])[H:18])[H:11])([H:8])([H:9])[H:10].[C:4](=[N:5][C:6]([H:14])([H:15])[H:16])([H:12])[H:13]"
C        2.56676035       0.77548808       0.47027642
O        1.26089585       0.92796423      -0.03021952
C        0.83555669      -0.06567135      -0.87293554
C       -0.50709340      -1.27130571       0.36753323
N       -1.73441028      -0.87588374      -0.08464108
C       -2.45251460       0.08656485       0.70768431
C       -0.41158588       0.06739850      -1.52847698
H        2.72530627       1.56287126       1.20560036
H        3.29320502       0.88611965      -0.34407703
H        2.73633903      -0.18479005       0.96965712
H        1.63576624      -0.56671762      -1.42019628
H       -0.31767947      -2.34667596       0.36298989
H       -0.09432071      -0.79849748       1.27023691
H       -2.41441969       1.11782387       0.32702631
H       -2.07905510       0.16924365       1.73662770
H       -3.51842918      -0.14842446       0.74649584
H       -1.00816758       0.95305253      -1.33561607
H       -0.51615356      -0.28856024      -2.54796559
18
Frame=13 idx=009232 GeodesicLength=1.2891483338437986 rxn_smarts="[C:1]([O:2][C:3]1([H:11])[C:4]([H:12])([H:13])[N:5]([C:6]([H:14])([H:15])[H:16])[C:7]1([H:17])[H:18])([H:8])([H:9])[H:10]>>[C:1]([O:2][C:3](=[C:7]([H:17])[H:18])[H:11])([H:8])([H:9])[H:10].[C:4](=[N:5][C:6]([H:14])([H:15])[H:16])([H:12])[H:13]"
C        2.58629586       0.76902586       0.45477421
O        1.26892430       0.91110205      -0.01683929
C        0.83741232      -0.07230441      -0.86900629
C       -0.51540154      -1.28075442       0.40598465
N       -1.72413371      -0.87568049      -0.08040203
C       -2.47258011       0.07494676       0.69836945
C       -0.40175062       0.08327605      -1.53807665
H        2.74512306       1.53874659       1.20854765
H        3.29345481       0.91519085      -0.37088719
H        2.78506887      -0.20026342       0.92525476
H        1.63894451      -0.55619791      -1.43107663
H       -0.34724993      -2.35875372       0.44742015
H       -0.10732068      -0.78313765       1.29709102
H       -2.45201460       1.10451934       0.31403626
H       -2.11201783       0.17280497       1.72993514
H       -3.53435940      -0.17880197       0.72677572
H       -0.99883508       0.96462151      -1.32808702
H       -0.48956024      -0.22833999      -2.57381390
18
Frame=14 idx=009232 GeodesicLength=1.3887753410633294 rxn_smarts="[C:1]([O:2][C:3]1([H:11])[C:4]([H:12])([H:13])[N:5]([C:6]([H:14])([H:15])[H:16])[C:7]1([H:17])[H:18])([H:8])([H:9])[H:10]>>[C:1]([O:2][C:3](=[C:7]([H:17])[H:18])[H:11])([H:8])([H:9])[H:10].[C:4](=[N:5][C:6]([H:14])([H:15])[H:16])([H:12])[H:13]"
C        2.60650143       0.76148790       0.43805607
O        1.27823811       0.89315848      -0.00401662
C        0.83924533      -0.07929876      -0.86557315
C       -0.52350743      -1.28927478       0.44699309
N       -1.71210315      -0.87572149      -0.07525035
C       -2.49334193       0.06144863       0.68790642
C       -0.39151373       0.10087411      -1.54755570
H        2.76708946       1.51254257       1.21010567
H        3.29310175       0.94315722      -0.39782991
H        2.83373146      -0.21584954       0.87812457
H        1.64149624      -0.54614686      -1.44235175
H       -0.37911945      -2.36763752       0.53758614
H       -0.12036405      -0.76533928       1.32485728
H       -2.49215665       1.08854069       0.29868762
H       -2.14700337       0.17606835       1.72198782
H       -3.54994775      -0.21328159       0.70542997
H       -0.98903143       0.97717259      -1.31870322
H       -0.46131483      -0.16190072      -2.59845397
18
Frame=15 idx=009232 GeodesicLength=1.4884558395907157 rxn_smarts="[C:1]([O:2][C:3]1([H:11])[C:4]([H:12])([H:13])[N:5]([C:6]([H:14])([H:15])[H:16])[C:7]1([H:17])[H:18])([H:8])([H:9])[H:10]>>[C:1]([O:2][C:3](=[C:7]([H:17])[H:18])[H:11])([H:8])([H:9])[H:10].[C:4](=[N:5][C:6]([H:14])([H:15])[H:16])([H:12])[H:13]"
C        2.62731843       0.75276520       0.42007289
O        1.28878904       0.87406355       0.00823519
C        0.84097023      -0.08659191      -0.86271117
C       -0.53139681      -1.29674621       0.49070427
N       -1.69818286      -0.87598923      -0.06903223
C       -2.51469475       0.04592748       0.67621218
C       -0.38087963       0.12032631      -1.55692667
H        2.79119689       1.48410259       1.21020050
H        3.29213721       0.96993245      -0.42487057
H        2.88216024      -0.23166550       0.82815800
H        1.64333090      -0.53662238      -1.45403565
H       -0.41348848      -2.37268732       0.63349962
H       -0.13338678      -0.74503519       1.35350454
H       -2.53482602       1.06956927       0.28068852
H       -2.18400459       0.17905083       1.71259889
H       -3.56495447      -0.25211856       0.68248789
H       -0.97881022       0.99069693      -1.30743725
H       -0.43127832      -0.08897829      -2.62134896
18
Frame=16 idx=009232 GeodesicLength=1.5882198912437981 rxn_smarts="[C:1]([O:2][C:3]1([H:11])[C:4]([H:12])([H:13])[N:5]([C:6]([H:14])([H:15])[H:16])[C:7]1([H:17])[H:18])([H:8])([H:9])[H:10]>>[C:1]([O:2][C:3](=[C:7]([H:17])[H:18])[H:11])([H:8])([H:9])[H:10].[C:4](=[N:5][C:6]([H:14])([H:15])[H:16])([H:12])[H:13]"
C        2.64882434       0.74262185       0.40071570
O        1.30067188       0.85378194       0.01986973
C        0.84249565      -0.09405019      -0.86049145
C       -0.53904321      -1.30283085       0.53742299
N       -1.68219886      -0.87646214      -0.06153930
C       -2.53664795       0.02807094       0.66308514
C       -0.36990184       0.14193209      -1.56610676
H        2.81770072       1.45311325       1.20867163
H        3.29073325       0.99523357      -0.45204596
H        2.93018811      -0.24798778       0.77516549
H        1.64428842      -0.52771441      -1.46619818
H       -0.45037582      -2.37298619       0.73536647
H       -0.14642456      -0.72178472       1.38307055
H       -2.58026189       1.04701032       0.25950052
H       -2.22326224       0.18171993       1.70143290
H       -3.57912623      -0.29591897       0.65785220
H       -0.96825702       1.00529353      -1.29405843
H       -0.39940276      -0.00904216      -2.64171325
