16
Frame=0 idx=000038 GeodesicLength=0.0 rxn_smarts="[O:1]([C:2]1([H:8])[C:3]([H:9])([H:10])[C:4]([H:11])([H:12])[C:5]([H:13])([H:14])[C:6]1([H:15])[H:16])[H:7]>>[O:1]([C:4]([C:5]([C:6]([C:2](=[C:3]([H:9])[H:10])[H:8])([H:15])[H:16])([H:13])[H:14])([H:11])[H:12])[H:7]"
O       -1.22989946      -0.32463450       0.91591665
C       -1.00620231       0.13747775      -0.48942905
C       -0.44694728      -0.99101985      -1.22048594
C        0.73510504      -0.62115762       1.14600529
C        1.19974731       0.58480653       0.40602414
C       -0.02508535       1.26578658      -0.25426946
H       -1.43354734      -1.26405762       0.81069432
H       -1.99421416       0.50204343      -0.79836690
H       -1.15851289      -1.72523118      -1.59291327
H        0.35399035      -0.78057769      -1.92245213
H        1.08097075      -1.58875548       0.82164020
H        0.54307636      -0.52502898       2.20844126
H        1.69925191       1.28279999       1.08306515
H        1.90423811       0.27341586      -0.36482189
H       -0.45775277       1.99586037       0.43130185
H        0.23578173       1.77827247      -1.18035015
16
Frame=1 idx=000038 GeodesicLength=0.09342705450987113 rxn_smarts="[O:1]([C:2]1([H:8])[C:3]([H:9])([H:10])[C:4]([H:11])([H:12])[C:5]([H:13])([H:14])[C:6]1([H:15])[H:16])[H:7]>>[O:1]([C:4]([C:5]([C:6]([C:2](=[C:3]([H:9])[H:10])[H:8])([H:15])[H:16])([H:13])[H:14])([H:11])[H:12])[H:7]"
O       -1.23448099      -0.31480458       0.93663148
C       -1.00566890       0.14054562      -0.49917448
C       -0.44079792      -0.98933912      -1.22001099
C        0.72899614      -0.63040617       1.13067982
C        1.19764617       0.58781797       0.40929386
C       -0.02280105       1.26684249      -0.26037016
H       -1.46320709      -1.24951083       0.84658728
H       -1.99658751       0.49508677      -0.80713033
H       -1.14680470      -1.73240592      -1.58571496
H        0.34928432      -0.77780880      -1.93435055
H        1.09056261      -1.59302318       0.80637409
H        0.55923480      -0.54845316       2.19853280
H        1.68418503       1.28217371       1.09912436
H        1.91568726       0.28891152      -0.35418464
H       -0.45986123       1.99883529       0.42035350
H        0.24461305       1.77553841      -1.18664108
16
Frame=2 idx=000038 GeodesicLength=0.18673949738789658 rxn_smarts="[O:1]([C:2]1([H:8])[C:3]([H:9])([H:10])[C:4]([H:11])([H:12])[C:5]([H:13])([H:14])[C:6]1([H:15])[H:16])[H:7]>>[O:1]([C:4]([C:5]([C:6]([C:2](=[C:3]([H:9])[H:10])[H:8])([H:15])[H:16])([H:13])[H:14])([H:11])[H:12])[H:7]"
O       -1.23864270      -0.30478545       0.95780988
C       -1.00502547       0.14351622      -0.50934606
C       -0.43449056      -0.98744904      -1.22020044
C        0.72263243      -0.63966107       1.11517409
C        1.19533803       0.59066799       0.41270960
C       -0.02049119       1.26779869      -0.26656218
H       -1.49239655      -1.23388388       0.88361866
H       -1.99912816       0.48766418      -0.81545205
H       -1.13477453      -1.73966231      -1.57847967
H        0.34456682      -0.77498742      -1.94675768
H        1.10005593      -1.59697651       0.79088430
H        0.57512938      -0.57212696       2.18781285
H        1.66860647       1.28116741       1.11525929
H        1.92698000       0.30429738      -0.34284294
H       -0.46205987       2.00165479       0.40923266
H        0.25369996       1.77276598      -1.19286031
16
Frame=3 idx=000038 GeodesicLength=0.2799676834036666 rxn_smarts="[O:1]([C:2]1([H:8])[C:3]([H:9])([H:10])[C:4]([H:11])([H:12])[C:5]([H:13])([H:14])[C:6]1([H:15])[H:16])[H:7]>>[O:1]([C:4]([C:5]([C:6]([C:2](=[C:3]([H:9])[H:10])[H:8])([H:15])[H:16])([H:13])[H:14])([H:11])[H:12])[H:7]"
O       -1.24236358      -0.29458563       0.97947218
C       -1.00426463       0.14638725      -0.51997468
C       -0.42800424      -0.98535533      -1.22108135
C        0.71599692      -0.64891590       1.09949757
C        1.19281245       0.59334091       0.41626456
C       -0.01815836       1.26864917      -0.27284210
H       -1.52105996      -1.21716499       0.92189291
H       -2.00183591       0.47974064      -0.82331792
H       -1.12238297      -1.74695988      -1.57127732
H        0.33984810      -0.77209790      -1.95970682
H        1.10939738      -1.60061215       0.77518058
H        0.59071617      -0.59599525       2.17628269
H        1.65251866       1.27976604       1.13143855
H        1.93808988       0.31953991      -0.33079072
H       -0.46435713       2.00429815       0.39795137
H        0.26304724       1.76996496      -1.19898950
16
Frame=4 idx=000038 GeodesicLength=0.37315175025822334 rxn_smarts="[O:1]([C:2]1([H:8])[C:3]([H:9])([H:10])[C:4]([H:11])([H:12])[C:5]([H:13])([H:14])[C:6]1([H:15])[H:16])[H:7]>>[O:1]([C:4]([C:5]([C:6]([C:2](=[C:3]([H:9])[H:10])[H:8])([H:15])[H:16])([H:13])[H:14])([H:11])[H:12])[H:7]"
O       -1.24562289      -0.28421553       1.00164019
C       -1.00337769       0.14915705      -0.53109886
C       -0.42131542      -0.98306342      -1.22268431
C        0.70906784      -0.65816518       1.08365904
C        1.19005713       0.59582011       0.41995139
C       -0.01580758       1.26938767      -0.27920651
H       -1.54912967      -1.19932778       0.96153088
H       -2.00470960       0.47127574      -0.83071431
H       -1.10958819      -1.75425582      -1.56418713
H        0.33514346      -0.76912528      -1.97323157
H        1.11852723      -1.60393044       0.75927472
H        0.60595048      -0.62000334       2.16394449
H        1.63592319       1.27795452       1.14763050
H        1.94898865       0.33460136      -0.31802266
H       -0.46676559       2.00674188       0.38652208
H        0.27265865       1.76714845      -1.20500792
16
Frame=5 idx=000038 GeodesicLength=0.4662990979048328 rxn_smarts="[O:1]([C:2]1([H:8])[C:3]([H:9])([H:10])[C:4]([H:11])([H:12])[C:5]([H:13])([H:14])[C:6]1([H:15])[H:16])[H:7]>>[O:1]([C:4]([C:5]([C:6]([C:2](=[C:3]([H:9])[H:10])[H:8])([H:15])[H:16])([H:13])[H:14])([H:11])[H:12])[H:7]"
O       -1.24840118      -0.27368182       1.02433224
C       -1.00235759       0.15182427      -0.54275112
C       -0.41439879      -0.98057517      -1.22504025
C        0.70181740      -0.66740179       1.06766996
C        1.18706034       0.59808882       0.42375967
C       -0.01344320       1.27000944      -0.28565089
H       -1.57653598      -1.18035302       1.00264879
H       -2.00774518       0.46222708      -0.83762768
H       -1.09633850      -1.76151480      -1.55728409
H        0.33046916      -0.76604698      -1.98736462
H        1.12738050      -1.60693267       0.74317911
H        0.62077907      -0.64409602       2.15080403
H        1.61883026       1.27571774       1.16379770
H        1.95964414       0.34944002      -0.30453801
H       -0.46929542       2.00896584       0.37495921
H        0.28253499       1.76432905      -1.21089406
16
Frame=6 idx=000038 GeodesicLength=0.5594497084932175 rxn_smarts="[O:1]([C:2]1([H:8])[C:3]([H:9])([H:10])[C:4]([H:11])([H:12])[C:5]([H:13])([H:14])[C:6]1([H:15])[H:16])[H:7]>>[O:1]([C:4]([C:5]([C:6]([C:2](=[C:3]([H:9])[H:10])[H:8])([H:15])[H:16])([H:13])[H:14])([H:11])[H:12])[H:7]"
O       -1.25068207      -0.26299802       1.04756855
C       -1.00119412       0.15439420      -0.55498273
C       -0.40722751      -0.97789419      -1.22817969
C        0.69421615      -0.67661982       1.05153823
C        1.18380821       0.60013052       0.42767827
C       -0.01107209       1.27051124      -0.29217137
H       -1.60319083      -1.16021152       1.04537648
H       -2.01093445       0.45254531      -0.84404083
H       -1.08259407      -1.76869437      -1.55066137
H        0.32584782      -0.76285164      -2.00213508
H        1.13589051      -1.60962500       0.72691253
H        0.63514477      -0.66821420       2.13687535
H        1.60124944       1.27304294       1.17990137
H        1.97002297       0.36401167      -0.29033667
H       -0.47196394       2.01094440       0.36327992
H        0.29267920       1.76152847      -1.21662297
16
Frame=7 idx=000038 GeodesicLength=0.6526285710169254 rxn_smarts="[O:1]([C:2]1([H:8])[C:3]([H:9])([H:10])[C:4]([H:11])([H:12])[C:5]([H:13])([H:14])[C:6]1([H:15])[H:16])[H:7]>>[O:1]([C:4]([C:5]([C:6]([C:2](=[C:3]([H:9])[H:10])[H:8])([H:15])[H:16])([H:13])[H:14])([H:11])[H:12])[H:7]"
O       -1.25245532      -0.25217648       1.07136916
C       -0.99987845       0.15687642      -0.56784490
C       -0.39977246      -0.97501901      -1.23213302
C        0.68622682      -0.68581422       1.03527378
C        1.18028579       0.60192747       0.43169263
C       -0.00870232       1.27089147      -0.29876273
H       -1.62899824      -1.13886964       1.08984387
H       -2.01426311       0.44217689      -0.84994190
H       -1.06830344      -1.77576061      -1.54440382
H        0.32130464      -0.75952396      -2.01756929
H        1.14398402      -1.61201671       0.71049220
H        0.64898556      -0.69230176       2.12217286
H        1.58319623       1.26991499       1.19589959
H        1.98008736       0.37827173      -0.27542591
H       -0.47478883       2.01265285       0.35150371
H        0.30309173       1.75877057      -1.22216625
16
Frame=8 idx=000038 GeodesicLength=0.745863414092853 rxn_smarts="[O:1]([C:2]1([H:8])[C:3]([H:9])([H:10])[C:4]([H:11])([H:12])[C:5]([H:13])([H:14])[C:6]1([H:15])[H:16])[H:7]>>[O:1]([C:4]([C:5]([C:6]([C:2](=[C:3]([H:9])[H:10])[H:8])([H:15])[H:16])([H:13])[H:14])([H:11])[H:12])[H:7]"
O       -1.25370913      -0.24123900       1.09574892
C       -0.99840002       0.15928174      -0.58139927
C       -0.39200029      -0.97194583      -1.23693657
C        0.67780416      -0.69497929       1.01888207
C        1.17647450       0.60346091       0.43578900
C       -0.00634464       1.27114756      -0.30542238
H       -1.65384003      -1.11626768       1.13621506
H       -2.01771531       0.43105777      -0.85531626
H       -1.05341779      -1.78267550      -1.53861628
H        0.31687493      -0.75604391      -2.03369619
H        1.15158304      -1.61411795       0.69394116
H        0.66223418      -0.71630935       2.10671510
H        1.56468241       1.26632246       1.21175056
H        1.98979567       0.39216456      -0.25980986
H       -0.47779426       2.01406433       0.33964824
H        0.31377257       1.75607918      -1.22749330
16
Frame=9 idx=000038 GeodesicLength=0.8391700904831433 rxn_smarts="[O:1]([C:2]1([H:8])[C:3]([H:9])([H:10])[C:4]([H:11])([H:12])[C:5]([H:13])([H:14])[C:6]1([H:15])[H:16])[H:7]>>[O:1]([C:4]([C:5]([C:6]([C:2](=[C:3]([H:9])[H:10])[H:8])([H:15])[H:16])([H:13])[H:14])([H:11])[H:12])[H:7]"
O       -1.25447147      -0.23012867       1.12079558
C       -0.99676123       0.16158135      -0.59569027
C       -0.38384564      -0.96867727      -1.24261590
C        0.66889795      -0.70413581       1.00237627
C        1.17234815       0.60470820       0.43995115
C       -0.00404417       1.27125440      -0.31213000
H       -1.67767620      -1.09208823       1.18448974
H       -2.02117586       0.41897795      -0.86008811
H       -1.03784643      -1.78940975      -1.53344763
H        0.31261247      -0.75238104      -2.05053772
H        1.15857608      -1.61599222       0.67722942
H        0.67494836      -0.74023947       2.09059380
H        1.54573617       1.26225382       1.22740221
H        1.99907754       0.40566899      -0.24351368
H       -0.48103164       2.01512968       0.32774380
H        0.32465593       1.75347808      -1.23255866
16
Frame=10 idx=000038 GeodesicLength=0.9325315133934626 rxn_smarts="[O:1]([C:2]1([H:8])[C:3]([H:9])([H:10])[C:4]([H:11])([H:12])[C:5]([H:13])([H:14])[C:6]1([H:15])[H:16])[H:7]>>[O:1]([C:4]([C:5]([C:6]([C:2](=[C:3]([H:9])[H:10])[H:8])([H:15])[H:16])([H:13])[H:14])([H:11])[H:12])[H:7]"
O       -1.25470200      -0.21892203       1.14645996
C       -0.99494316       0.16382303      -0.61079825
C       -0.37530270      -0.96520221      -1.24920770
C        0.65945259      -0.71325179       0.98575739
C        1.16789121       0.60565506       0.44416604
C       -0.00178481       1.27123604      -0.31889499
H       -1.70030001      -1.06650806       1.23493348
H       -2.02468730       0.40598864      -0.86428835
H       -1.02157416      -1.79592649      -1.52894588
H        0.30854351      -0.74853416      -2.06811701
H        1.16490214      -1.61760758       0.66042853
H        0.68693995      -0.76399907       2.07375901
H        1.52636349       1.25770189       1.24282608
H        2.00791074       0.41869739      -0.22653827
H       -0.48450557       2.01584549       0.31580481
H        0.33579608       1.75100381      -1.23734485
16
Frame=11 idx=000038 GeodesicLength=1.0259381461863704 rxn_smarts="[O:1]([C:2]1([H:8])[C:3]([H:9])([H:10])[C:4]([H:11])([H:12])[C:5]([H:13])([H:14])[C:6]1([H:15])[H:16])[H:7]>>[O:1]([C:4]([C:5]([C:6]([C:2](=[C:3]([H:9])[H:10])[H:8])([H:15])[H:16])([H:13])[H:14])([H:11])[H:12])[H:7]"
O       -1.25440881      -0.20762674       1.17275464
C       -0.99293665       0.16601990      -0.62679816
C       -0.36633574      -0.96151677      -1.25674226
C        0.64941190      -0.72232473       0.96902889
C        1.16308000       0.60628536       0.44842015
C        0.00041516       1.27109543      -0.32571387
H       -1.72157814      -1.03945489       1.28769437
H       -2.02819669       0.39201050      -0.86790183
H       -1.00455468      -1.80218645      -1.52520817
H        0.30472109      -0.74449601      -2.08644902
H        1.17047219      -1.61899167       0.64356020
H        0.69815323      -0.78755287       2.05623575
H        1.50657809       1.25266265       1.25798549
H        2.01624971       0.43119669      -0.20889747
H       -0.48825148       2.01618212       0.30385314
H        0.34718081       1.74869747      -1.24182184
16
Frame=12 idx=000038 GeodesicLength=1.1193877508395063 rxn_smarts="[O:1]([C:2]1([H:8])[C:3]([H:9])([H:10])[C:4]([H:11])([H:12])[C:5]([H:13])([H:14])[C:6]1([H:15])[H:16])[H:7]>>[O:1]([C:4]([C:5]([C:6]([C:2](=[C:3]([H:9])[H:10])[H:8])([H:15])[H:16])([H:13])[H:14])([H:11])[H:12])[H:7]"
O       -1.25359624      -0.19625073       1.19970306
C       -0.99073084       0.16819320      -0.64377012
C       -0.35690333      -0.95760860      -1.26524997
C        0.63870484      -0.73134596       0.95219579
C        1.15788618       0.60658026       0.45269521
C        0.00253723       1.27083609      -0.33258380
H       -1.74136637      -1.01086534       1.34292419
H       -2.03164116       0.37694986      -0.87090218
H       -0.98673513      -1.80815235      -1.52233643
H        0.30120618      -0.74025082      -2.10554964
H        1.17518724      -1.62016763       0.62665195
H        0.70851661      -0.81086047       2.03804248
H        1.48639630       1.24713160       1.27284000
H        2.02404306       0.44310068      -0.19061487
H       -0.49230723       2.01611351       0.29190811
H        0.35880266       1.74659671      -1.24595378
16
Frame=13 idx=000038 GeodesicLength=1.2128569586728701 rxn_smarts="[O:1]([C:2]1([H:8])[C:3]([H:9])([H:10])[C:4]([H:11])([H:12])[C:5]([H:13])([H:14])[C:6]1([H:15])[H:16])[H:7]>>[O:1]([C:4]([C:5]([C:6]([C:2](=[C:3]([H:9])[H:10])[H:8])([H:15])[H:16])([H:13])[H:14])([H:11])[H:12])[H:7]"
O       -1.25228086      -0.18480806       1.22731971
C       -0.98831747       0.17036344      -0.66179869
C       -0.34696332      -0.95346399      -1.27476383
C        0.62725726      -0.74031486       0.93525687
C        1.15227742       0.60652051       0.45697552
C        0.00455591       1.27046016      -0.33950228
H       -1.75948682      -0.98063420       1.40078572
H       -2.03494090       0.36070595      -0.87326608
H       -0.96806253      -1.81379036      -1.52043121
H        0.29806923      -0.73578296      -2.12543141
H        1.17894592      -1.62116850       0.60972270
H        0.71795146      -0.83389362       2.01920610
H        1.46582916       1.24110400       1.28735426
H        2.03123733       0.45434832      -0.17171237
H       -0.49671716       2.01561011       0.27998970
H        0.37064539       1.74474405      -1.24970473
16
Frame=14 idx=000038 GeodesicLength=1.3063401474605967 rxn_smarts="[O:1]([C:2]1([H:8])[C:3]([H:9])([H:10])[C:4]([H:11])([H:12])[C:5]([H:13])([H:14])[C:6]1([H:15])[H:16])[H:7]>>[O:1]([C:4]([C:5]([C:6]([C:2](=[C:3]([H:9])[H:10])[H:8])([H:15])[H:16])([H:13])[H:14])([H:11])[H:12])[H:7]"
O       -1.25047709      -0.17331358       1.25563022
C       -0.98568614       0.17255613      -0.68098097
C       -0.33646728      -0.94906536      -1.28531753
C        0.61497948      -0.74922757       0.91820818
C        1.14621425       0.60608373       0.46124477
C        0.00644334       1.26997064      -0.34646775
H       -1.77573525      -0.94864054       1.46145619
H       -2.03800110       0.34316925      -0.87496708
H       -0.94848225      -1.81906698      -1.51960228
H        0.29539241      -0.73107933      -2.14610690
H        1.18163613      -1.62202430       0.59279351
H        0.72637280      -0.85663183       1.99974478
H        1.44488222       1.23457423       1.30149369
H        2.03777085       0.46487329      -0.15221110
H       -0.50153565       2.01463840       0.26811493
H        0.38269327       1.74318382      -1.25303266
16
Frame=15 idx=000038 GeodesicLength=1.399811478956854 rxn_smarts="[O:1]([C:2]1([H:8])[C:3]([H:9])([H:10])[C:4]([H:11])([H:12])[C:5]([H:13])([H:14])[C:6]1([H:15])[H:16])[H:7]>>[O:1]([C:4]([C:5]([C:6]([C:2](=[C:3]([H:9])[H:10])[H:8])([H:15])[H:16])([H:13])[H:14])([H:11])[H:12])[H:7]"
O       -1.24820776      -0.16178516       1.28465766
C       -0.98282884       0.17479922      -0.70141744
C       -0.32536654      -0.94439142      -1.29694273
C        0.60177483      -0.75808252       0.90104391
C        1.13965169       0.60524689       0.46548744
C        0.00816546       1.26936909      -0.35347894
H       -1.78986787      -0.91474498       1.52510903
H       -2.04070247       0.32422669      -0.87597761
H       -0.92793923      -1.82394936      -1.51995404
H        0.29326766      -0.72612420      -2.16758289
H        1.18313824      -1.62277032       0.57588026
H        0.73368304      -0.87905912       1.97967673
H        1.42355472       1.22753573       1.31522793
H        2.04357766       0.47460720      -0.13213336
H       -0.50682359       2.01316246       0.25629865
H        0.39492301       1.74195978      -1.25589460
16
Frame=16 idx=000038 GeodesicLength=1.4932511112867932 rxn_smarts="[O:1]([C:2]1([H:8])[C:3]([H:9])([H:10])[C:4]([H:11])([H:12])[C:5]([H:13])([H:14])[C:6]1([H:15])[H:16])[H:7]>>[O:1]([C:4]([C:5]([C:6]([C:2](=[C:3]([H:9])[H:10])[H:8])([H:15])[H:16])([H:13])[H:14])([H:11])[H:12])[H:7]"
O       -1.24549675      -0.15024918       1.31442233
C       -0.97974397       0.17710947      -0.72322202
C       -0.31360570      -0.93942173      -1.30968387
C        0.58753023      -0.76688713       0.88374960
C        1.13253308       0.60398612       0.46969374
C        0.00967699       1.26865371      -0.36053361
H       -1.80158416      -0.87871749       1.59195479
H       -2.04290255       0.30374353      -0.87626753
H       -0.90636128      -1.82840852      -1.52160539
H        0.29180058      -0.72090001      -2.18987735
H        1.18332296      -1.62344933       0.55898975
H        0.73976691      -0.90118843       1.95901493
H        1.40183487       1.21998258       1.32853794
H        2.04858277       0.48348442      -0.11149213
H       -0.51265919       2.01113956       0.24456190
H        0.40730521       1.74112243      -1.25824308
