13
Frame=0 idx=008513 GeodesicLength=0.0 rxn_smarts="[O:1]=[C:2]1[C:3]([H:8])([H:9])[O:4][C@@:5]2([H:10])[C:6]([H:11])([H:12])[C@@:7]12[H:13]>>[O:1]=[C:2]([C:3](=[O:4])[H:9])[C:7]1([H:13])[C:5]([H:10])([H:12])[C:6]1([H:8])[H:11]"
O        1.21222046       2.26235385       0.11205883
C        0.78282334       1.14882355       0.00623326
C        1.46754969      -0.17870011      -0.23958512
O        0.99354089      -0.65385552      -1.36537591
C       -1.01222537      -0.51399649      -0.58929823
C       -0.79101082      -0.55873213       0.77575626
C       -0.68351809       0.78493549       0.10571919
H        0.99516937      -0.75825752       0.70582457
H        2.54458744      -0.25761678      -0.04708818
H       -1.15028288      -1.04178062      -1.51528705
H       -0.91709061      -1.10755904       1.69516790
H       -2.02541899      -0.69455346       0.11362180
H       -1.41634443       1.56893881       0.24225273
13
Frame=1 idx=008513 GeodesicLength=0.07962596786249218 rxn_smarts="[O:1]=[C:2]1[C:3]([H:8])([H:9])[O:4][C@@:5]2([H:10])[C:6]([H:11])([H:12])[C@@:7]12[H:13]>>[O:1]=[C:2]([C:3](=[O:4])[H:9])[C:7]1([H:13])[C:5]([H:10])([H:12])[C:6]1([H:8])[H:11]"
O        1.21456677       2.25686548       0.12342970
C        0.78000873       1.14709645      -0.00084392
C        1.47452443      -0.17909213      -0.24078091
O        0.99215110      -0.67019533      -1.35630615
C       -1.00790727      -0.51736130      -0.59507577
C       -0.79302951      -0.56621262       0.77476110
C       -0.68311178       0.77966085       0.10541835
H        0.98647580      -0.76893346       0.71676371
H        2.55530876      -0.23657285      -0.06322252
H       -1.15590038      -1.01859618      -1.53406941
H       -0.91806024      -1.08137287       1.71280629
H       -2.03003883      -0.70907199       0.11264060
H       -1.41498757       1.56378596       0.24447894
13
Frame=2 idx=008513 GeodesicLength=0.15929426818025896 rxn_smarts="[O:1]=[C:2]1[C:3]([H:8])([H:9])[O:4][C@@:5]2([H:10])[C:6]([H:11])([H:12])[C@@:7]12[H:13]>>[O:1]=[C:2]([C:3](=[O:4])[H:9])[C:7]1([H:13])[C:5]([H:10])([H:12])[C:6]1([H:8])[H:11]"
O        1.21687319       2.25101163       0.13529091
C        0.77726815       1.14528974      -0.00765753
C        1.48159292      -0.17947493      -0.24195866
O        0.99082227      -0.68661414      -1.34681046
C       -1.00349917      -0.52081236      -0.60078010
C       -0.79530348      -0.57370037       0.77395518
C       -0.68266135       0.77431866       0.10514909
H        0.97742660      -0.77985396       0.72815855
H        2.56576225      -0.21517343      -0.08089246
H       -1.16069713      -0.99529584      -1.55201793
H       -0.91918481      -1.05456189       1.72949683
H       -2.03478949      -0.72373200       0.11163900
H       -1.41360996       1.55859890       0.24642758
13
Frame=3 idx=008513 GeodesicLength=0.2388394793796912 rxn_smarts="[O:1]=[C:2]1[C:3]([H:8])([H:9])[O:4][C@@:5]2([H:10])[C:6]([H:11])([H:12])[C@@:7]12[H:13]>>[O:1]=[C:2]([C:3](=[O:4])[H:9])[C:7]1([H:13])[C:5]([H:10])([H:12])[C:6]1([H:8])[H:11]"
O        1.21908525       2.24481441       0.14751791
C        0.77460067       1.14341477      -0.01415946
C        1.48872599      -0.17984482      -0.24309711
O        0.98953256      -0.70311153      -1.33680691
C       -0.99895947      -0.52431049      -0.60636750
C       -0.79780678      -0.58114479       0.77333402
C       -0.68213183       0.76894766       0.10492661
H        0.96797440      -0.79101770       0.74002061
H        2.57582108      -0.19342890      -0.10013791
H       -1.16459144      -0.97194542      -1.56904927
H       -0.92049109      -1.02734627       1.74507045
H       -2.03960907      -0.73845798       0.11063323
H       -1.41215027       1.55343104       0.24811534
13
Frame=4 idx=008513 GeodesicLength=0.3184691126629754 rxn_smarts="[O:1]=[C:2]1[C:3]([H:8])([H:9])[O:4][C@@:5]2([H:10])[C:6]([H:11])([H:12])[C@@:7]12[H:13]>>[O:1]=[C:2]([C:3](=[O:4])[H:9])[C:7]1([H:13])[C:5]([H:10])([H:12])[C:6]1([H:8])[H:11]"
O        1.22129804       2.23833209       0.16001300
C        0.77207239       1.14150794      -0.02029901
C        1.49599557      -0.18015769      -0.24419525
O        0.98833251      -0.71962318      -1.32632766
C       -0.99433092      -0.52780916      -0.61185305
C       -0.80059640      -0.58849416       0.77295041
C       -0.68153731       0.76359291       0.10475768
H        0.95813455      -0.80241371       0.75241606
H        2.58549151      -0.17135470      -0.12098119
H       -1.16759224      -0.94872111      -1.58517521
H       -0.92201215      -1.00000210       1.75951468
H       -2.04460877      -0.75318852       0.10964001
H       -1.41064676       1.54833137       0.24953953
13
Frame=5 idx=008513 GeodesicLength=0.3979537659097283 rxn_smarts="[O:1]=[C:2]1[C:3]([H:8])([H:9])[O:4][C@@:5]2([H:10])[C:6]([H:11])([H:12])[C@@:7]12[H:13]>>[O:1]=[C:2]([C:3](=[O:4])[H:9])[C:7]1([H:13])[C:5]([H:10])([H:12])[C:6]1([H:8])[H:11]"
O        1.22348801       2.23161145       0.17268139
C        0.76964405       1.13958044      -0.02600080
C        1.50336877      -0.18039493      -0.24522809
O        0.98717772      -0.73612850      -1.31528817
C       -0.98956062      -0.53126475      -0.61720387
C       -0.80366143      -0.59568410       0.77275753
C       -0.68083812       0.75829873       0.10465113
H        0.94779870      -0.81403890       0.76530708
H        2.59461006      -0.14899021      -0.14339228
H       -1.16966979      -0.92576216      -1.60027550
H       -0.92363060      -0.97275313       1.77266579
H       -2.04971362      -0.76783323       0.10863019
H       -1.40901311       1.54335928       0.25069561
13
Frame=6 idx=008513 GeodesicLength=0.47747206763674144 rxn_smarts="[O:1]=[C:2]1[C:3]([H:8])([H:9])[O:4][C@@:5]2([H:10])[C:6]([H:11])([H:12])[C@@:7]12[H:13]>>[O:1]=[C:2]([C:3](=[O:4])[H:9])[C:7]1([H:13])[C:5]([H:10])([H:12])[C:6]1([H:8])[H:11]"
O        1.22570186       2.22469472       0.18545453
C        0.76738041       1.13765258      -0.03126140
C        1.51091103      -0.18052631      -0.24622539
O        0.98612421      -0.75260390      -1.30371235
C       -0.98466947      -0.53465448      -0.62242969
C       -0.80701284      -0.60269932       0.77279532
C       -0.68004290       0.75308449       0.10461241
H        0.93701328      -0.82589149       0.77875747
H        2.60316460      -0.12633875      -0.16740634
H       -1.17081892      -0.90311671      -1.61445278
H       -0.92547256      -0.94576222       1.78462404
H       -2.05499191      -0.78237167       0.10763760
H       -1.40728679       1.53853305       0.25160659
13
Frame=7 idx=008513 GeodesicLength=0.5569788526380405 rxn_smarts="[O:1]=[C:2]1[C:3]([H:8])([H:9])[O:4][C@@:5]2([H:10])[C:6]([H:11])([H:12])[C@@:7]12[H:13]>>[O:1]=[C:2]([C:3](=[O:4])[H:9])[C:7]1([H:13])[C:5]([H:10])([H:12])[C:6]1([H:8])[H:11]"
O        1.22795351       2.21761786       0.19832255
C        0.76528662       1.13573881      -0.03606251
C        1.51863066      -0.18052768      -0.24720372
O        0.98517139      -0.76904334      -1.29156996
C       -0.97963582      -0.53796320      -0.62752401
C       -0.81063856      -0.60951552       0.77304751
C       -0.67913422       0.74797136       0.10463993
H        0.92575099      -0.83797100       0.79276897
H        2.61104668      -0.10341914      -0.19303072
H       -1.17103224      -0.88085360      -1.62772666
H       -0.92753518      -0.91913643       1.79540581
H       -2.06042431      -0.79677771       0.10665836
H       -1.40543952       1.53387956       0.25227445
13
Frame=8 idx=008513 GeodesicLength=0.6366491109786314 rxn_smarts="[O:1]=[C:2]1[C:3]([H:8])([H:9])[O:4][C@@:5]2([H:10])[C:6]([H:11])([H:12])[C@@:7]12[H:13]>>[O:1]=[C:2]([C:3](=[O:4])[H:9])[C:7]1([H:13])[C:5]([H:10])([H:12])[C:6]1([H:8])[H:11]"
O        1.23033713       2.21041336       0.21129840
C        0.76339227       1.13386323      -0.04039068
C        1.52660309      -0.18034949      -0.24818502
O        0.98434975      -0.78541668      -1.27887615
C       -0.97447696      -0.54118595      -0.63250648
C       -0.81458428      -0.61612030       0.77352812
C       -0.67811951       0.74296627       0.10472975
H        0.91399098      -0.85026483       0.80737818
H        2.61826027      -0.08023339      -0.22030442
H       -1.17033938      -0.85904336      -1.64017004
H       -0.92983892      -0.89296339       1.80512442
H       -2.06608830      -0.81106036       0.10568449
H       -1.40348614       1.52939488       0.25268942
13
Frame=9 idx=008513 GeodesicLength=0.7159117098401944 rxn_smarts="[O:1]=[C:2]1[C:3]([H:8])([H:9])[O:4][C@@:5]2([H:10])[C:6]([H:11])([H:12])[C@@:7]12[H:13]>>[O:1]=[C:2]([C:3](=[O:4])[H:9])[C:7]1([H:13])[C:5]([H:10])([H:12])[C:6]1([H:8])[H:11]"
O        1.23262586       2.20301383       0.22438337
C        0.76162652       1.13200750      -0.04427966
C        1.53467412      -0.18003121      -0.24926217
O        0.98363391      -0.80177171      -1.26554152
C       -0.96905979      -0.54429482      -0.63731386
C       -0.81869062      -0.62246696       0.77414400
C       -0.67695055       0.73808470       0.10488401
H        0.90174464      -0.86275527       0.82250437
H        2.62442547      -0.05691048      -0.24913561
H       -1.16857733      -0.83760113      -1.65170901
H       -0.93237045      -0.86724421       1.81368812
H       -2.07172215      -0.82513559       0.10474693
H       -1.40135964       1.52510535       0.25289105
13
Frame=10 idx=008513 GeodesicLength=0.795348836727332 rxn_smarts="[O:1]=[C:2]1[C:3]([H:8])([H:9])[O:4][C@@:5]2([H:10])[C:6]([H:11])([H:12])[C@@:7]12[H:13]>>[O:1]=[C:2]([C:3](=[O:4])[H:9])[C:7]1([H:13])[C:5]([H:10])([H:12])[C:6]1([H:8])[H:11]"
O        1.23511496       2.19554410       0.23760820
C        0.76008177       1.13021797      -0.04766400
C        1.54304987      -0.17946744      -0.25040135
O        0.98307287      -0.81801558      -1.25162559
C       -0.96349222      -0.54729172      -0.64201554
C       -0.82310131      -0.62858616       0.77497036
C       -0.67565984       0.73333758       0.10509203
H        0.88897860      -0.87548339       0.83823885
H        2.62971014      -0.03337627      -0.27963235
H       -1.16590814      -0.81673191      -1.66252317
H       -0.93514756      -0.84208613       1.82131828
H       -2.07758755      -0.83907501       0.10380787
H       -1.39911161       1.52101397       0.25282642
13
Frame=11 idx=008513 GeodesicLength=0.8746980495823258 rxn_smarts="[O:1]=[C:2]1[C:3]([H:8])([H:9])[O:4][C@@:5]2([H:10])[C:6]([H:11])([H:12])[C@@:7]12[H:13]>>[O:1]=[C:2]([C:3](=[O:4])[H:9])[C:7]1([H:13])[C:5]([H:10])([H:12])[C:6]1([H:8])[H:11]"
O        1.23770215       2.18796233       0.25100404
C        0.75870566       1.12846968      -0.05054296
C        1.55168986      -0.17866237      -0.25167665
O        0.98266556      -0.83420263      -1.23707833
C       -0.95768999      -0.55018614      -0.64658012
C       -0.82775096      -0.63445275       0.77594410
C       -0.67422274       0.72871734       0.10536827
H        0.87564961      -0.88843181       0.85452009
H        2.63393351      -0.00967219      -0.31174780
H       -1.16227916      -0.79639207      -1.67258830
H       -0.93814238      -0.81743186       1.82797915
H       -2.08355842      -0.85283532       0.10286132
H       -1.39670270       1.51711779       0.25253720
13
Frame=12 idx=008513 GeodesicLength=0.9543240204212289 rxn_smarts="[O:1]=[C:2]1[C:3]([H:8])([H:9])[O:4][C@@:5]2([H:10])[C:6]([H:11])([H:12])[C@@:7]12[H:13]>>[O:1]=[C:2]([C:3](=[O:4])[H:9])[C:7]1([H:13])[C:5]([H:10])([H:12])[C:6]1([H:8])[H:11]"
O        1.24053827       2.18031265       0.26458195
C        0.75758771       1.12681046      -0.05294402
C        1.56071288      -0.17754799      -0.25316384
O        0.98247953      -0.85029339      -1.22196005
C       -0.95171907      -0.55298786      -0.65105799
C       -0.83269872      -0.64009512       0.77712146
C       -0.67267223       0.72421994       0.10570345
H        0.86181009      -0.90159950       0.87145732
H        2.63717609       0.01420335      -0.34549406
H       -1.15775823      -0.77659270      -1.68208981
H       -0.94145118      -0.79335083       1.83390997
H       -2.08979825      -0.86647649       0.10192367
H       -1.39420689       1.51339748       0.25201195
13
Frame=13 idx=008513 GeodesicLength=1.0334258519408521 rxn_smarts="[O:1]=[C:2]1[C:3]([H:8])([H:9])[O:4][C@@:5]2([H:10])[C:6]([H:11])([H:12])[C@@:7]12[H:13]>>[O:1]=[C:2]([C:3](=[O:4])[H:9])[C:7]1([H:13])[C:5]([H:10])([H:12])[C:6]1([H:8])[H:11]"
O        1.24334644       2.17251593       0.27834816
C        0.75658650       1.12521582      -0.05487856
C        1.56982125      -0.17615402      -0.25498008
O        0.98240614      -0.86631687      -1.20613410
C       -0.94537930      -0.55566099      -0.65534612
C       -0.83773039      -0.64546966       0.77834660
C       -0.67089556       0.71986560       0.10609811
H        0.84739038      -0.91499522       0.88887319
H        2.63882511       0.03807871      -0.38066460
H       -1.15210116      -0.75727795      -1.69081428
H       -0.94494661      -0.76977988       1.83885713
H       -2.09589452      -0.87990994       0.10100967
H       -1.39142828       1.50988846       0.25128487
13
Frame=14 idx=008513 GeodesicLength=1.1130274895274324 rxn_smarts="[O:1]=[C:2]1[C:3]([H:8])([H:9])[O:4][C@@:5]2([H:10])[C:6]([H:11])([H:12])[C@@:7]12[H:13]>>[O:1]=[C:2]([C:3](=[O:4])[H:9])[C:7]1([H:13])[C:5]([H:10])([H:12])[C:6]1([H:8])[H:11]"
O        1.24655224       2.16465706       0.29240167
C        0.75589648       1.12374634      -0.05636221
C        1.57942838      -0.17435548      -0.25715693
O        0.98261078      -0.88223096      -1.18974751
C       -0.93889149      -0.55827345      -0.65957586
C       -0.84308783      -0.65064843       0.77979588
C       -0.66901606       0.71561963       0.10653963
H        0.83244986      -0.92861418       0.90701451
H        2.63945764       0.06213766      -0.41746489
H       -1.14561488      -0.73851017      -1.69915339
H       -0.94882772      -0.74676505       1.84329337
H       -2.10236196      -0.89329417       0.10011274
H       -1.38859545       1.50653119       0.25030298
13
Frame=15 idx=008513 GeodesicLength=1.1921089477931959 rxn_smarts="[O:1]=[C:2]1[C:3]([H:8])([H:9])[O:4][C@@:5]2([H:10])[C:6]([H:11])([H:12])[C@@:7]12[H:13]>>[O:1]=[C:2]([C:3](=[O:4])[H:9])[C:7]1([H:13])[C:5]([H:10])([H:12])[C:6]1([H:8])[H:11]"
O        1.24978395       2.15659450       0.30682880
C        0.75529936       1.12230480      -0.05726437
C        1.58922427      -0.17223823      -0.25970634
O        0.98300461      -0.89812701      -1.17250700
C       -0.93195405      -0.56077250      -0.66361180
C       -0.84856640      -0.65553045       0.78125870
C       -0.66691475       0.71150479       0.10705686
H        0.81681187      -0.94248485       0.92565568
H        2.63824645       0.08624041      -0.45599716
H       -1.13791512      -0.72027426      -1.70678148
H       -0.95285800      -0.72414646       1.84681600
H       -2.10867401      -0.90645022       0.09915758
H       -1.38548818       1.50337947       0.24909455
13
Frame=16 idx=008513 GeodesicLength=1.2714072058917847 rxn_smarts="[O:1]=[C:2]1[C:3]([H:8])([H:9])[O:4][C@@:5]2([H:10])[C:6]([H:11])([H:12])[C@@:7]12[H:13]>>[O:1]=[C:2]([C:3](=[O:4])[H:9])[C:7]1([H:13])[C:5]([H:10])([H:12])[C:6]1([H:8])[H:11]"
O        1.25335944       2.14839125       0.32164030
C        0.75497729       1.12096932      -0.05766674
C        1.59943928      -0.16967584      -0.26278197
O        0.98369352      -0.91393764      -1.15457145
C       -0.92473498      -0.56321063      -0.66754931
C       -0.85429876      -0.66019399       0.78287154
C       -0.66465134       0.70749456       0.10762738
H        0.80055710      -0.95660581       0.94500127
H        2.63554991       0.11048939      -0.49620935
H       -1.12920950      -0.70257406      -1.71400785
H       -0.95725438      -0.70200720       1.84981388
H       -2.11519268      -0.91951958       0.09819559
H       -1.38223489       1.50038022       0.24763672
