10
Frame=0 idx=004803 GeodesicLength=0.0 rxn_smarts="[O:1]=[c:2]1[n:3]([H:7])[c:4]([H:8])[c:5]([H:9])[n:6]1[H:10]>>[O:1]=[C:2](/[N:3]=[C:4]([C:5](=[N:6]\[H:10])\[H:9])/[H:8])[H:7]"
O        2.34153632       0.00711979      -0.46642259
C        1.18784405      -0.15463685      -0.07742042
N        0.31928484      -1.31079482      -0.19423647
C       -0.93599187      -0.89047141      -0.17992193
C       -1.00820732       0.50237144      -0.08907595
N        0.22033728       0.95753432       0.00275005
H        1.00967925      -0.58589652       1.06264021
H       -1.76913130      -1.57536685      -0.12373814
H       -1.88106448       1.13148034       0.01077931
H        0.51571323       1.91866056       0.05464593
10
Frame=1 idx=004803 GeodesicLength=0.08604910037604152 rxn_smarts="[O:1]=[c:2]1[n:3]([H:7])[c:4]([H:8])[c:5]([H:9])[n:6]1[H:10]>>[O:1]=[C:2](/[N:3]=[C:4]([C:5](=[N:6]\[H:10])\[H:9])/[H:8])[H:7]"
O        2.34198467       0.00080768      -0.47902650
C        1.19481919      -0.15752526      -0.07495657
N        0.32141451      -1.30567951      -0.18376427
C       -0.93412346      -0.88572182      -0.18140025
C       -1.01061742       0.50749330      -0.08074836
N        0.21553299       0.96889126       0.02160045
H        1.02660036      -0.62462837       1.06520510
H       -1.76637423      -1.57153032      -0.11992720
H       -1.88911858       1.13342591      -0.01523765
H        0.49988197       1.93446714       0.04825525
10
Frame=2 idx=004803 GeodesicLength=0.17215588688785396 rxn_smarts="[O:1]=[c:2]1[n:3]([H:7])[c:4]([H:8])[c:5]([H:9])[n:6]1[H:10]>>[O:1]=[C:2](/[N:3]=[C:4]([C:5](=[N:6]\[H:10])\[H:9])/[H:8])[H:7]"
O        2.34189204      -0.00522064      -0.49220496
C        1.20182002      -0.16035186      -0.07220000
N        0.32346246      -1.30026699      -0.17372029
C       -0.93226515      -0.88080785      -0.18140291
C       -1.01323862       0.51271882      -0.07101504
N        0.21047242       0.98059886       0.04062841
H        1.04432786      -0.66466538       1.06670839
H       -1.76359132      -1.56760400      -0.11533263
H       -1.89614931       1.13548427      -0.04480912
H        0.48326961       1.95011476       0.04334817
10
Frame=3 idx=004803 GeodesicLength=0.2582910018568242 rxn_smarts="[O:1]=[c:2]1[n:3]([H:7])[c:4]([H:8])[c:5]([H:9])[n:6]1[H:10]>>[O:1]=[C:2](/[N:3]=[C:4]([C:5](=[N:6]\[H:10])\[H:9])/[H:8])[H:7]"
O        2.34160191      -0.01135462      -0.50502716
C        1.20891403      -0.16316640      -0.06891591
N        0.32549962      -1.29462967      -0.16367144
C       -0.93035330      -0.87573004      -0.18064768
C       -1.01602320       0.51815107      -0.06172688
N        0.20516792       0.99277237       0.05838044
H        1.06208937      -0.70530862       1.06750154
H       -1.76076974      -1.56353586      -0.11065175
H       -1.90210559       1.13712449      -0.07423312
H        0.46597899       1.96567727       0.03899195
10
Frame=4 idx=004803 GeodesicLength=0.3444317800147538 rxn_smarts="[O:1]=[c:2]1[n:3]([H:7])[c:4]([H:8])[c:5]([H:9])[n:6]1[H:10]>>[O:1]=[C:2](/[N:3]=[C:4]([C:5](=[N:6]\[H:10])\[H:9])/[H:8])[H:7]"
O        2.34104710      -0.01752089      -0.51765969
C        1.21610845      -0.16596387      -0.06512557
N        0.32751337      -1.28873485      -0.15372584
C       -0.92842437      -0.87047523      -0.17896213
C       -1.01899438       0.52382788      -0.05275013
N        0.19960437       1.00544887       0.07499982
H        1.08002657      -0.74682418       1.06739731
H       -1.75792510      -1.55931855      -0.10548562
H       -1.90699444       1.13829961      -0.10433932
H        0.44803843       1.98126121       0.03565118
10
Frame=5 idx=004803 GeodesicLength=0.43043688069316266 rxn_smarts="[O:1]=[c:2]1[n:3]([H:7])[c:4]([H:8])[c:5]([H:9])[n:6]1[H:10]>>[O:1]=[C:2](/[N:3]=[C:4]([C:5](=[N:6]\[H:10])\[H:9])/[H:8])[H:7]"
O        2.34075554      -0.02414576      -0.52882791
C        1.22356199      -0.16883282      -0.06043612
N        0.32965638      -1.28267493      -0.14354926
C       -0.92630881      -0.86510627      -0.17734583
C       -1.02195277       0.52978175      -0.04617288
N        0.19384630       1.01869651       0.08910438
H        1.09725837      -0.78863851       1.06696492
H       -1.75496686      -1.55493901      -0.10089308
H       -1.91149371       1.13882822      -0.13029431
H        0.42964357       1.99703082       0.03145007
10
Frame=6 idx=004803 GeodesicLength=0.5164669070401764 rxn_smarts="[O:1]=[c:2]1[n:3]([H:7])[c:4]([H:8])[c:5]([H:9])[n:6]1[H:10]>>[O:1]=[C:2](/[N:3]=[C:4]([C:5](=[N:6]\[H:10])\[H:9])/[H:8])[H:7]"
O        2.34040300      -0.03091440      -0.53935009
C        1.23124071      -0.17171948      -0.05501090
N        0.33186198      -1.27635366      -0.13338705
C       -0.92410339      -0.85957296      -0.17507852
C       -1.02498217       0.53601907      -0.04060350
N        0.18786806       1.03256394       0.10162347
H        1.11449115      -0.83157260       1.06564786
H       -1.75192807      -1.55038809      -0.09592453
H       -1.91555706       1.13890956      -0.15562313
H        0.41070579       2.01302862       0.02770640
10
Frame=7 idx=004803 GeodesicLength=0.6024750403472555 rxn_smarts="[O:1]=[c:2]1[n:3]([H:7])[c:4]([H:8])[c:5]([H:9])[n:6]1[H:10]>>[O:1]=[C:2](/[N:3]=[C:4]([C:5](=[N:6]\[H:10])\[H:9])/[H:8])[H:7]"
O        2.34017828      -0.03792118      -0.54875259
C        1.23921982      -0.17465663      -0.04862017
N        0.33418907      -1.26979051      -0.12315343
C       -0.92173927      -0.85389408      -0.17249220
C       -1.02801982       0.54252819      -0.03645543
N        0.18165554       1.04708110       0.11224609
H        1.13151596      -0.87565918       1.06353736
H       -1.74874309      -1.54567556      -0.09099445
H       -1.91954773       1.13861007      -0.17883591
H        0.39129125       2.02937780       0.02352073
10
Frame=8 idx=004803 GeodesicLength=0.688548737265406 rxn_smarts="[O:1]=[c:2]1[n:3]([H:7])[c:4]([H:8])[c:5]([H:9])[n:6]1[H:10]>>[O:1]=[C:2](/[N:3]=[C:4]([C:5](=[N:6]\[H:10])\[H:9])/[H:8])[H:7]"
O        2.33993893      -0.04499734      -0.55726076
C        1.24749465      -0.17761828      -0.04122113
N        0.33662438      -1.26293057      -0.11289000
C       -0.91924711      -0.84802462      -0.16929942
C       -1.03108860       0.54931864      -0.03320192
N        0.17522507       1.06229377       0.12141428
H        1.14860690      -0.92140777       1.06024961
H       -1.74542123      -1.54076423      -0.08571542
H       -1.92345215       1.13797377      -0.20127319
H        0.37131917       2.04615663       0.01919796
10
Frame=9 idx=004803 GeodesicLength=0.7743414546053585 rxn_smarts="[O:1]=[c:2]1[n:3]([H:7])[c:4]([H:8])[c:5]([H:9])[n:6]1[H:10]>>[O:1]=[C:2](/[N:3]=[C:4]([C:5](=[N:6]\[H:10])\[H:9])/[H:8])[H:7]"
O        2.33976883      -0.05210593      -0.56444718
C        1.25608703      -0.18054667      -0.03247897
N        0.33922792      -1.25574657      -0.10244466
C       -0.91658743      -0.84196302      -0.16554647
C       -1.03416996       0.55636427      -0.03109767
N        0.16854839       1.07817092       0.12828871
H        1.16570522      -0.96902412       1.05549631
H       -1.74197140      -1.53571846      -0.08019964
H       -1.92736016       1.13715909      -0.22213597
H        0.35075155       2.06341049       0.01456553
10
Frame=10 idx=004803 GeodesicLength=0.8602890612854834 rxn_smarts="[O:1]=[c:2]1[n:3]([H:7])[c:4]([H:8])[c:5]([H:9])[n:6]1[H:10]>>[O:1]=[C:2](/[N:3]=[C:4]([C:5](=[N:6]\[H:10])\[H:9])/[H:8])[H:7]"
O        2.33961382      -0.05912251      -0.57038831
C        1.26502664      -0.18351279      -0.02236400
N        0.34195452      -1.24820119      -0.09193500
C       -0.91377563      -0.83565190      -0.16108336
C       -1.03726534       0.56374112      -0.02956856
N        0.16162879       1.09482398       0.13405854
H        1.18294934      -1.01891557       1.04893135
H       -1.73834101      -1.53045645      -0.07435068
H       -1.93140138       1.13603333      -0.24230922
H        0.32961026       2.08126199       0.00900926
10
Frame=11 idx=004803 GeodesicLength=0.9461949103949868 rxn_smarts="[O:1]=[c:2]1[n:3]([H:7])[c:4]([H:8])[c:5]([H:9])[n:6]1[H:10]>>[O:1]=[C:2](/[N:3]=[C:4]([C:5](=[N:6]\[H:10])\[H:9])/[H:8])[H:7]"
O        2.33944674      -0.06599725      -0.57500550
C        1.27432309      -0.18651595      -0.01078053
N        0.34481840      -1.24030702      -0.08119879
C       -0.91080939      -0.82908919      -0.15585032
C       -1.04035757       0.57142032      -0.02875274
N        0.15448170       1.11222058       0.13841656
H        1.20035203      -1.07109819       1.04026681
H       -1.73454775      -1.52496185      -0.06805114
H       -1.93555207       1.13464851      -0.26183540
H        0.30784483       2.09968003       0.00279105
10
Frame=12 idx=004803 GeodesicLength=1.0321047465388007 rxn_smarts="[O:1]=[c:2]1[n:3]([H:7])[c:4]([H:8])[c:5]([H:9])[n:6]1[H:10]>>[O:1]=[C:2](/[N:3]=[C:4]([C:5](=[N:6]\[H:10])\[H:9])/[H:8])[H:7]"
O        2.33920375      -0.07258547      -0.57822343
C        1.28397352      -0.18956237       0.00242563
N        0.34781134      -1.23204290      -0.07010204
C       -0.90771088      -0.82224385      -0.14968483
C       -1.04344345       0.57942749      -0.02856056
N        0.14710780       1.13038572       0.14158806
H        1.21797941      -1.12582231       1.02896254
H       -1.73061893      -1.51918804      -0.06110293
H       -1.93972516       1.13292592      -0.28117248
H        0.28542260       2.11870581      -0.00412996
10
Frame=13 idx=004803 GeodesicLength=1.1178841189458915 rxn_smarts="[O:1]=[c:2]1[n:3]([H:7])[c:4]([H:8])[c:5]([H:9])[n:6]1[H:10]>>[O:1]=[C:2](/[N:3]=[C:4]([C:5](=[N:6]\[H:10])\[H:9])/[H:8])[H:7]"
O        2.33888093      -0.07881572      -0.57991317
C        1.29399474      -0.19266825       0.01741310
N        0.35094152      -1.22341977      -0.05836520
C       -0.90447163      -0.81512529      -0.14241445
C       -1.04650494       0.58773454      -0.02915932
N        0.13948646       1.14924676       0.14328751
H        1.23588303      -1.18312406       1.01438780
H       -1.72656751      -1.51315096      -0.05323120
H       -1.94393339       1.13102276      -0.30063913
H        0.26229080       2.13829998      -0.01136593
10
Frame=14 idx=004803 GeodesicLength=1.203679857932753 rxn_smarts="[O:1]=[c:2]1[n:3]([H:7])[c:4]([H:8])[c:5]([H:9])[n:6]1[H:10]>>[O:1]=[C:2](/[N:3]=[C:4]([C:5](=[N:6]\[H:10])\[H:9])/[H:8])[H:7]"
O        2.33839317      -0.08459385      -0.58001536
C        1.30437255      -0.19589301       0.03427636
N        0.35417615      -1.21443405      -0.04579358
C       -0.90110173      -0.80768998      -0.13398149
C       -1.04951721       0.59635752      -0.03045622
N        0.13164510       1.16885556       0.14397673
H        1.25401245      -1.24302800       0.99608330
H       -1.72240651      -1.50677120      -0.04441129
H       -1.94803193       1.12870273      -0.32045578
H        0.23845796       2.15849426      -0.01922267
10
Frame=15 idx=004803 GeodesicLength=1.2893863409080635 rxn_smarts="[O:1]=[c:2]1[n:3]([H:7])[c:4]([H:8])[c:5]([H:9])[n:6]1[H:10]>>[O:1]=[C:2](/[N:3]=[C:4]([C:5](=[N:6]\[H:10])\[H:9])/[H:8])[H:7]"
O        2.33763467      -0.08982671      -0.57853178
C        1.31509557      -0.19928280       0.05308868
N        0.35750246      -1.20511715      -0.03205608
C       -0.89762526      -0.79995731      -0.12420906
C       -1.05243800       0.60525662      -0.03255515
N        0.12358947       1.18914394       0.14367794
H        1.27233307      -1.30536063       0.97338111
H       -1.71818823      -1.50003875      -0.03431231
H       -1.95181636       1.12593803      -0.34120420
H        0.21391262       2.17924475      -0.02727916
10
Frame=16 idx=004803 GeodesicLength=1.3750252772766807 rxn_smarts="[O:1]=[c:2]1[n:3]([H:7])[c:4]([H:8])[c:5]([H:9])[n:6]1[H:10]>>[O:1]=[C:2](/[N:3]=[C:4]([C:5](=[N:6]\[H:10])\[H:9])/[H:8])[H:7]"
O        2.33665375      -0.09462635      -0.57531575
C        1.32622151      -0.20293976       0.07396600
N        0.36093310      -1.19553152      -0.01657121
C       -0.89398064      -0.79199506      -0.11320405
C       -1.05518742       0.61438749      -0.03563879
N        0.11538356       1.21005831       0.14214153
H        1.29063263      -1.36967469       0.94576723
H       -1.71388319      -1.49299969      -0.02310124
H       -1.95544951       1.12280557      -0.36250529
H        0.18867620       2.20051569      -0.03553844
