17
Frame=0 idx=008620 GeodesicLength=0.0 rxn_smarts="[C:1]([C@@:2]1([H:11])[C:3]([H:12])([H:13])[C@@:4]2([O:5][H:14])[C:6]([H:15])([H:16])[C@@:7]12[H:17])([H:8])([H:9])[H:10]>>[C:1]([C:2]([C:3]([H:12])([H:13])[H:14])([C@@:7]1([H:17])[C:4](=[O:5])[C:6]1([H:15])[H:16])[H:11])([H:8])([H:9])[H:10]"
C        1.92684656       0.41291768      -0.09733334
C        0.72137015      -0.50350477      -0.20600830
C       -0.11044886      -0.66469425       1.09193707
C       -1.49357489      -0.28061898      -0.04956853
O       -2.56717814      -0.98581058       0.19526841
C       -1.18494277       1.11049721      -0.45040560
C       -0.43002749      -0.05739340      -1.08437696
H        2.64500412       0.03594206       0.63403487
H        1.63421196       1.41943613       0.21038636
H        2.43545247       0.49346673      -1.05981008
H        1.04392002      -1.49411271      -0.53251280
H       -0.00210144       0.11399667       1.84338762
H        0.00589370      -1.65207018       1.55151277
H       -1.46391051      -1.04508338       0.98728301
H       -1.98128641       1.51333540      -1.06599059
H       -0.68590982       1.83905869       0.17855531
H       -0.49331871      -0.25536230      -2.14635918
17
Frame=1 idx=008620 GeodesicLength=0.08908257278439112 rxn_smarts="[C:1]([C@@:2]1([H:11])[C:3]([H:12])([H:13])[C@@:4]2([O:5][H:14])[C:6]([H:15])([H:16])[C@@:7]12[H:17])([H:8])([H:9])[H:10]>>[C:1]([C:2]([C:3]([H:12])([H:13])[H:14])([C@@:7]1([H:17])[C:4](=[O:5])[C:6]1([H:15])[H:16])[H:11])([H:8])([H:9])[H:10]"
C        1.92734235       0.41128824      -0.09813124
C        0.72175332      -0.50522604      -0.20393937
C       -0.10928685      -0.66749746       1.09419682
C       -1.49838352      -0.27909610      -0.05879855
O       -2.56888358      -0.98460850       0.18957911
C       -1.18894551       1.11289755      -0.45468817
C       -0.42778157      -0.05438798      -1.08339612
H        2.64770945       0.03241516       0.63008925
H        1.63568416       1.41718448       0.21263377
H        2.43243779       0.49413398      -1.06233929
H        1.04340950      -1.49507372      -0.53388108
H       -0.00021113       0.11398068       1.84322958
H        0.02328906      -1.65113921       1.55657620
H       -1.47688114      -1.05172218       1.00773753
H       -1.97816925       1.52002348      -1.07647875
H       -0.69575220       1.83747409       0.18349653
H       -0.48733086      -0.25064647      -2.14588621
17
Frame=2 idx=008620 GeodesicLength=0.17808354491079448 rxn_smarts="[C:1]([C@@:2]1([H:11])[C:3]([H:12])([H:13])[C@@:4]2([O:5][H:14])[C:6]([H:15])([H:16])[C@@:7]12[H:17])([H:8])([H:9])[H:10]>>[C:1]([C:2]([C:3]([H:12])([H:13])[H:14])([C@@:7]1([H:17])[C:4](=[O:5])[C:6]1([H:15])[H:16])[H:11])([H:8])([H:9])[H:10]"
C        1.92780831       0.40962250      -0.09887211
C        0.72208448      -0.50693896      -0.20194802
C       -0.10823827      -0.67042046       1.09634075
C       -1.50325188      -0.27750366      -0.06845543
O       -2.57036764      -0.98334606       0.18454941
C       -1.19291823       1.11537324      -0.45914236
C       -0.42549952      -0.05128692      -1.08253913
H        2.65031370       0.02878575       0.62621255
H        1.63714659       1.41487600       0.21498931
H        2.42945909       0.49481234      -1.06475154
H        1.04284144      -1.49600503      -0.53536355
H        0.00148762       0.11388107       1.84292329
H        0.04102316      -1.64994271       1.56164373
H       -1.49001238      -1.05879101       1.02865868
H       -1.97489290       1.52688051      -1.08706767
H       -0.70573556       1.83581702       0.18835297
H       -0.48124801      -0.24581361      -2.14553086
17
Frame=3 idx=008620 GeodesicLength=0.2670403610475576 rxn_smarts="[C:1]([C@@:2]1([H:11])[C:3]([H:12])([H:13])[C@@:4]2([O:5][H:14])[C:6]([H:15])([H:16])[C@@:7]12[H:17])([H:8])([H:9])[H:10]>>[C:1]([C:2]([C:3]([H:12])([H:13])[H:14])([C@@:7]1([H:17])[C:4](=[O:5])[C:6]1([H:15])[H:16])[H:11])([H:8])([H:9])[H:10]"
C        1.92824091       0.40791873      -0.09955226
C        0.72235858      -0.50864380      -0.20003993
C       -0.10731482      -0.67347298       1.09835810
C       -1.50818565      -0.27583857      -0.07857354
O       -2.57161874      -0.98199450       0.18023297
C       -1.19685690       1.11792876      -0.46377955
C       -0.42317827      -0.04808617      -1.08181706
H        2.65280849       0.02504947       0.62241192
H        1.63859489       1.41250712       0.21745925
H        2.42651958       0.49550274      -1.06704002
H        1.04221295      -1.49690553      -0.53696651
H        0.00297417       0.11369101       1.84245670
H        0.05911237      -1.64845238       1.56671120
H       -1.50329735      -1.06635132       1.05009205
H       -1.97144711       1.53391916      -1.09776725
H       -0.71586432       1.83408302       0.19311842
H       -0.47505878      -0.24085476      -2.14530450
17
Frame=4 idx=008620 GeodesicLength=0.35598751373965326 rxn_smarts="[C:1]([C@@:2]1([H:11])[C:3]([H:12])([H:13])[C@@:4]2([O:5][H:14])[C:6]([H:15])([H:16])[C@@:7]12[H:17])([H:8])([H:9])[H:10]>>[C:1]([C:2]([C:3]([H:12])([H:13])[H:14])([C@@:7]1([H:17])[C:4](=[O:5])[C:6]1([H:15])[H:16])[H:11])([H:8])([H:9])[H:10]"
C        1.92863613       0.40617446      -0.10016834
C        0.72257032      -0.51034167      -0.19822134
C       -0.10652827      -0.67666783       1.10023784
C       -1.51319127      -0.27409957      -0.08919018
O       -2.57262194      -0.98052225       0.17668464
C       -1.20075762       1.12056743      -0.46861038
C       -0.42081463      -0.04478204      -1.08124128
H        2.65518536       0.02120072       0.61869339
H        1.64002384       1.41007306       0.22005083
H        2.42362170       0.49620654      -1.06919836
H        1.04152132      -1.49777448      -0.53869683
H        0.00422556       0.11340320       1.84181534
H        0.07756999      -1.64662790       1.57177448
H       -1.51672779      -1.07446980       1.07208826
H       -1.96781905       1.54115350      -1.10858618
H       -0.72614424       1.83226513       0.19778739
H       -0.46874939      -0.23575850      -2.14521927
17
Frame=5 idx=008620 GeodesicLength=0.4449422332467607 rxn_smarts="[C:1]([C@@:2]1([H:11])[C:3]([H:12])([H:13])[C@@:4]2([O:5][H:14])[C:6]([H:15])([H:16])[C@@:7]12[H:17])([H:8])([H:9])[H:10]>>[C:1]([C:2]([C:3]([H:12])([H:13])[H:14])([C@@:7]1([H:17])[C:4](=[O:5])[C:6]1([H:15])[H:16])[H:11])([H:8])([H:9])[H:10]"
C        1.92898967       0.40438806      -0.10071668
C        0.72271405      -0.51203307      -0.19649848
C       -0.10589046      -0.68001551       1.10196859
C       -1.51827583      -0.27228528      -0.10034444
O       -2.57335653      -0.97889189       0.17396589
C       -1.20461665       1.12329260      -0.47364691
C       -0.41840530      -0.04137115      -1.08082353
H        2.65743569       0.01723512       0.61506397
H        1.64142788       1.40757020       0.22277106
H        2.42076791       0.49692562      -1.07121980
H        1.04076364      -1.49861105      -0.54056096
H        0.00521928       0.11301094       1.84098574
H        0.09640216      -1.64443952       1.57682716
H       -1.53029178      -1.08321454       1.09469947
H       -1.96399724       1.54859641      -1.11953601
H       -0.73658109       1.83035697       0.20235293
H       -0.46230539      -0.23051390      -2.14528800
17
Frame=6 idx=008620 GeodesicLength=0.5339330472717265 rxn_smarts="[C:1]([C@@:2]1([H:11])[C:3]([H:12])([H:13])[C@@:4]2([O:5][H:14])[C:6]([H:15])([H:16])[C@@:7]12[H:17])([H:8])([H:9])[H:10]>>[C:1]([C:2]([C:3]([H:12])([H:13])[H:14])([C@@:7]1([H:17])[C:4](=[O:5])[C:6]1([H:15])[H:16])[H:11])([H:8])([H:9])[H:10]"
C        1.92929619       0.40255705      -0.10119352
C        0.72278321      -0.51371903      -0.19487813
C       -0.10541513      -0.68352909       1.10353809
C       -1.52344814      -0.27039467      -0.11208095
O       -2.57379676      -0.97706036       0.17214586
C       -1.20842998       1.12610755      -0.47890212
C       -0.41594735      -0.03785029      -1.08057675
H        2.65954911       0.01314689       0.61153041
H        1.64279998       1.40499329       0.22562758
H        2.41796025       0.49766122      -1.07309708
H        1.03993648      -1.49941449      -0.54256586
H        0.00592824       0.11250691       1.83995185
H        0.11561509      -1.64184380       1.58186266
H       -1.54397438      -1.09266914       1.11798293
H       -1.95996515       1.55626459      -1.13062763
H       -0.74718213       1.82835051       0.20680660
H       -0.45570952      -0.22510713      -2.14552395
17
Frame=7 idx=008620 GeodesicLength=0.6229541076462827 rxn_smarts="[C:1]([C@@:2]1([H:11])[C:3]([H:12])([H:13])[C@@:4]2([O:5][H:14])[C:6]([H:15])([H:16])[C@@:7]12[H:17])([H:8])([H:9])[H:10]>>[C:1]([C:2]([C:3]([H:12])([H:13])[H:14])([C@@:7]1([H:17])[C:4](=[O:5])[C:6]1([H:15])[H:16])[H:11])([H:8])([H:9])[H:10]"
C        1.92955069       0.40068038      -0.10159570
C        0.72277161      -0.51539989      -0.19336617
C       -0.10511361      -0.68721836       1.10493610
C       -1.52871719      -0.26842758      -0.12444248
O       -2.57391014      -0.97497976       0.17129520
C       -1.21219425       1.12901443      -0.48438823
C       -0.41343837      -0.03421759      -1.08051211
H        2.66151658       0.00893246       0.60809902
H        1.64413356       1.40233918       0.22862649
H        2.41520015       0.49841508      -1.07482415
H        1.03903657      -1.50018420      -0.54471665
H        0.00632809       0.11188600       1.83870028
H        0.13520260      -1.63880898       1.58687217
H       -1.55775990      -1.10291630       1.14199027
H       -1.95570781       1.56417250      -1.14187224
H       -0.75795402       1.82623842       0.21113800
H       -0.44894457      -0.21952579      -2.14593980
17
Frame=8 idx=008620 GeodesicLength=0.7120305591962501 rxn_smarts="[C:1]([C@@:2]1([H:11])[C:3]([H:12])([H:13])[C@@:4]2([O:5][H:14])[C:6]([H:15])([H:16])[C@@:7]12[H:17])([H:8])([H:9])[H:10]>>[C:1]([C:2]([C:3]([H:12])([H:13])[H:14])([C@@:7]1([H:17])[C:4](=[O:5])[C:6]1([H:15])[H:16])[H:11])([H:8])([H:9])[H:10]"
C        1.92974593       0.39875561      -0.10192002
C        0.72267087      -0.51707690      -0.19196934
C       -0.10500034      -0.69109617       1.10615078
C       -1.53409629      -0.26638475      -0.13748083
O       -2.57364955      -0.97258584       0.17149464
C       -1.21590592       1.13201511      -0.49011957
C       -0.41087678      -0.03047184      -1.08064276
H        2.66332628       0.00458677       0.60477590
H        1.64541914       1.39960232       0.23177445
H        2.41248759       0.49918833      -1.07639447
H        1.03805893      -1.50092029      -0.54701870
H        0.00638830       0.11114287       1.83721362
H        0.15515805      -1.63528628       1.59184874
H       -1.57162656      -1.11406474       1.16678215
H       -1.95120428       1.57233937      -1.15328310
H       -0.76890596       1.82400983       0.21533817
H       -0.44198942      -0.21375340      -2.14654965
17
Frame=9 idx=008620 GeodesicLength=0.8011384740654404 rxn_smarts="[C:1]([C@@:2]1([H:11])[C:3]([H:12])([H:13])[C@@:4]2([O:5][H:14])[C:6]([H:15])([H:16])[C@@:7]12[H:17])([H:8])([H:9])[H:10]>>[C:1]([C:2]([C:3]([H:12])([H:13])[H:14])([C@@:7]1([H:17])[C:4](=[O:5])[C:6]1([H:15])[H:16])[H:11])([H:8])([H:9])[H:10]"
C        1.92987404       0.39678075      -0.10216303
C        0.72247256      -0.51875141      -0.19069290
C       -0.10508744      -0.69517580       1.10717217
C       -1.53959987      -0.26426901      -0.15124434
O       -2.57296281      -0.96980714       0.17282446
C       -1.21956242       1.13510994      -0.49610910
C       -0.40826215      -0.02661384      -1.08097944
H        2.66496711       0.00010525       0.60156707
H        1.64664684       1.39677841       0.23507938
H        2.40982056       0.49998308      -1.07780218
H        1.03699870      -1.50162352      -0.54947656
H        0.00608067       0.11027155       1.83547638
H        0.17546350      -1.63123154       1.59678240
H       -1.58554311      -1.12621617       1.19241095
H       -1.94643685       1.58078004      -1.16487452
H       -0.78004638       1.82165438       0.21939611
H       -0.43482295      -0.20777494      -2.14736686
17
Frame=10 idx=008620 GeodesicLength=0.8902746937542446 rxn_smarts="[C:1]([C@@:2]1([H:11])[C:3]([H:12])([H:13])[C@@:4]2([O:5][H:14])[C:6]([H:15])([H:16])[C@@:7]12[H:17])([H:8])([H:9])[H:10]>>[C:1]([C:2]([C:3]([H:12])([H:13])[H:14])([C@@:7]1([H:17])[C:4](=[O:5])[C:6]1([H:15])[H:16])[H:11])([H:8])([H:9])[H:10]"
C        1.92992697       0.39475449      -0.10232341
C        0.72216710      -0.52042368      -0.18954138
C       -0.10538745      -0.69946282       1.10799335
C       -1.54524318      -0.26207821      -0.16578417
O       -2.57179013      -0.96657448       0.17536483
C       -1.22316095       1.13830066      -0.50237009
C       -0.40559617      -0.02264495      -1.08153214
H        2.66642771      -0.00451424       0.59847679
H        1.64780725       1.39386391       0.23854327
H        2.40719690       0.50079821      -1.07904331
H        1.03584901      -1.50229374      -0.55209110
H        0.00537539       0.10927252       1.83347626
H        0.19610087      -1.62660917       1.60166590
H       -1.59948651      -1.13949387       1.21892883
H       -1.94137912       1.58951656      -1.17665817
H       -0.79138373       1.81916376       0.22329521
H       -0.42742398      -0.20157495      -2.14840068
17
Frame=11 idx=008620 GeodesicLength=0.9794255035518387 rxn_smarts="[C:1]([C@@:2]1([H:11])[C:3]([H:12])([H:13])[C@@:4]2([O:5][H:14])[C:6]([H:15])([H:16])[C@@:7]12[H:17])([H:8])([H:9])[H:10]>>[C:1]([C:2]([C:3]([H:12])([H:13])[H:14])([C@@:7]1([H:17])[C:4](=[O:5])[C:6]1([H:15])[H:16])[H:11])([H:8])([H:9])[H:10]"
C        1.92989620       0.39267524      -0.10240046
C        0.72174495      -0.52209477      -0.18851852
C       -0.10590967      -0.70396653       1.10860916
C       -1.55104370      -0.25981323      -0.18115019
O       -2.57006029      -0.96280913       0.17919074
C       -1.22669915       1.14158719      -0.50891433
C       -0.40288171      -0.01856874      -1.08230899
H        2.66769820      -0.00927425       0.59550707
H        1.64889037       1.39085538       0.24216913
H        2.40461186       0.50163387      -1.08011582
H        1.03460299      -1.50293241      -0.55486263
H        0.00424315       0.10814508       1.83120016
H        0.21703730      -1.62137286       1.60649093
H       -1.61342829      -1.15402360       1.24638882
H       -1.93600566       1.59856816      -1.18864534
H       -0.80292633       1.81652759       0.22702066
H       -0.41977023      -0.19513699      -2.14966041
17
Frame=12 idx=008620 GeodesicLength=1.068571387445272 rxn_smarts="[C:1]([C@@:2]1([H:11])[C:3]([H:12])([H:13])[C@@:4]2([O:5][H:14])[C:6]([H:15])([H:16])[C@@:7]12[H:17])([H:8])([H:9])[H:10]>>[C:1]([C:2]([C:3]([H:12])([H:13])[H:14])([C@@:7]1([H:17])[C:4](=[O:5])[C:6]1([H:15])[H:16])[H:11])([H:8])([H:9])[H:10]"
C        1.92977047       0.39054125      -0.10239409
C        0.72119355      -0.52376558      -0.18762596
C       -0.10666494      -0.70869209       1.10901772
C       -1.55702357      -0.25747287      -0.19739313
O       -2.56768729      -0.95841557       0.18438194
C       -1.23017532       1.14497019      -0.51575587
C       -0.40012536      -0.01439168      -1.08331614
H        2.66876589      -0.01417634       0.59265989
H        1.64988389       1.38774942       0.24595737
H        2.40205752       0.50248754      -1.08101833
H        1.03325062      -1.50354129      -0.55778740
H        0.00265347       0.10689234       1.82863791
H        0.23823922      -1.61547897       1.61125255
H       -1.62732976      -1.16995434       1.27482940
H       -1.93028692       1.60795726      -1.20084914
H       -0.81468168       1.81373708       0.23055515
H       -0.41183979      -0.18844634      -2.15115187
17
Frame=13 idx=008620 GeodesicLength=1.1576846124606732 rxn_smarts="[C:1]([C@@:2]1([H:11])[C:3]([H:12])([H:13])[C@@:4]2([O:5][H:14])[C:6]([H:15])([H:16])[C@@:7]12[H:17])([H:8])([H:9])[H:10]>>[C:1]([C:2]([C:3]([H:12])([H:13])[H:14])([C@@:7]1([H:17])[C:4](=[O:5])[C:6]1([H:15])[H:16])[H:11])([H:8])([H:9])[H:10]"
C        1.92953890       0.38835193      -0.10230671
C        0.72050055      -0.52543597      -0.18686181
C       -0.10765825      -0.71363838       1.10922464
C       -1.56320629      -0.25505350      -0.21455496
O       -2.56456893      -0.95329736       0.19100172
C       -1.23358825       1.14844962      -0.52290417
C       -0.39733720      -0.01012321      -1.08455409
H        2.66962125      -0.01921909       0.58993262
H        1.65077746       1.38454545       0.24990387
H        2.39952242       0.50335589      -1.08175480
H        1.03178022      -1.50412276      -0.56085665
H        0.00058167       0.10552380       1.82578527
H        0.25965775      -1.60889461       1.61594822
H       -1.64115931      -1.18744097       1.30427500
H       -1.92419250       1.61770459      -1.21327979
H       -0.82665467       1.81078651       0.23387767
H       -0.40361482      -0.18149194      -2.15287603
17
Frame=14 idx=008620 GeodesicLength=1.246751026880795 rxn_smarts="[C:1]([C@@:2]1([H:11])[C:3]([H:12])([H:13])[C@@:4]2([O:5][H:14])[C:6]([H:15])([H:16])[C@@:7]12[H:17])([H:8])([H:9])[H:10]>>[C:1]([C:2]([C:3]([H:12])([H:13])[H:14])([C@@:7]1([H:17])[C:4](=[O:5])[C:6]1([H:15])[H:16])[H:11])([H:8])([H:9])[H:10]"
C        1.92918944       0.38610548      -0.10214240
C        0.71965184      -0.52710630      -0.18622198
C       -0.10889338      -0.71880382       1.10923991
C       -1.56961778      -0.25254791      -0.23267470
O       -2.56059962      -0.94735545       0.19910621
C       -1.23693625       1.15202754      -0.53036871
C       -0.39453092      -0.00577490      -1.08602038
H        2.67025484      -0.02440165       0.58732043
H        1.65156003       1.38124144       0.25400222
H        2.39699243       0.50423265      -1.08233114
H        1.03017739      -1.50468044      -0.56405789
H       -0.00199796       0.10405108       1.82264021
H        0.28124308      -1.60157368       1.62057963
H       -1.65487836      -1.20665706       1.33473815
H       -1.91768734       1.62783439      -1.22594559
H       -0.83884837       1.80767224       0.23696456
H       -0.39507910      -0.17426359      -2.15482851
17
Frame=15 idx=008620 GeodesicLength=1.3357569630816533 rxn_smarts="[C:1]([C@@:2]1([H:11])[C:3]([H:12])([H:13])[C@@:4]2([O:5][H:14])[C:6]([H:15])([H:16])[C@@:7]12[H:17])([H:8])([H:9])[H:10]>>[C:1]([C:2]([C:3]([H:12])([H:13])[H:14])([C@@:7]1([H:17])[C:4](=[O:5])[C:6]1([H:15])[H:16])[H:11])([H:8])([H:9])[H:10]"
C        1.92870880       0.38380112      -0.10190759
C        0.71863201      -0.52877594      -0.18569767
C       -0.11036936      -0.72417928       1.10908241
C       -1.57628698      -0.24994548      -0.25178006
O       -2.55565452      -0.94048378       0.20873474
C       -1.24021793       1.15570634      -0.53815677
C       -0.39172531      -0.00136287      -1.08770607
H        2.67065841      -0.02972015       0.58481422
H        1.65222131       1.37783839       0.25824120
H        2.39444786       0.50510946      -1.08275812
H        1.02842484      -1.50521858      -0.56737191
H       -0.00510532       0.10249349       1.81920795
H        0.30293646      -1.59348238       1.62515364
H       -1.66845092      -1.22778655       1.36620542
H       -1.91073548       1.63836886      -1.23885268
H       -0.85126100       1.80439587       0.23979010
H       -0.38622287      -0.16675853      -2.15699881
17
Frame=16 idx=008620 GeodesicLength=1.424715814224088 rxn_smarts="[C:1]([C@@:2]1([H:11])[C:3]([H:12])([H:13])[C@@:4]2([O:5][H:14])[C:6]([H:15])([H:16])[C@@:7]12[H:17])([H:8])([H:9])[H:10]>>[C:1]([C:2]([C:3]([H:12])([H:13])[H:14])([C@@:7]1([H:17])[C:4](=[O:5])[C:6]1([H:15])[H:16])[H:11])([H:8])([H:9])[H:10]"
C        1.92808402       0.38143802      -0.10161239
C        0.71742479      -0.53044390      -0.18527488
C       -0.11207920      -0.72974927       1.10878188
C       -1.58324518      -0.24723050      -0.27188432
O       -2.54959946      -0.93257861       0.21989784
C       -1.24343207       1.15949003      -0.54627161
C       -0.38894550       0.00309261      -1.08959508
H        2.67082744      -0.03516864       0.58239939
H        1.65275371       1.37433877       0.26260330
H        2.39186458       0.50597453      -1.08305324
H        1.02650166      -1.50574301      -0.57077159
H       -0.00875347       0.10087678       1.81550261
H        0.32467693      -1.58458479       1.62968400
H       -1.68184967      -1.25102714       1.39863841
H       -1.90329941       1.64933033      -1.25200387
H       -0.86388530       1.80096453       0.24232667
H       -0.37704387      -0.15897974      -2.15936713
