12
Frame=0 idx=002293 GeodesicLength=0.0 rxn_smarts="[O:1]=[C:2]1[C:3]([H:7])([H:8])[C:4]([H:9])([H:10])[C:5]([H:11])([H:12])[O:6]1>>[O:1]([C@:2]12[C:3]([H:7])([H:8])[C:4]([H:9])([H:10])[C@@:5]1([H:11])[O:6]2)[H:12]"
O        1.03812133       1.59003598      -1.15447191
C        0.74976748       0.72275243      -0.22826678
C        0.73765638      -0.80307175      -0.30740757
C       -0.66680087      -0.85405700       0.35445455
C       -0.74160340       0.66070271       0.44992949
O        0.50899062       1.06702304       1.08657806
H        0.75225501      -1.15710666      -1.33545038
H        1.54932518      -1.25133571       0.26221110
H       -1.42768799      -1.27272356      -0.30290588
H       -0.69857988      -1.35749077       1.32124169
H       -1.57698068       1.29521514       0.72185531
H       -0.22446315       1.36005616      -0.86776765
12
Frame=1 idx=002293 GeodesicLength=0.08180761216380084 rxn_smarts="[O:1]=[C:2]1[C:3]([H:7])([H:8])[C:4]([H:9])([H:10])[C:5]([H:11])([H:12])[O:6]1>>[O:1]([C@:2]12[C:3]([H:7])([H:8])[C:4]([H:9])([H:10])[C@@:5]1([H:11])[O:6]2)[H:12]"
O        1.05055118       1.58618450      -1.15117548
C        0.76047984       0.71939628      -0.22710076
C        0.73814143      -0.80522433      -0.30643347
C       -0.66612448      -0.85342875       0.35454796
C       -0.74455253       0.66216576       0.44392016
O        0.50293292       1.07165297       1.08232272
H        0.74921383      -1.15769364      -1.33529474
H        1.55030435      -1.25781202       0.25889731
H       -1.42686046      -1.27679321      -0.29992623
H       -0.69628418      -1.35268002       1.32352161
H       -1.58320737       1.28656898       0.72851286
H       -0.23459454       1.37766348      -0.87179194
12
Frame=2 idx=002293 GeodesicLength=0.1635343372121283 rxn_smarts="[O:1]=[C:2]1[C:3]([H:7])([H:8])[C:4]([H:9])([H:10])[C:5]([H:11])([H:12])[O:6]1>>[O:1]([C@:2]12[C:3]([H:7])([H:8])[C:4]([H:9])([H:10])[C@@:5]1([H:11])[O:6]2)[H:12]"
O        1.06258646       1.58210963      -1.14794738
C        0.77154428       0.71589790      -0.22565374
C        0.73870740      -0.80743649      -0.30537740
C       -0.66542337      -0.85274323       0.35459350
C       -0.74743490       0.66367957       0.43772676
O        0.49690380       1.07632963       1.07793624
H        0.74630280      -1.15825110      -1.33507326
H        1.55122103      -1.26453378       0.25565937
H       -1.42596034      -1.28079870      -0.29700978
H       -0.69407888      -1.34774368       1.32576070
H       -1.58922397       1.27769027       0.73515447
H       -0.24514431       1.39579997      -0.87576946
12
Frame=3 idx=002293 GeodesicLength=0.24520898720206674 rxn_smarts="[O:1]=[C:2]1[C:3]([H:7])([H:8])[C:4]([H:9])([H:10])[C:5]([H:11])([H:12])[O:6]1>>[O:1]([C@:2]12[C:3]([H:7])([H:8])[C:4]([H:9])([H:10])[C@@:5]1([H:11])[O:6]2)[H:12]"
O        1.07418399       1.57780017      -1.14479693
C        0.78298697       0.71224377      -0.22390195
C        0.73936206      -0.80971521      -0.30423205
C       -0.66469390      -0.85199935       0.35458758
C       -0.75023783       0.66524525       0.43134224
O        0.49091283       1.08104842       1.07341640
H        0.74353421      -1.15878185      -1.33478003
H        1.55207321      -1.27151814       0.25250579
H       -1.42498295      -1.28473417      -0.29416483
H       -0.69196983      -1.34268040       1.32795443
H       -1.59500460       1.26858552       0.74175018
H       -0.25616416       1.41450598      -0.87968083
12
Frame=4 idx=002293 GeodesicLength=0.32686031275306104 rxn_smarts="[O:1]=[C:2]1[C:3]([H:7])([H:8])[C:4]([H:9])([H:10])[C:5]([H:11])([H:12])[O:6]1>>[O:1]([C@:2]12[C:3]([H:7])([H:8])[C:4]([H:9])([H:10])[C@@:5]1([H:11])[O:6]2)[H:12]"
O        1.08529827       1.57324143      -1.14173329
C        0.79483488       0.70841981      -0.22182081
C        0.74011382      -0.81206761      -0.30298948
C       -0.66393195      -0.85119647       0.35452582
C       -0.75294848       0.66686298       0.42475889
O        0.48497263       1.08580356       1.06875978
H        0.74092209      -1.15928960      -1.33440830
H        1.55285900      -1.27878232       0.24944638
H       -1.42392280      -1.28859386      -0.29140128
H       -0.68996311      -1.33748915       1.33009772
H       -1.60052351       1.25926525       0.74826954
H       -0.26771084       1.43382598      -0.88350496
12
Frame=5 idx=002293 GeodesicLength=0.4085083218523311 rxn_smarts="[O:1]=[C:2]1[C:3]([H:7])([H:8])[C:4]([H:9])([H:10])[C:5]([H:11])([H:12])[O:6]1>>[O:1]([C@:2]12[C:3]([H:7])([H:8])[C:4]([H:9])([H:10])[C@@:5]1([H:11])[O:6]2)[H:12]"
O        1.09587566       1.56841490      -1.13876687
C        0.80711653       0.70441095      -0.21938535
C        0.74097232      -0.81450158      -0.30164067
C       -0.66313327      -0.85033434       0.35440335
C       -0.75555204       0.66853301       0.41796890
O        0.47909685       1.09058808       1.06396099
H        0.73848249      -1.15978054      -1.33394963
H        1.55357698      -1.28634454       0.24649189
H       -1.42277373      -1.29237152      -0.28873050
H       -0.68806547      -1.33216939       1.33218503
H       -1.60575282       1.24974167       0.75467697
H       -0.27984352       1.45381329      -0.88721410
12
Frame=6 idx=002293 GeodesicLength=0.49017695052994265 rxn_smarts="[O:1]=[C:2]1[C:3]([H:7])([H:8])[C:4]([H:9])([H:10])[C:5]([H:11])([H:12])[O:6]1>>[O:1]([C@:2]12[C:3]([H:7])([H:8])[C:4]([H:9])([H:10])[C@@:5]1([H:11])[O:6]2)[H:12]"
O        1.10586916       1.56330278      -1.13590851
C        0.81985948       0.70020125      -0.21657135
C        0.74194769      -0.81702537      -0.30017621
C       -0.66229295      -0.84941248       0.35421525
C       -0.75803317       0.67025595       0.41096396
O        0.47330066       1.09539480       1.05901323
H        0.73623256      -1.16026097      -1.33339548
H        1.55422519      -1.29422269       0.24365351
H       -1.42152974      -1.29606105      -0.28616386
H       -0.68628385      -1.32672031       1.33421003
H       -1.61066519       1.24002884       0.76093644
H       -0.29262983       1.47451925      -0.89077702
12
Frame=7 idx=002293 GeodesicLength=0.5718976797871015 rxn_smarts="[O:1]=[C:2]1[C:3]([H:7])([H:8])[C:4]([H:9])([H:10])[C:5]([H:11])([H:12])[O:6]1>>[O:1]([C@:2]12[C:3]([H:7])([H:8])[C:4]([H:9])([H:10])[C@@:5]1([H:11])[O:6]2)[H:12]"
O        1.11522068       1.55787722      -1.13317058
C        0.83309579       0.69577288      -0.21335564
C        0.74305229      -0.81964854      -0.29858487
C       -0.66140573      -0.84842947       0.35395279
C       -0.76037441       0.67203303       0.40372964
O        0.46760301       1.10021597       1.05390348
H        0.73419505      -1.16074374      -1.33273361
H        1.55480186      -1.30243531       0.24094814
H       -1.42018262      -1.29965532      -0.28371874
H       -0.68462781      -1.32113839       1.33616409
H       -1.61523210       1.23014118       0.76701696
H       -0.30614601       1.49601048      -0.89415166
12
Frame=8 idx=002293 GeodesicLength=0.6536633036964807 rxn_smarts="[O:1]=[C:2]1[C:3]([H:7])([H:8])[C:4]([H:9])([H:10])[C:5]([H:11])([H:12])[O:6]1>>[O:1]([C@:2]12[C:3]([H:7])([H:8])[C:4]([H:9])([H:10])[C@@:5]1([H:11])[O:6]2)[H:12]"
O        1.12387779       1.55211184      -1.13056298
C        0.84685012       0.69111000      -0.20972060
C        0.74429747      -0.82237869      -0.29685643
C       -0.66046677      -0.84738507       0.35360839
C       -0.76256054       0.67386398       0.39625465
O        0.46202361       1.10504054       1.04861933
H        0.73239129      -1.16124138      -1.33195243
H        1.55530673      -1.31099641       0.23839183
H       -1.41872490      -1.30314830      -0.28141080
H       -0.68310525      -1.31542214       1.33803936
H       -1.61942885       1.22009833       0.77288718
H       -0.32046069       1.51834730      -0.89729751
12
Frame=9 idx=002293 GeodesicLength=0.7354638732045453 rxn_smarts="[O:1]=[C:2]1[C:3]([H:7])([H:8])[C:4]([H:9])([H:10])[C:5]([H:11])([H:12])[O:6]1>>[O:1]([C@:2]12[C:3]([H:7])([H:8])[C:4]([H:9])([H:10])[C@@:5]1([H:11])[O:6]2)[H:12]"
O        1.13176043       1.54596261      -1.12809273
C        0.86115110       0.68619683      -0.20565305
C        0.74569732      -0.82522484      -0.29497753
C       -0.65946999      -0.84627804       0.35317147
C       -0.76457276       0.67575072       0.38852536
O        0.45658690       1.10985395       1.04314049
H        0.73084847      -1.16177635      -1.33103444
H        1.55573997      -1.31991918       0.23600660
H       -1.41714600      -1.30653140      -0.27926145
H       -0.68172627      -1.30956870       1.33982420
H       -1.62322197       1.20991854       0.77850546
H       -0.33564718       1.54161585      -0.90015438
12
Frame=10 idx=002293 GeodesicLength=0.8173066693506582 rxn_smarts="[O:1]=[C:2]1[C:3]([H:7])([H:8])[C:4]([H:9])([H:10])[C:5]([H:11])([H:12])[O:6]1>>[O:1]([C@:2]12[C:3]([H:7])([H:8])[C:4]([H:9])([H:10])[C@@:5]1([H:11])[O:6]2)[H:12]"
O        1.13882467       1.53939934      -1.12577897
C        0.87602171       0.68101586      -0.20114126
C        0.74726589      -0.82819717      -0.29293466
C       -0.65841057      -0.84510754       0.35263022
C       -0.76639524       0.67769411       0.38052240
O        0.45131686       1.11464593       1.03744448
H        0.72959538      -1.16236915      -1.32996364
H        1.55610061      -1.32921513       0.23381516
H       -1.41543775      -1.30979989      -0.27729200
H       -0.68050322      -1.30357385       1.34150753
H       -1.62658668       1.19962275       0.78384695
H       -0.35179165       1.56588473      -0.90265621
12
Frame=11 idx=002293 GeodesicLength=0.8991710965335146 rxn_smarts="[O:1]=[C:2]1[C:3]([H:7])([H:8])[C:4]([H:9])([H:10])[C:5]([H:11])([H:12])[O:6]1>>[O:1]([C@:2]12[C:3]([H:7])([H:8])[C:4]([H:9])([H:10])[C@@:5]1([H:11])[O:6]2)[H:12]"
O        1.14501449       1.53238072      -1.12363419
C        0.89148043       0.67555300      -0.19618136
C        0.74901701      -0.83130351      -0.29071418
C       -0.65728365      -0.84387248       0.35197219
C       -0.76801259       0.67969549       0.37222947
O        0.44624034       1.11940023       1.03150618
H        0.72866185      -1.16304493      -1.32872185
H        1.55639063      -1.33889036       0.23184365
H       -1.41359043      -1.31294676      -0.27552644
H       -0.67944777      -1.29743435       1.34307631
H       -1.62949775       1.18923488       0.78888448
H       -0.36897257       1.59122807      -0.90473427
12
Frame=12 idx=002293 GeodesicLength=0.9810410231379575 rxn_smarts="[O:1]=[C:2]1[C:3]([H:7])([H:8])[C:4]([H:9])([H:10])[C:5]([H:11])([H:12])[O:6]1>>[O:1]([C@:2]12[C:3]([H:7])([H:8])[C:4]([H:9])([H:10])[C@@:5]1([H:11])[O:6]2)[H:12]"
O        1.15027612       1.52486342      -1.12167172
C        0.90754288       0.66979497      -0.19077668
C        0.75096560      -0.83455238      -0.28830120
C       -0.65608448      -0.84257126       0.35118256
C       -0.76941031       0.68175700       0.36362620
O        0.44138722       1.12409970       1.02529479
H        0.72808082      -1.16383592      -1.32728758
H        1.55661156      -1.34894720       0.23012217
H       -1.41159436      -1.31596580      -0.27399095
H       -0.67857331      -1.29114537       1.34451557
H       -1.63192685       1.17877892       0.79358972
H       -0.38727489       1.61772392      -0.90630287
12
Frame=13 idx=002293 GeodesicLength=1.062898406000421 rxn_smarts="[O:1]=[C:2]1[C:3]([H:7])([H:8])[C:4]([H:9])([H:10])[C:5]([H:11])([H:12])[O:6]1>>[O:1]([C@:2]12[C:3]([H:7])([H:8])[C:4]([H:9])([H:10])[C@@:5]1([H:11])[O:6]2)[H:12]"
O        1.15455985       1.51680121      -1.11990219
C        0.92422000       0.66373036      -0.18493967
C        0.75312635      -0.83795104      -0.28568072
C       -0.65480870      -0.84120080       0.35024440
C       -0.77057453       0.68388209       0.35469127
O        0.43678992       1.12872411       1.01877594
H        0.72788709      -1.16477871      -1.32563818
H        1.55676697      -1.35938242       0.22868577
H       -1.40943985      -1.31884905      -0.27271500
H       -0.67789472      -1.28470033       1.34580801
H       -1.63384708       1.16828037       0.79794026
H       -0.40678530       1.64544421      -0.90726988
12
Frame=14 idx=002293 GeodesicLength=1.1447161214278554 rxn_smarts="[O:1]=[C:2]1[C:3]([H:7])([H:8])[C:4]([H:9])([H:10])[C:5]([H:11])([H:12])[O:6]1>>[O:1]([C@:2]12[C:3]([H:7])([H:8])[C:4]([H:9])([H:10])[C@@:5]1([H:11])[O:6]2)[H:12]"
O        1.15783557       1.50815156      -1.11834020
C        0.94151185       0.65735170      -0.17869061
C        0.75551236      -0.84150600      -0.28283767
C       -0.65345353      -0.83975943       0.34914111
C       -0.77149601       0.68607365       0.34540385
O        0.43247883       1.13325417       1.01191080
H        0.72811393      -1.16591196      -1.32375064
H        1.55686059      -1.37018622       0.22756919
H       -1.40711875      -1.32159229      -0.27172616
H       -0.67742576      -1.27809432       1.34693696
H       -1.63523478       1.15776562       0.80191502
H       -0.42758431       1.67445352      -0.90753165
12
Frame=15 idx=002293 GeodesicLength=1.226471846830297 rxn_smarts="[O:1]=[C:2]1[C:3]([H:7])([H:8])[C:4]([H:9])([H:10])[C:5]([H:11])([H:12])[O:6]1>>[O:1]([C@:2]12[C:3]([H:7])([H:8])[C:4]([H:9])([H:10])[C@@:5]1([H:11])[O:6]2)[H:12]"
O        1.16008161       1.49886903      -1.11699633
C        0.95941257       0.65065518      -0.17206247
C        0.75813616      -0.84522212      -0.27975747
C       -0.65201680      -0.83824346       0.34785332
C       -0.77216746       0.68833618       0.33574038
O        0.42848676       1.13766847       1.00465616
H        0.72879550      -1.16728047      -1.32160030
H        1.55689747      -1.38134155       0.22681261
H       -1.40462274      -1.32418982      -0.27105497
H       -0.67718157      -1.27131922       1.34788283
H       -1.63606786       1.14726117       0.80549928
H       -0.44975364       1.70480662      -0.90697305
12
Frame=16 idx=002293 GeodesicLength=1.3081414487418899 rxn_smarts="[O:1]=[C:2]1[C:3]([H:7])([H:8])[C:4]([H:9])([H:10])[C:5]([H:11])([H:12])[O:6]1>>[O:1]([C@:2]12[C:3]([H:7])([H:8])[C:4]([H:9])([H:10])[C@@:5]1([H:11])[O:6]2)[H:12]"
O        1.16129633       1.48891230      -1.11587993
C        0.97790569       0.64364212      -0.16509777
C        0.76100765      -0.84910177      -0.27642699
C       -0.65049772      -0.83664924       0.34636204
C       -0.77258627       0.69067444       0.32567979
O        0.42484493       1.14194529       0.99696727
H        0.72996282      -1.16893001      -1.31916349
H        1.55688388      -1.39282377       0.22645635
H       -1.40194586      -1.32663736      -0.27073018
H       -0.67717603      -1.26436786       1.34862636
H       -1.63632664       1.13679496       0.80867894
H       -0.47336876       1.73654090      -0.90547238
