7
Frame=0 idx=004204 GeodesicLength=0.0 rxn_smarts="[o:1]1[c:2]([H:6])[n:3][c:4]([H:7])[n:5]1>>[O:1]([N:5]=[C:4]([N+:3]#[C-:2])[H:7])[H:6]"
O        0.72160473       1.29547665       0.03274501
C        1.13528086      -0.88183702      -0.08371285
N       -0.02346802      -1.12912696      -0.05160243
C       -1.01066902      -0.09633572       0.03391305
N       -0.51616402       1.07944061       0.06959903
H        1.75367912       0.05688947      -0.06388016
H       -2.06026363      -0.32450706       0.06293837
7
Frame=1 idx=004204 GeodesicLength=0.07336058126582187 rxn_smarts="[o:1]1[c:2]([H:6])[n:3][c:4]([H:7])[n:5]1>>[O:1]([N:5]=[C:4]([N+:3]#[C-:2])[H:7])[H:6]"
O        0.72779071       1.27978939       0.03287989
C        1.13300429      -0.88256147      -0.08434923
N       -0.02806504      -1.12860941      -0.05244442
C       -1.01053476      -0.09705444       0.04242949
N       -0.51916150       1.08070317       0.06642572
H        1.75793094       0.07160875      -0.06402570
H       -2.06096463      -0.32387599       0.05908424
7
Frame=2 idx=004204 GeodesicLength=0.14683809371496503 rxn_smarts="[o:1]1[c:2]([H:6])[n:3][c:4]([H:7])[n:5]1>>[O:1]([N:5]=[C:4]([N+:3]#[C-:2])[H:7])[H:6]"
O        0.73367711       1.26432534       0.03209665
C        1.13011906      -0.88277419      -0.09786938
N       -0.03257623      -1.12830563      -0.04941690
C       -1.01037189      -0.09766283       0.05040519
N       -0.52231397       1.08207935       0.05823733
H        1.76288402       0.08573706      -0.05261229
H       -2.06141809      -0.32339910       0.05915939
7
Frame=3 idx=004204 GeodesicLength=0.22041110405252026 rxn_smarts="[o:1]1[c:2]([H:6])[n:3][c:4]([H:7])[n:5]1>>[O:1]([N:5]=[C:4]([N+:3]#[C-:2])[H:7])[H:6]"
O        0.73918852       1.24943137       0.02345099
C        1.12655133      -0.88221036      -0.12140989
N       -0.03654790      -1.12809407      -0.04188352
C       -1.01001121      -0.09822347       0.05868993
N       -0.52526707       1.08330818       0.05461016
H        1.76768097       0.09879460      -0.03138162
H       -2.06159464      -0.32300625       0.05792395
7
Frame=4 idx=004204 GeodesicLength=0.294290019214867 rxn_smarts="[o:1]1[c:2]([H:6])[n:3][c:4]([H:7])[n:5]1>>[O:1]([N:5]=[C:4]([N+:3]#[C-:2])[H:7])[H:6]"
O        0.74475644       1.23465848       0.01806106
C        1.12223695      -0.88085676      -0.15015212
N       -0.03961984      -1.12773265      -0.03034392
C       -1.00940315      -0.09858762       0.06570883
N       -0.52821393       1.08470779       0.04720697
H        1.77158466       0.11076579      -0.00842559
H       -2.06134113      -0.32295503       0.05794477
7
Frame=5 idx=004204 GeodesicLength=0.36829888138222633 rxn_smarts="[o:1]1[c:2]([H:6])[n:3][c:4]([H:7])[n:5]1>>[O:1]([N:5]=[C:4]([N+:3]#[C-:2])[H:7])[H:6]"
O        0.75028423       1.22019711       0.01137080
C        1.11733645      -0.87893541      -0.17954134
N       -0.04191165      -1.12696730      -0.01925758
C       -1.00842478      -0.09886513       0.07307179
N       -0.53101922       1.08614419       0.04013275
H        1.77432357       0.12163289       0.01606766
H       -2.06058859      -0.32320635       0.05815592
7
Frame=6 idx=004204 GeodesicLength=0.4421517602330725 rxn_smarts="[o:1]1[c:2]([H:6])[n:3][c:4]([H:7])[n:5]1>>[O:1]([N:5]=[C:4]([N+:3]#[C-:2])[H:7])[H:6]"
O        0.75581463       1.20596805       0.00507774
C        1.11169603      -0.87660048      -0.20856118
N       -0.04337608      -1.12579008      -0.00714923
C       -1.00715700      -0.09904564       0.08079796
N       -0.53370404       1.08761076       0.03367598
H        1.77610768       0.13161684       0.03911993
H       -2.05938121      -0.32375944       0.05703880
7
Frame=7 idx=004204 GeodesicLength=0.5160273006556463 rxn_smarts="[o:1]1[c:2]([H:6])[n:3][c:4]([H:7])[n:5]1>>[O:1]([N:5]=[C:4]([N+:3]#[C-:2])[H:7])[H:6]"
O        0.76139662       1.19201676      -0.00334885
C        1.10625085      -0.87386668      -0.23625834
N       -0.04452027      -1.12435103      -0.00031649
C       -1.00546939      -0.09912832       0.08686752
N       -0.53620939       1.08912393       0.02586666
H        1.77633776       0.14071574       0.06639926
H       -2.05778617      -0.32451039       0.06079022
7
Frame=8 idx=004204 GeodesicLength=0.5902854217652667 rxn_smarts="[o:1]1[c:2]([H:6])[n:3][c:4]([H:7])[n:5]1>>[O:1]([N:5]=[C:4]([N+:3]#[C-:2])[H:7])[H:6]"
O        0.76698512       1.17822142      -0.01377696
C        1.10043444      -0.87113382      -0.26283617
N       -0.04517493      -1.12277082       0.00744550
C       -1.00353703      -0.09920113       0.09357688
N       -0.53844446       1.09065975       0.02153504
H        1.77558174       0.14956296       0.09220153
H       -2.05584489      -0.32533834       0.06185417
7
Frame=9 idx=004204 GeodesicLength=0.6644055638326504 rxn_smarts="[o:1]1[c:2]([H:6])[n:3][c:4]([H:7])[n:5]1>>[O:1]([N:5]=[C:4]([N+:3]#[C-:2])[H:7])[H:6]"
O        0.77239965       1.16452228      -0.02651909
C        1.09370080      -0.86876599      -0.28776791
N       -0.04530583      -1.12109192       0.01919566
C       -1.00160148      -0.09933440       0.10186069
N       -0.54033995       1.09221087       0.02397399
H        1.77469695       0.15866186       0.11321503
H       -2.05355015      -0.32620270       0.05604162
7
Frame=10 idx=004204 GeodesicLength=0.7391828217701882 rxn_smarts="[o:1]1[c:2]([H:6])[n:3][c:4]([H:7])[n:5]1>>[O:1]([N:5]=[C:4]([N+:3]#[C-:2])[H:7])[H:6]"
O        0.77782656       1.15077428      -0.03911918
C        1.08671547      -0.86648961      -0.31219151
N       -0.04513471      -1.11918107       0.02929875
C       -0.99937584      -0.09939020       0.11000417
N       -0.54204833       1.09379085       0.02529025
H        1.77285618       0.16766087       0.13505935
H       -2.05083933      -0.32716512       0.05165818
7
Frame=11 idx=004204 GeodesicLength=0.8138346991794759 rxn_smarts="[o:1]1[c:2]([H:6])[n:3][c:4]([H:7])[n:5]1>>[O:1]([N:5]=[C:4]([N+:3]#[C-:2])[H:7])[H:6]"
O        0.78324871       1.13705510      -0.05172122
C        1.07962383      -0.86426431      -0.33574206
N       -0.04481195      -1.11728933       0.03785566
C       -0.99692838      -0.09939606       0.11771204
N       -0.54355315       1.09538108       0.02600436
H        1.77028039       0.17664821       0.15735244
H       -2.04785944      -0.32813468       0.04853878
7
Frame=12 idx=004204 GeodesicLength=0.8887471528947606 rxn_smarts="[o:1]1[c:2]([H:6])[n:3][c:4]([H:7])[n:5]1>>[O:1]([N:5]=[C:4]([N+:3]#[C-:2])[H:7])[H:6]"
O        0.78877138       1.12328993      -0.06307606
C        1.07235091      -0.86215206      -0.35885263
N       -0.04429352      -1.11531818       0.04568372
C       -0.99434162      -0.09933687       0.12452856
N       -0.54495831       1.09697716       0.02543372
H        1.76723349       0.18570718       0.17949781
H       -2.04476233      -0.32916715       0.04678488
7
Frame=13 idx=004204 GeodesicLength=0.9636767934587841 rxn_smarts="[o:1]1[c:2]([H:6])[n:3][c:4]([H:7])[n:5]1>>[O:1]([N:5]=[C:4]([N+:3]#[C-:2])[H:7])[H:6]"
O        0.79434211       1.10946517      -0.07501430
C        1.06521518      -0.86018740      -0.38117863
N       -0.04379689      -1.11347507       0.05154050
C       -0.99149384      -0.09924650       0.13090167
N       -0.54608631       1.09853248       0.02441643
H        1.76332832       0.19501290       0.20272560
H       -2.04150858      -0.33010157       0.04660873
7
Frame=14 idx=004204 GeodesicLength=1.0387565992939725 rxn_smarts="[o:1]1[c:2]([H:6])[n:3][c:4]([H:7])[n:5]1>>[O:1]([N:5]=[C:4]([N+:3]#[C-:2])[H:7])[H:6]"
O        0.80012209       1.09556868      -0.08596725
C        1.05828218      -0.85826182      -0.40319747
N       -0.04330991      -1.11173655       0.05539808
C       -0.98839572      -0.09908979       0.13632756
N       -0.54711337       1.10003806       0.02119742
H        1.75867369       0.20446271       0.22708935
H       -2.03825897      -0.33098130       0.04915230
7
Frame=15 idx=004204 GeodesicLength=1.1139298211978632 rxn_smarts="[o:1]1[c:2]([H:6])[n:3][c:4]([H:7])[n:5]1>>[O:1]([N:5]=[C:4]([N+:3]#[C-:2])[H:7])[H:6]"
O        0.80600052       1.08156219      -0.09635403
C        1.05104892      -0.85653918      -0.42502948
N       -0.04268361      -1.11000530       0.05913323
C       -0.98514033      -0.09889811       0.14172358
N       -0.54800316       1.10149189       0.01767560
H        1.75363052       0.21423133       0.25108590
H       -2.03485286      -0.33184282       0.05176521
7
Frame=16 idx=004204 GeodesicLength=1.1891268974669638 rxn_smarts="[o:1]1[c:2]([H:6])[n:3][c:4]([H:7])[n:5]1>>[O:1]([N:5]=[C:4]([N+:3]#[C-:2])[H:7])[H:6]"
O        0.81196113       1.06741734      -0.10622253
C        1.04342434      -0.85507395      -0.44670196
N       -0.04190684      -1.10827213       0.06298079
C       -0.98176592      -0.09868299       0.14705887
N       -0.54874752       1.10289311       0.01412781
H        1.74834400       0.22440772       0.27456681
H       -2.03130919      -0.33268910       0.05419021
