13
Frame=0 idx=003291 GeodesicLength=0.0 rxn_smarts="[C:1]([C@@:2]1([C:5](=[O:6])[H:13])[C:3]([H:10])([H:11])[N:4]1[H:12])([H:7])([H:8])[H:9]>>[C:1]([C:2]1=[C:5]([H:13])[O:6][N:4]([H:12])[C:3]1([H:10])[H:11])([H:7])([H:8])[H:9]"
C        1.56445884      -0.60579997       0.28423528
C        0.13603445      -0.24451917       0.07867131
C       -0.31841459       1.20514857      -0.01625367
N       -1.16910334       1.11683623      -1.10696077
C       -0.93739082      -1.11874792      -0.00069457
O       -2.02821759      -0.84604873      -0.52527491
H        1.65630561      -1.65486681       0.56908013
H        2.14036198      -0.47819343      -0.63761906
H        2.03828090       0.00859484       1.05607799
H       -0.69309708       1.62734076       0.92316508
H        0.58891698       1.73566217      -0.33594969
H       -2.13624489       1.31278508      -0.85391660
H       -0.84189045      -2.05819159       0.56543944
13
Frame=1 idx=003291 GeodesicLength=0.05493652294837152 rxn_smarts="[C:1]([C@@:2]1([C:5](=[O:6])[H:13])[C:3]([H:10])([H:11])[N:4]1[H:12])([H:7])([H:8])[H:9]>>[C:1]([C:2]1=[C:5]([H:13])[O:6][N:4]([H:12])[C:3]1([H:10])[H:11])([H:7])([H:8])[H:9]"
C        1.56142722      -0.60690163       0.27721340
C        0.13409512      -0.23902270       0.07214840
C       -0.31327674       1.21075282      -0.01393018
N       -1.15566307       1.09005914      -1.11258078
C       -0.94336568      -1.11171295       0.02492794
O       -2.02785905      -0.84088280      -0.51861459
H        1.65736828      -1.66460810       0.52640826
H        2.14373775      -0.44650387      -0.63523118
H        2.02700956      -0.01906796       1.07423708
H       -0.70358089       1.63075208       0.91918487
H        0.58834596       1.75118659      -0.33109187
H       -2.12159950       1.30000972      -0.86712979
H       -0.84663896      -2.05406035       0.58445843
13
Frame=2 idx=003291 GeodesicLength=0.10983175812119514 rxn_smarts="[C:1]([C@@:2]1([C:5](=[O:6])[H:13])[C:3]([H:10])([H:11])[N:4]1[H:12])([H:7])([H:8])[H:9]>>[C:1]([C:2]1=[C:5]([H:13])[O:6][N:4]([H:12])[C:3]1([H:10])[H:11])([H:7])([H:8])[H:9]"
C        1.55817171      -0.60798688       0.27072334
C        0.13190341      -0.23349986       0.06646105
C       -0.30812600       1.21637801      -0.01197467
N       -1.14291608       1.06381873      -1.11712111
C       -0.94911733      -1.10414636       0.05066110
O       -2.02693026      -0.83612095      -0.51237687
H        1.65784907      -1.67297737       0.48481833
H        2.14676412      -0.41597049      -0.63130112
H        2.01556428      -0.04706671       1.09142178
H       -0.71278596       1.63516828       0.91466445
H        0.58752093       1.76619751      -0.32788384
H       -2.10745424       1.28711520      -0.87896209
H       -0.85044365      -2.05090910       0.60086964
13
Frame=3 idx=003291 GeodesicLength=0.16469901025391048 rxn_smarts="[C:1]([C@@:2]1([C:5](=[O:6])[H:13])[C:3]([H:10])([H:11])[N:4]1[H:12])([H:7])([H:8])[H:9]>>[C:1]([C:2]1=[C:5]([H:13])[O:6][N:4]([H:12])[C:3]1([H:10])[H:11])([H:7])([H:8])[H:9]"
C        1.55477341      -0.60907777       0.26466321
C        0.12953073      -0.22798647       0.06148774
C       -0.30297886       1.22199074      -0.01035492
N       -1.13077226       1.03808599      -1.12071457
C       -0.95457109      -1.09620168       0.07625366
O       -2.02546257      -0.83176844      -0.50650104
H        1.65784493      -1.68012849       0.44398425
H        2.14959739      -0.38637080      -0.62591829
H        2.00395798      -0.07551542       1.10772565
H       -0.72097590       1.64036478       0.90967461
H        0.58644128       1.78080558      -0.32607626
H       -2.09377160       1.27409860      -0.88960785
H       -0.85361344      -2.04829661       0.61538381
13
Frame=4 idx=003291 GeodesicLength=0.2195813525465548 rxn_smarts="[C:1]([C@@:2]1([C:5](=[O:6])[H:13])[C:3]([H:10])([H:11])[N:4]1[H:12])([H:7])([H:8])[H:9]>>[C:1]([C:2]1=[C:5]([H:13])[O:6][N:4]([H:12])[C:3]1([H:10])[H:11])([H:7])([H:8])[H:9]"
C        1.55130389      -0.61019073       0.25891972
C        0.12705535      -0.22252092       0.05707332
C       -0.29785430       1.22753186      -0.00903921
N       -1.11913804       1.01283379      -1.12349048
C       -0.95961466      -1.08805711       0.10135169
O       -2.02349271      -0.82780146      -0.50093886
H        1.65746757      -1.68616633       0.40350595
H        2.15238569      -0.35743676      -0.61911928
H        1.99214314      -0.10459972       1.12325346
H       -0.72838868       1.64605594       0.90428713
H        0.58508110       1.79508864      -0.32542223
H       -2.08049273       1.26095625      -0.89925629
H       -0.85645562      -2.04569344       0.62887508
13
Frame=5 idx=003291 GeodesicLength=0.27451936824901274 rxn_smarts="[C:1]([C@@:2]1([C:5](=[O:6])[H:13])[C:3]([H:10])([H:11])[N:4]1[H:12])([H:7])([H:8])[H:9]>>[C:1]([C:2]1=[C:5]([H:13])[O:6][N:4]([H:12])[C:3]1([H:10])[H:11])([H:7])([H:8])[H:9]"
C        1.54782280      -0.61133185       0.25340327
C        0.12455369      -0.21713492       0.05303745
C       -0.29276127       1.23294486      -0.00801884
N       -1.10795515       0.98804685      -1.12556219
C       -0.96413628      -1.07987684       0.12560480
O       -2.02110131      -0.82416639      -0.49560758
H        1.65683423      -1.69113283       0.36305274
H        2.15527487      -0.32893652      -0.61087329
H        1.98002379      -0.13450331       1.13810094
H       -0.73518056       1.65198048       0.89855830
H        0.58341050       1.80909616      -0.32575440
H       -2.06757509       1.24771015      -0.90803889
H       -0.85921023      -2.04269584       0.64209772
13
Frame=6 idx=003291 GeodesicLength=0.32946834191067564 rxn_smarts="[C:1]([C@@:2]1([C:5](=[O:6])[H:13])[C:3]([H:10])([H:11])[N:4]1[H:12])([H:7])([H:8])[H:9]>>[C:1]([C:2]1=[C:5]([H:13])[O:6][N:4]([H:12])[C:3]1([H:10])[H:11])([H:7])([H:8])[H:9]"
C        1.54438457      -0.61250650       0.24809874
C        0.12207364      -0.21184752       0.04926830
C       -0.28771082       1.23821474      -0.00725539
N       -1.09723521       0.96376515      -1.12698354
C       -0.96811059      -1.07178224       0.14880779
O       -2.01839781      -0.82079235      -0.49049908
H        1.65600333      -1.69501300       0.32287133
H        2.15831013      -0.30106562      -0.60125929
H        1.96769792      -0.16504500       1.15213225
H       -0.74144258       1.65799151       0.89258831
H        0.58140933       1.82287279      -0.32696013
H       -2.05504649       1.23444198      -0.91597146
H       -0.86193542      -2.03923395       0.65516219
13
Frame=7 idx=003291 GeodesicLength=0.3844936388724569 rxn_smarts="[C:1]([C@@:2]1([C:5](=[O:6])[H:13])[C:3]([H:10])([H:11])[N:4]1[H:12])([H:7])([H:8])[H:9]>>[C:1]([C:2]1=[C:5]([H:13])[O:6][N:4]([H:12])[C:3]1([H:10])[H:11])([H:7])([H:8])[H:9]"
C        1.54097511      -0.61370787       0.24292936
C        0.11961219      -0.20662117       0.04586194
C       -0.28270372       1.24335249      -0.00670145
N       -1.08681982       0.93992837      -1.12783738
C       -0.97160058      -1.06378585       0.17099863
O       -2.01533855      -0.81772174      -0.48567658
H        1.65497450      -1.69781941       0.28261560
H        2.16141110      -0.27361338      -0.59030846
H        1.95518592      -0.19643273       1.16533644
H       -0.74733814       1.66405593       0.88635201
H        0.57909191       1.83646980      -0.32885247
H       -2.04277099       1.22111187      -0.92325712
H       -0.86467894      -2.03521632       0.66853947
13
Frame=8 idx=003291 GeodesicLength=0.4395435541082629 rxn_smarts="[C:1]([C@@:2]1([C:5](=[O:6])[H:13])[C:3]([H:10])([H:11])[N:4]1[H:12])([H:7])([H:8])[H:9]>>[C:1]([C:2]1=[C:5]([H:13])[O:6][N:4]([H:12])[C:3]1([H:10])[H:11])([H:7])([H:8])[H:9]"
C        1.53761368      -0.61492642       0.23792922
C        0.11722673      -0.20149214       0.04261004
C       -0.27772878       1.24834024      -0.00637523
N       -1.07679025       0.91659973      -1.12813138
C       -0.97452571      -1.05597629       0.19207117
O       -2.01205667      -0.81482741      -0.48099435
H        1.65382133      -1.69952478       0.24275893
H        2.16461177      -0.24687622      -0.57806464
H        1.94244518      -0.22832869       1.17759361
H       -0.75279256       1.67004947       0.87992513
H        0.57641076       1.84989510      -0.33147230
H       -2.03079688       1.20784763      -0.92977739
H       -0.86743860      -2.03078022       0.68192719
13
Frame=9 idx=003291 GeodesicLength=0.4946300766804146 rxn_smarts="[C:1]([C@@:2]1([C:5](=[O:6])[H:13])[C:3]([H:10])([H:11])[N:4]1[H:12])([H:7])([H:8])[H:9]>>[C:1]([C:2]1=[C:5]([H:13])[O:6][N:4]([H:12])[C:3]1([H:10])[H:11])([H:7])([H:8])[H:9]"
C        1.53432741      -0.61617328       0.23306355
C        0.11489243      -0.19641410       0.03967856
C       -0.27279722       1.25321396      -0.00622998
N       -1.06704666       0.89370556      -1.12796612
C       -0.97703917      -1.04829952       0.21222063
O       -2.00856909      -0.81213805      -0.47652128
H        1.65257047      -1.70015621       0.20303490
H        2.16787528      -0.22072009      -0.56457832
H        1.92961423      -0.26091255       1.18892656
H       -0.75796719       1.67605203       0.87329621
H        0.57340971       1.86317455      -0.33469280
H       -2.01908000       1.19461041      -0.93575185
H       -0.87019020      -2.02594272       0.69551993
13
Frame=10 idx=003291 GeodesicLength=0.5497873666001571 rxn_smarts="[C:1]([C@@:2]1([C:5](=[O:6])[H:13])[C:3]([H:10])([H:11])[N:4]1[H:12])([H:7])([H:8])[H:9]>>[C:1]([C:2]1=[C:5]([H:13])[O:6][N:4]([H:12])[C:3]1([H:10])[H:11])([H:7])([H:8])[H:9]"
C        1.53110984      -0.61745065       0.22832461
C        0.11262779      -0.19137773       0.03704546
C       -0.26790007       1.25798542      -0.00629358
N       -1.05755915       0.87120202      -1.12738808
C       -0.97914793      -1.04074107       0.23158168
O       -2.00489292      -0.80963460      -0.47216312
H        1.65124476      -1.69970001       0.16322752
H        2.17122988      -0.19503130      -0.54973067
H        1.91660336      -0.29432732       1.19937673
H       -0.76288356       1.68207735       0.86641546
H        0.57007427       1.87632228      -0.33853386
H       -2.00758385       1.18139609      -0.94124175
H       -0.87292243      -2.02072048       0.70937959
13
Frame=11 idx=003291 GeodesicLength=0.6050500861821302 rxn_smarts="[C:1]([C@@:2]1([C:5](=[O:6])[H:13])[C:3]([H:10])([H:11])[N:4]1[H:12])([H:7])([H:8])[H:9]>>[C:1]([C:2]1=[C:5]([H:13])[O:6][N:4]([H:12])[C:3]1([H:10])[H:11])([H:7])([H:8])[H:9]"
C        1.52795403      -0.61876090       0.22369290
C        0.11042849      -0.18635685       0.03477552
C       -0.26303294       1.26267716      -0.00656044
N       -1.04826700       0.84903266      -1.12644422
C       -0.98091133      -1.03326566       0.25030450
O       -2.00102201      -0.80733198      -0.46790297
H        1.64984532      -1.69811544       0.12315121
H        2.17464749      -0.16972572      -0.53345950
H        1.90341469      -0.32872153       1.20892736
H       -0.76759993       1.68816928       0.85924661
H        0.56641514       1.88935210      -0.34296184
H       -1.99625989       1.16817242      -0.94635237
H       -0.87561206      -2.01512554       0.72358324
13
Frame=12 idx=003291 GeodesicLength=0.660399581768525 rxn_smarts="[C:1]([C@@:2]1([C:5](=[O:6])[H:13])[C:3]([H:10])([H:11])[N:4]1[H:12])([H:7])([H:8])[H:9]>>[C:1]([C:2]1=[C:5]([H:13])[O:6][N:4]([H:12])[C:3]1([H:10])[H:11])([H:7])([H:8])[H:9]"
C        1.52485917      -0.62009555       0.21918081
C        0.10830231      -0.18135132       0.03283060
C       -0.25819040       1.26729593      -0.00701330
N       -1.03917170       0.82721097      -1.12513334
C       -0.98234812      -1.02587330       0.26841703
O       -1.99697605      -0.80520250      -0.46373788
H        1.64838346      -1.69537871       0.08306135
H        2.17808402      -0.14499763      -0.51584358
H        1.89008881      -0.36389624       1.21746449
H       -0.77211486       1.69430446       0.85182529
H        0.56242511       1.90226431      -0.34795684
H       -1.98510515       1.15497881      -0.95105250
H       -0.87823661      -2.00925924       0.73795788
13
Frame=13 idx=003291 GeodesicLength=0.7158535729989687 rxn_smarts="[C:1]([C@@:2]1([C:5](=[O:6])[H:13])[C:3]([H:10])([H:11])[N:4]1[H:12])([H:7])([H:8])[H:9]>>[C:1]([C:2]1=[C:5]([H:13])[O:6][N:4]([H:12])[C:3]1([H:10])[H:11])([H:7])([H:8])[H:9]"
C        1.52182340      -0.62146061       0.21478034
C        0.10624556      -0.17634165       0.03126156
C       -0.25336831       1.27185939      -0.00766022
N       -1.03023789       0.80568842      -1.12349313
C       -0.98350655      -1.01853481       0.28604801
O       -1.99275899      -0.80325272      -0.45963608
H        1.64687094      -1.69143802       0.04278191
H        2.18152830      -0.12076143      -0.49678495
H        1.87662313      -0.40001247       1.22497725
H       -0.77646756       1.70052385       0.84410666
H        0.55811386       1.91505861      -0.35352109
H       -1.97409424       1.14178975      -0.95542487
H       -0.88077166      -2.00311831       0.75256460
13
Frame=14 idx=003291 GeodesicLength=0.7713937530043464 rxn_smarts="[C:1]([C@@:2]1([C:5](=[O:6])[H:13])[C:3]([H:10])([H:11])[N:4]1[H:12])([H:7])([H:8])[H:9]>>[C:1]([C:2]1=[C:5]([H:13])[O:6][N:4]([H:12])[C:3]1([H:10])[H:11])([H:7])([H:8])[H:9]"
C        1.51884343      -0.62284618       0.21050160
C        0.10425927      -0.17132770       0.03004274
C       -0.24855677       1.27637437      -0.00848506
N       -1.02146238       0.78447079      -1.12152460
C       -0.98441252      -1.01125071       0.30322219
O       -1.98839365      -0.80146592      -0.45559358
H        1.64532672      -1.68627432       0.00252782
H        2.18493037      -0.09716959      -0.47636397
H        1.86305672      -0.43689356       1.23137391
H       -0.78065043       1.70681014       0.83612288
H        0.55348906       1.92772991      -0.35963547
H       -1.96322125       1.12863347      -0.95945211
H       -0.88320858      -1.99679071       0.76726366
13
Frame=15 idx=003291 GeodesicLength=0.826999802883179 rxn_smarts="[C:1]([C@@:2]1([C:5](=[O:6])[H:13])[C:3]([H:10])([H:11])[N:4]1[H:12])([H:7])([H:8])[H:9]>>[C:1]([C:2]1=[C:5]([H:13])[O:6][N:4]([H:12])[C:3]1([H:10])[H:11])([H:7])([H:8])[H:9]"
C        1.51591592      -0.62424566       0.20635032
C        0.10234318      -0.16631238       0.02914482
C       -0.24374792       1.28084240      -0.00947044
N       -1.01284534       0.76357052      -1.11922906
C       -0.98509039      -1.00402444       0.31995256
O       -1.98389186      -0.79982904      -0.45162749
H        1.64377306      -1.67988987      -0.03749586
H        2.18823799      -0.07435522      -0.45467467
H        1.84942999      -0.47436680       1.23657794
H       -0.78465530       1.71313577       0.82790745
H        0.54855641       1.94026801      -0.36627228
H       -1.95248435       1.11553805      -0.96311726
H       -0.88554140      -1.99033134       0.78195398
13
Frame=16 idx=003291 GeodesicLength=0.8826503939635058 rxn_smarts="[C:1]([C@@:2]1([C:5](=[O:6])[H:13])[C:3]([H:10])([H:11])[N:4]1[H:12])([H:7])([H:8])[H:9]>>[C:1]([C:2]1=[C:5]([H:13])[O:6][N:4]([H:12])[C:3]1([H:10])[H:11])([H:7])([H:8])[H:9]"
C        1.51303893      -0.62565288       0.20232803
C        0.10049700      -0.16130090       0.02853555
C       -0.23893523       1.28526273      -0.01059527
N       -1.00438284       0.74300245      -1.11661107
C       -0.98556260      -0.99686211       0.33624271
O       -1.97926164      -0.79833233      -0.44776469
H        1.64223728      -1.67230949      -0.07709144
H        2.19139667      -0.05243904      -0.43183924
H        1.83578348      -0.51224897       1.24053014
H       -0.78847841       1.71946698       0.81949914
H        0.54332331       1.95266342      -0.37338797
H       -1.94187924       1.10253105      -0.96640937
H       -0.88777672      -1.98378094       0.79656349
