11
Frame=0 idx=000091 GeodesicLength=0.0 rxn_smarts="[N:1]([c:2]1[c:3]([H:9])[n:4]([H:10])[c:5]([H:11])[n:6]1)([H:7])[H:8]>>[N:1]([C:2](/[C:3](=[N:4]/[H:10])[H:9])=[N+:6]=[C-:5][H:11])([H:7])[H:8]"
N        1.91904827      -0.05394985      -0.15721328
C        0.52657063      -0.13940521      -0.01347408
C       -0.34893379       0.96933251      -0.35244107
N       -1.60494937       0.82842093      -0.18359171
C       -1.26342352      -1.66148248       0.20316275
N       -0.11224796      -1.21109042       0.29418606
H        2.36121403      -0.95942434      -0.12398874
H        2.35645131       0.56671435       0.50840557
H        0.12083213       1.85869067      -0.77603055
H       -2.13128328       1.62433153      -0.52880036
H       -1.82327848      -1.82213773       1.12978542
11
Frame=1 idx=000091 GeodesicLength=0.05203195883947401 rxn_smarts="[N:1]([c:2]1[c:3]([H:9])[n:4]([H:10])[c:5]([H:11])[n:6]1)([H:7])[H:8]>>[N:1]([C:2](/[C:3](=[N:4]/[H:10])[H:9])=[N+:6]=[C-:5][H:11])([H:7])[H:8]"
N        1.92140450      -0.05805438      -0.16120989
C        0.53054294      -0.13384478      -0.00043260
C       -0.34232204       0.97737835      -0.32949757
N       -1.60227417       0.81041526      -0.19249489
C       -1.27292358      -1.63229582       0.19845303
N       -0.11026610      -1.20926187       0.29971969
H        2.35942970      -0.96514464      -0.11906157
H        2.36906525       0.57117709       0.48923404
H        0.11873932       1.86025273      -0.77460775
H       -2.13921567       1.60233547      -0.52928245
H       -1.83218014      -1.82295743       1.11917995
11
Frame=2 idx=000091 GeodesicLength=0.10405479930537107 rxn_smarts="[N:1]([c:2]1[c:3]([H:9])[n:4]([H:10])[c:5]([H:11])[n:6]1)([H:7])[H:8]>>[N:1]([C:2](/[C:3](=[N:4]/[H:10])[H:9])=[N+:6]=[C-:5][H:11])([H:7])[H:8]"
N        1.92357328      -0.06213306      -0.16447727
C        0.53432416      -0.12886816       0.01095276
C       -0.33609643       0.98369466      -0.31161183
N       -1.59858850       0.79373486      -0.19957373
C       -1.28173471      -1.60401615       0.19412912
N       -0.10847719      -1.20779180       0.30425609
H        2.35810517      -0.97030805      -0.11140067
H        2.37982079       0.57655475       0.47045563
H        0.11682468       1.86094451      -0.77491301
H       -2.14664276       1.58206576      -0.52551975
H       -1.84110849      -1.82387733       1.10770266
11
Frame=3 idx=000091 GeodesicLength=0.15606345279054892 rxn_smarts="[N:1]([c:2]1[c:3]([H:9])[n:4]([H:10])[c:5]([H:11])[n:6]1)([H:7])[H:8]>>[N:1]([C:2](/[C:3](=[N:4]/[H:10])[H:9])=[N+:6]=[C-:5][H:11])([H:7])[H:8]"
N        1.92568748      -0.06622511      -0.16712250
C        0.53798239      -0.12430260       0.02105534
C       -0.33010421       0.98876786      -0.29770294
N       -1.59425834       0.77829218      -0.20487182
C       -1.28994814      -1.57653011       0.19013708
N       -0.10686971      -1.20651169       0.30809441
H        2.35722644      -0.97500016      -0.10158597
H        2.38923689       0.58250271       0.45202136
H        0.11504586       1.86098337      -0.77690922
H       -2.15379353       1.56305187      -0.51845761
H       -1.85020515      -1.82502833       1.09534187
11
Frame=4 idx=000091 GeodesicLength=0.20807831505297497 rxn_smarts="[N:1]([c:2]1[c:3]([H:9])[n:4]([H:10])[c:5]([H:11])[n:6]1)([H:7])[H:8]>>[N:1]([C:2](/[C:3](=[N:4]/[H:10])[H:9])=[N+:6]=[C-:5][H:11])([H:7])[H:8]"
N        1.92756245      -0.07028397      -0.16950195
C        0.54137842      -0.12024490       0.02954329
C       -0.32432516       0.99308737      -0.28604629
N       -1.58966798       0.76371563      -0.20939977
C       -1.29768713      -1.54959847       0.18737252
N       -0.10542762      -1.20568419       0.31046604
H        2.35639732      -0.97931603      -0.09146818
H        2.39734957       0.58798654       0.43450234
H        0.11357043       1.86173778      -0.77745069
H       -2.16075388       1.54409177      -0.51166193
H       -1.85839642      -1.82549154       1.08364463
11
Frame=5 idx=000091 GeodesicLength=0.260056338818027 rxn_smarts="[N:1]([c:2]1[c:3]([H:9])[n:4]([H:10])[c:5]([H:11])[n:6]1)([H:7])[H:8]>>[N:1]([C:2](/[C:3](=[N:4]/[H:10])[H:9])=[N+:6]=[C-:5][H:11])([H:7])[H:8]"
N        1.92945568      -0.07433573      -0.17144350
C        0.54468914      -0.11644471       0.03709977
C       -0.31865742       0.99677593      -0.27665637
N       -1.58482186       0.75005819      -0.21268283
C       -1.30489843      -1.52337717       0.18501444
N       -0.10410759      -1.20493651       0.31240109
H        2.35588723      -0.98324477      -0.08016221
H        2.40464875       0.59359463       0.41737982
H        0.11214082       1.86210841      -0.77927609
H       -2.16755303       1.52589139      -0.50293158
H       -1.86678330      -1.82608965       1.07125746
11
Frame=6 idx=000091 GeodesicLength=0.31203818063520705 rxn_smarts="[N:1]([c:2]1[c:3]([H:9])[n:4]([H:10])[c:5]([H:11])[n:6]1)([H:7])[H:8]>>[N:1]([C:2](/[C:3](=[N:4]/[H:10])[H:9])=[N+:6]=[C-:5][H:11])([H:7])[H:8]"
N        1.93131249      -0.07844334      -0.17305135
C        0.54790911      -0.11278510       0.04411150
C       -0.31302607       1.00001787      -0.26901682
N       -1.57985921       0.73724809      -0.21484142
C       -1.31151653      -1.49781832       0.18298740
N       -0.10290596      -1.20416088       0.31425878
H        2.35554128      -0.98683990      -0.06765952
H        2.41138664       0.59933533       0.40021167
H        0.11078187       1.86206609      -0.78238647
H       -2.17420304       1.50837688      -0.49250423
H       -1.87542058      -1.82699672       1.05789048
11
Frame=7 idx=000091 GeodesicLength=0.36397722681381034 rxn_smarts="[N:1]([c:2]1[c:3]([H:9])[n:4]([H:10])[c:5]([H:11])[n:6]1)([H:7])[H:8]>>[N:1]([C:2](/[C:3](=[N:4]/[H:10])[H:9])=[N+:6]=[C-:5][H:11])([H:7])[H:8]"
N        1.93306332      -0.08269238      -0.17448036
C        0.55110556      -0.10908444       0.05108335
C       -0.30743632       1.00290048      -0.26274290
N       -1.57475296       0.72499103      -0.21654738
C       -1.31730303      -1.47300731       0.18116756
N       -0.10176890      -1.20307951       0.31704252
H        2.35522775      -0.99016292      -0.05402218
H        2.41781545       0.60524748       0.38232036
H        0.10943329       1.86154520      -0.78659454
H       -2.18072672       1.49161051      -0.48018938
H       -1.88465746      -1.82826813       1.04296296
11
Frame=8 idx=000091 GeodesicLength=0.41594435054586043 rxn_smarts="[N:1]([c:2]1[c:3]([H:9])[n:4]([H:10])[c:5]([H:11])[n:6]1)([H:7])[H:8]>>[N:1]([C:2](/[C:3](=[N:4]/[H:10])[H:9])=[N+:6]=[C-:5][H:11])([H:7])[H:8]"
N        1.93468766      -0.08696205      -0.17594400
C        0.55415150      -0.10556771       0.05735731
C       -0.30193447       1.00570060      -0.25686014
N       -1.56970681       0.71356352      -0.21687707
C       -1.32276323      -1.44860738       0.18026588
N       -0.10074368      -1.20211487       0.31928480
H        2.35490287      -0.99322162      -0.04061680
H        2.42379097       0.61062430       0.36463648
H        0.10815307       1.86158778      -0.78975564
H       -2.18697170       1.47440860      -0.46965224
H       -1.89356617      -1.82941116       1.02816143
11
Frame=9 idx=000091 GeodesicLength=0.46789999193546894 rxn_smarts="[N:1]([c:2]1[c:3]([H:9])[n:4]([H:10])[c:5]([H:11])[n:6]1)([H:7])[H:8]>>[N:1]([C:2](/[C:3](=[N:4]/[H:10])[H:9])=[N+:6]=[C-:5][H:11])([H:7])[H:8]"
N        1.93623648      -0.09132153      -0.17736503
C        0.55713379      -0.10208085       0.06332947
C       -0.29649705       1.00830081      -0.25180182
N       -1.56467777       0.70252205      -0.21721651
C       -1.32765542      -1.42485088       0.17987388
N       -0.09977219      -1.20097956       0.32207124
H        2.35460513      -0.99600525      -0.02672009
H        2.42950474       0.61583989       0.34655692
H        0.10695556       1.86173428      -0.79290537
H       -2.19305335       1.45742839      -0.45838404
H       -1.90277991      -1.83058735       1.01256134
11
Frame=10 idx=000091 GeodesicLength=0.5198707623120968 rxn_smarts="[N:1]([c:2]1[c:3]([H:9])[n:4]([H:10])[c:5]([H:11])[n:6]1)([H:7])[H:8]>>[N:1]([C:2](/[C:3](=[N:4]/[H:10])[H:9])=[N+:6]=[C-:5][H:11])([H:7])[H:8]"
N        1.93766139      -0.09582506      -0.17884244
C        0.56007680      -0.09857105       0.06924386
C       -0.29108460       1.01084001      -0.24710405
N       -1.55963869       0.69210700      -0.21650918
C       -1.33202191      -1.40161261       0.17994665
N       -0.09887153      -1.19962211       0.32554080
H        2.35428177      -0.99853106      -0.01238521
H        2.43506572       0.62087180       0.32773924
H        0.10574431       1.86190401      -0.79605934
H       -2.19893625       1.44051999      -0.44746608
H       -1.91227700      -1.83208092       0.99589576
11
Frame=11 idx=000091 GeodesicLength=0.5718860676738887 rxn_smarts="[N:1]([c:2]1[c:3]([H:9])[n:4]([H:10])[c:5]([H:11])[n:6]1)([H:7])[H:8]>>[N:1]([C:2](/[C:3](=[N:4]/[H:10])[H:9])=[N+:6]=[C-:5][H:11])([H:7])[H:8]"
N        1.93900610      -0.10051887      -0.18020392
C        0.56298854      -0.09499347       0.07515929
C       -0.28567478       1.01324140      -0.24319386
N       -1.55461574       0.68215343      -0.21531752
C       -1.33580541      -1.37893961       0.18021267
N       -0.09803200      -1.19794894       0.32993706
H        2.35400369      -1.00072454       0.00300802
H        2.44045492       0.62587755       0.30805066
H        0.10452694       1.86171747      -0.80015420
H       -2.20466471       1.42407996      -0.43516063
H       -1.92218756      -1.83394440       0.97766245
11
Frame=12 idx=000091 GeodesicLength=0.624025988060126 rxn_smarts="[N:1]([c:2]1[c:3]([H:9])[n:4]([H:10])[c:5]([H:11])[n:6]1)([H:7])[H:8]>>[N:1]([C:2](/[C:3](=[N:4]/[H:10])[H:9])=[N+:6]=[C-:5][H:11])([H:7])[H:8]"
N        1.94026656      -0.10544544      -0.18141184
C        0.56588219      -0.09131401       0.08114981
C       -0.28018487       1.01553192      -0.24004381
N       -1.54969634       0.67275369      -0.21339439
C       -1.33910838      -1.35676954       0.18064479
N       -0.09725678      -1.19596173       0.33525863
H        2.35374600      -1.00251284       0.01973824
H        2.44570942       0.63087886       0.28726758
H        0.10338372       1.86100300      -0.80546277
H       -2.21033113       1.40823544      -0.42135678
H       -1.93241040      -1.83639934       0.95761054
11
Frame=13 idx=000091 GeodesicLength=0.6759476890328889 rxn_smarts="[N:1]([c:2]1[c:3]([H:9])[n:4]([H:10])[c:5]([H:11])[n:6]1)([H:7])[H:8]>>[N:1]([C:2](/[C:3](=[N:4]/[H:10])[H:9])=[N+:6]=[C-:5][H:11])([H:7])[H:8]"
N        1.94137743      -0.11058263      -0.18244640
C        0.56873683      -0.08751705       0.08735524
C       -0.27472613       1.01771065      -0.23739962
N       -1.54463439       0.66438326      -0.20915348
C       -1.34192548      -1.33498602       0.18110689
N       -0.09658313      -1.19366042       0.34150873
H        2.35352574      -1.00376964       0.03773179
H        2.45074667       0.63582515       0.26534443
H        0.10183391       1.85931292      -0.81245338
H       -2.21543368       1.39294570      -0.40694109
H       -1.94291776      -1.83966193       0.93534687
11
Frame=14 idx=000091 GeodesicLength=0.7279727969172788 rxn_smarts="[N:1]([c:2]1[c:3]([H:9])[n:4]([H:10])[c:5]([H:11])[n:6]1)([H:7])[H:8]>>[N:1]([C:2](/[C:3](=[N:4]/[H:10])[H:9])=[N+:6]=[C-:5][H:11])([H:7])[H:8]"
N        1.94239663      -0.11598373      -0.18333589
C        0.57156903      -0.08361351       0.09360676
C       -0.26921832       1.01983624      -0.23539239
N       -1.53970541       0.65651388      -0.20411864
C       -1.34431149      -1.31364890       0.18185358
N       -0.09598444      -1.19100121       0.34877753
H        2.35334257      -1.00454328       0.05691836
H        2.45561962       0.64053562       0.24232318
H        0.10027611       1.85718185      -0.82046658
H       -2.22042060       1.37815820      -0.39133722
H       -1.95356370      -1.84343516       0.91117129
11
Frame=15 idx=000091 GeodesicLength=0.7799870654863912 rxn_smarts="[N:1]([c:2]1[c:3]([H:9])[n:4]([H:10])[c:5]([H:11])[n:6]1)([H:7])[H:8]>>[N:1]([C:2](/[C:3](=[N:4]/[H:10])[H:9])=[N+:6]=[C-:5][H:11])([H:7])[H:8]"
N        1.94332919      -0.12161681      -0.18399563
C        0.57436949      -0.07960474       0.09987762
C       -0.26371094       1.02185598      -0.23412221
N       -1.53487430       0.64914798      -0.19836090
C       -1.34627788      -1.29273767       0.18288715
N       -0.09545173      -1.18797940       0.35707807
H        2.35321597      -1.00475004       0.07723757
H        2.46027559       0.64491428       0.21839638
H        0.09859708       1.85444134      -0.82972143
H       -2.22522784       1.36399417      -0.37425689
H       -1.96424464      -1.84766508       0.88498027
11
Frame=16 idx=000091 GeodesicLength=0.8321296659361361 rxn_smarts="[N:1]([c:2]1[c:3]([H:9])[n:4]([H:10])[c:5]([H:11])[n:6]1)([H:7])[H:8]>>[N:1]([C:2](/[C:3](=[N:4]/[H:10])[H:9])=[N+:6]=[C-:5][H:11])([H:7])[H:8]"
N        1.94412831      -0.12742942      -0.18443833
C        0.57711368      -0.07549196       0.10615062
C       -0.25818562       1.02375359      -0.23341174
N       -1.53008447       0.64234213      -0.19140140
C       -1.34789127      -1.27216189       0.18431637
N       -0.09503614      -1.18457022       0.36631633
H        2.35307819      -1.00428805       0.09845791
H        2.46464747       0.64884891       0.19364052
H        0.09676144       1.85100735      -0.84010041
H       -2.22970884       1.35027650      -0.35626999
H       -1.97482275      -1.85228694       0.85674014
