11
Frame=0 idx=001447 GeodesicLength=0.0 rxn_smarts="[O:1]([C@@:2]1([H:8])[C:3]([H:9])([H:10])[N:4]([H:11])[C:5]1=[O:6])[H:7]>>[N:4](=[C:5]=[O:6])[H:11].[O:1]([C:2](=[C:3]([H:9])[H:10])[H:8])[H:7]"
O        0.63313164       1.74518356      -0.52572354
C       -0.03828425       0.88162441       0.30391437
C       -1.18987788       0.24776078      -0.18259842
N       -0.16701357      -1.57932589       0.55254290
C        0.67381932      -0.68542612       0.10873950
O        1.73022203      -0.62764240      -0.46893511
H        1.47874424       1.31256928      -0.73186849
H       -0.00003594       1.12145447       1.36546784
H       -1.97596663      -0.11188695       0.45952642
H       -1.34172331       0.21429410      -1.25620907
H        0.19698438      -2.51860526       0.37514362
11
Frame=1 idx=001447 GeodesicLength=0.09930717704954166 rxn_smarts="[O:1]([C@@:2]1([H:8])[C:3]([H:9])([H:10])[N:4]([H:11])[C:5]1=[O:6])[H:7]>>[N:4](=[C:5]=[O:6])[H:11].[O:1]([C:2](=[C:3]([H:9])[H:10])[H:8])[H:7]"
O        0.62067432       1.74357225      -0.53518039
C       -0.04097717       0.87803584       0.30043623
C       -1.19732166       0.24465477      -0.18012341
N       -0.17397537      -1.58453771       0.49442153
C        0.69531636      -0.70125477       0.09232117
O        1.75906246      -0.64508217      -0.46868700
H        1.48794719       1.34266178      -0.70879598
H        0.00124524       1.12275701       1.36082789
H       -1.98829375      -0.09248538       0.46895887
H       -1.36383960       0.22330309      -1.25193307
H        0.20016200      -2.53162473       0.42775415
11
Frame=2 idx=001447 GeodesicLength=0.19851255038570426 rxn_smarts="[O:1]([C@@:2]1([H:8])[C:3]([H:9])([H:10])[N:4]([H:11])[C:5]1=[O:6])[H:7]>>[N:4](=[C:5]=[O:6])[H:11].[O:1]([C:2](=[C:3]([H:9])[H:10])[H:8])[H:7]"
O        0.60858876       1.74176948      -0.54288716
C       -0.04349034       0.87279086       0.29706084
C       -1.20477835       0.24070456      -0.17817328
N       -0.17838378      -1.59170260       0.42630600
C        0.71787348      -0.71812134       0.07107731
O        1.78961103      -0.66299740      -0.47144615
H        1.49573401       1.37488894      -0.68388953
H        0.00325327       1.11968912       1.35688785
H       -1.99917455      -0.07647532       0.47766343
H       -1.38700998       0.23517255      -1.24772506
H        0.19777645      -2.53571884       0.49512574
11
Frame=3 idx=001447 GeodesicLength=0.29715776613233197 rxn_smarts="[O:1]([C@@:2]1([H:8])[C:3]([H:9])([H:10])[N:4]([H:11])[C:5]1=[O:6])[H:7]>>[N:4](=[C:5]=[O:6])[H:11].[O:1]([C:2](=[C:3]([H:9])[H:10])[H:8])[H:7]"
O        0.59609983       1.73912583      -0.55011909
C       -0.04549601       0.86595358       0.29372009
C       -1.21115133       0.23399973      -0.17588435
N       -0.17683108      -1.59962624       0.35293074
C        0.74340474      -0.73514861       0.04743075
O        1.82359029      -0.68055218      -0.47448515
H        1.50115283       1.40897233      -0.65831585
H        0.00608251       1.11409143       1.35313272
H       -2.00705360      -0.06598215       0.48690830
H       -1.41015960       0.24580988      -1.24249112
H        0.18036142      -2.52664360       0.56717295
11
Frame=4 idx=001447 GeodesicLength=0.39628173278522844 rxn_smarts="[O:1]([C@@:2]1([H:8])[C:3]([H:9])([H:10])[N:4]([H:11])[C:5]1=[O:6])[H:7]>>[N:4](=[C:5]=[O:6])[H:11].[O:1]([C:2](=[C:3]([H:9])[H:10])[H:8])[H:7]"
O        0.58320691       1.73544695      -0.55798931
C       -0.04698645       0.85796721       0.29036452
C       -1.21630555       0.22384608      -0.17254054
N       -0.16869460      -1.60813115       0.27802849
C        0.77238047      -0.75221126       0.02315093
O        1.86206292      -0.69796543      -0.47516898
H        1.50408190       1.44453070      -0.63355912
H        0.00957021       1.10775764       1.34924131
H       -2.01213771      -0.06094628       0.49788092
H       -1.43316427       0.25344575      -1.23544087
H        0.14598618      -2.50374021       0.63603266
11
Frame=5 idx=001447 GeodesicLength=0.49583402187249775 rxn_smarts="[O:1]([C@@:2]1([H:8])[C:3]([H:9])([H:10])[N:4]([H:11])[C:5]1=[O:6])[H:7]>>[N:4](=[C:5]=[O:6])[H:11].[O:1]([C:2](=[C:3]([H:9])[H:10])[H:8])[H:7]"
O        0.56987717       1.73010094      -0.56655816
C       -0.04803164       0.84880543       0.28714965
C       -1.22003971       0.21010428      -0.16788976
N       -0.15416991      -1.61659328       0.20445797
C        0.80444259      -0.76927538      -0.00104662
O        1.90441668      -0.71584438      -0.47236757
H        1.50403459       1.48050878      -0.61048423
H        0.01359989       1.10111060       1.34526244
H       -2.01466431      -0.06032027       0.51077982
H       -1.45573284       0.25753062      -1.22627112
H        0.09626750      -2.46612735       0.69696758
11
Frame=6 idx=001447 GeodesicLength=0.5963345469989341 rxn_smarts="[O:1]([C@@:2]1([H:8])[C:3]([H:9])([H:10])[N:4]([H:11])[C:5]1=[O:6])[H:7]>>[N:4](=[C:5]=[O:6])[H:11].[O:1]([C:2](=[C:3]([H:9])[H:10])[H:8])[H:7]"
O        0.55610036       1.72228615      -0.57922052
C       -0.04869206       0.84066511       0.28368953
C       -1.22233073       0.19360288      -0.16058683
N       -0.13458978      -1.62265271       0.14053940
C        0.83954735      -0.78545101      -0.01875199
O        1.94960654      -0.73452319      -0.46205523
H        1.50096660       1.51662485      -0.59057675
H        0.01757599       1.10061378       1.33981868
H       -2.01484752      -0.06072978       0.52747855
H       -1.47744694       0.25467807      -1.21391595
H        0.03411018      -2.42511413       0.73358110
11
Frame=7 idx=001447 GeodesicLength=0.6976158064610174 rxn_smarts="[O:1]([C@@:2]1([H:8])[C:3]([H:9])([H:10])[N:4]([H:11])[C:5]1=[O:6])[H:7]>>[N:4](=[C:5]=[O:6])[H:11].[O:1]([C:2](=[C:3]([H:9])[H:10])[H:8])[H:7]"
O        0.54271529       1.71261473      -0.59335171
C       -0.04936725       0.83292456       0.28044457
C       -1.22406719       0.17579842      -0.15181733
N       -0.11235381      -1.62676179       0.08515539
C        0.87591193      -0.80164161      -0.03325176
O        1.99543575      -0.75555230      -0.44831108
H        1.49540178       1.55256810      -0.57262592
H        0.02107472       1.10309538       1.33383406
H       -2.01480623      -0.06040495       0.54557280
H       -1.49815139       0.24783395      -1.19980461
H       -0.03179361      -2.38047450       0.75415559
11
Frame=8 idx=001447 GeodesicLength=0.7995785863702253 rxn_smarts="[O:1]([C@@:2]1([H:8])[C:3]([H:9])([H:10])[N:4]([H:11])[C:5]1=[O:6])[H:7]>>[N:4](=[C:5]=[O:6])[H:11].[O:1]([C:2](=[C:3]([H:9])[H:10])[H:8])[H:7]"
O        0.52985468       1.70091901      -0.60988899
C       -0.05007386       0.82629760       0.27727613
C       -1.22551330       0.15764409      -0.14123377
N       -0.08894654      -1.62877828       0.03766027
C        0.91306870      -0.81780512      -0.04291172
O        2.04138972      -0.77906933      -0.42983259
H        1.48731287       1.58861717      -0.55710639
H        0.02409056       1.11018244       1.32693260
H       -2.01457053      -0.05796651       0.56557860
H       -1.51830108       0.23746890      -1.18376723
H       -0.09831122      -2.33750998       0.75729310
11
Frame=9 idx=001447 GeodesicLength=0.9020561144283796 rxn_smarts="[O:1]([C@@:2]1([H:8])[C:3]([H:9])([H:10])[N:4]([H:11])[C:5]1=[O:6])[H:7]>>[N:4](=[C:5]=[O:6])[H:11].[O:1]([C:2](=[C:3]([H:9])[H:10])[H:8])[H:7]"
O        0.51775270       1.68745363      -0.62765392
C       -0.05094068       0.82042797       0.27433308
C       -1.22696811       0.13970454      -0.12936879
N       -0.06526124      -1.62895305      -0.00351554
C        0.95035207      -0.83429516      -0.04949386
O        2.08676744      -0.80561346      -0.40820997
H        1.47670772       1.62494034      -0.54335712
H        0.02655984       1.12023583       1.31944735
H       -2.01468210      -0.05308361       0.58642356
H       -1.53785556       0.22499261      -1.16641231
H       -0.16243208      -2.29580963       0.74780751
11
Frame=10 idx=001447 GeodesicLength=1.0049600484264045 rxn_smarts="[O:1]([C@@:2]1([H:8])[C:3]([H:9])([H:10])[N:4]([H:11])[C:5]1=[O:6])[H:7]>>[N:4](=[C:5]=[O:6])[H:11].[O:1]([C:2](=[C:3]([H:9])[H:10])[H:8])[H:7]"
O        0.50648072       1.67233375      -0.64643597
C       -0.05198426       0.81536614       0.27163186
C       -1.22857042       0.12237938      -0.11625490
N       -0.04178076      -1.62739693      -0.03977694
C        0.98754960      -0.85122827      -0.05323007
O        2.13140885      -0.83539244      -0.38336512
H        1.46344798       1.66174584      -0.53153362
H        0.02851012       1.13305188       1.31136824
H       -2.01513773      -0.04564233       0.60797130
H       -1.55702052       0.21122064      -1.14779142
H       -0.22290358      -2.25643766       0.72741664
11
Frame=11 idx=001447 GeodesicLength=1.1081968235353872 rxn_smarts="[O:1]([C@@:2]1([H:8])[C:3]([H:9])([H:10])[N:4]([H:11])[C:5]1=[O:6])[H:7]>>[N:4](=[C:5]=[O:6])[H:11].[O:1]([C:2](=[C:3]([H:9])[H:10])[H:8])[H:7]"
O        0.49612504       1.65586595      -0.66547092
C       -0.05323900       0.81091293       0.26927887
C       -1.23040742       0.10587482      -0.10225370
N       -0.01880079      -1.62428676      -0.07198491
C        1.02441700      -0.86878935      -0.05527839
O        2.17497296      -0.86877710      -0.35630755
H        1.44739471       1.69933534      -0.52125782
H        0.02994195       1.14764799       1.30293464
H       -2.01609815      -0.03580300       0.62953185
H       -1.57564805       0.19685580      -1.12834077
H       -0.27865826      -2.21883660       0.69914871
11
Frame=12 idx=001447 GeodesicLength=1.2116794187834812 rxn_smarts="[O:1]([C@@:2]1([H:8])[C:3]([H:9])([H:10])[N:4]([H:11])[C:5]1=[O:6])[H:7]>>[N:4](=[C:5]=[O:6])[H:11].[O:1]([C:2](=[C:3]([H:9])[H:10])[H:8])[H:7]"
O        0.48668148       1.63823974      -0.68456104
C       -0.05467304       0.80710663       0.26730171
C       -1.23248838       0.09034722      -0.08737656
N        0.00360518      -1.61964058      -0.10113013
C        1.06095140      -0.88702485      -0.05588190
O        2.21742585      -0.90597565      -0.32682988
H        1.42831611       1.73788776      -0.51280065
H        0.03092887       1.16385870       1.29417028
H       -2.01739963      -0.02383992       0.65107247
H       -1.59383919       0.18238344      -1.10806200
H       -0.32950864      -2.18334248       0.66409770
11
Frame=13 idx=001447 GeodesicLength=1.315340632653566 rxn_smarts="[O:1]([C@@:2]1([H:8])[C:3]([H:9])([H:10])[N:4]([H:11])[C:5]1=[O:6])[H:7]>>[N:4](=[C:5]=[O:6])[H:11].[O:1]([C:2](=[C:3]([H:9])[H:10])[H:8])[H:7]"
O        0.47817096       1.61976479      -0.70322518
C       -0.05626798       0.80386462       0.26577019
C       -1.23478192       0.07585266      -0.07186048
N        0.02542061      -1.61354331      -0.12772194
C        1.09712450      -0.90602358      -0.05582210
O        2.25855900      -0.94733678      -0.29544658
H        1.40595707       1.77769846      -0.50602250
H        0.03150955       1.18110845       1.28525375
H       -2.01901743      -0.01009555       0.67219827
H       -1.61143314       0.16815536      -1.08724709
H       -0.37524122      -2.14944511       0.62412367
11
Frame=14 idx=001447 GeodesicLength=1.419117126275 rxn_smarts="[O:1]([C@@:2]1([H:8])[C:3]([H:9])([H:10])[N:4]([H:11])[C:5]1=[O:6])[H:7]>>[N:4](=[C:5]=[O:6])[H:11].[O:1]([C:2](=[C:3]([H:9])[H:10])[H:8])[H:7]"
O        0.47059612       1.60071847      -0.72116926
C       -0.05797570       0.80117705       0.26472609
C       -1.23721361       0.06241193      -0.05583623
N        0.04671867      -1.60603050      -0.15223569
C        1.13299844      -0.92583430      -0.05563550
O        2.29821362      -0.99319564      -0.26226213
H        1.37998716       1.81902260      -0.50097294
H        0.03175345       1.19908234       1.27630327
H       -2.02083287       0.00507187       0.69273167
H       -1.62833282       0.15442575      -1.06605174
H       -0.41591246      -2.11684956       0.58040246
11
Frame=15 idx=001447 GeodesicLength=1.5229518737039738 rxn_smarts="[O:1]([C@@:2]1([H:8])[C:3]([H:9])([H:10])[N:4]([H:11])[C:5]1=[O:6])[H:7]>>[N:4](=[C:5]=[O:6])[H:11].[O:1]([C:2](=[C:3]([H:9])[H:10])[H:8])[H:7]"
O        0.46398362       1.58144212      -0.73802843
C       -0.05973862       0.79901050       0.26423030
C       -1.23967463       0.05000259      -0.03951709
N        0.06760138      -1.59718296      -0.17486500
C        1.16866894      -0.94651020      -0.05601036
O        2.33612992      -1.04394582      -0.22764206
H        1.35000365       1.86216395      -0.49757087
H        0.03171003       1.21738392       1.26750949
H       -2.02280173       0.02135001       0.71235570
H       -1.64430098       0.14133905      -1.04476240
H       -0.45158159      -2.08505315       0.53430072
11
Frame=16 idx=001447 GeodesicLength=1.6267866902538175 rxn_smarts="[O:1]([C@@:2]1([H:8])[C:3]([H:9])([H:10])[N:4]([H:11])[C:5]1=[O:6])[H:7]>>[N:4](=[C:5]=[O:6])[H:11].[O:1]([C:2](=[C:3]([H:9])[H:10])[H:8])[H:7]"
O        0.45838306       1.56227607      -0.75349212
C       -0.06147364       0.79734810       0.26434242
C       -1.24202735       0.03858314      -0.02309482
N        0.08821299      -1.58708421      -0.19570092
C        1.20429409      -0.96810020      -0.05758280
O        2.37199627      -1.09997144      -0.19186216
H        1.31550195       1.90740568      -0.49578094
H        0.03144183       1.23570072       1.25906655
H       -2.02487989       0.03849128       0.73078484
H       -1.65907458       0.12897280      -1.02365268
H       -0.48237472      -2.05362194       0.48697262
