17
Frame=0 idx=007597 GeodesicLength=0.0 rxn_smarts="[C:1]([C@@:2]1([C:3]([C:4]([O:5][H:15])([H:13])[H:14])([H:11])[H:12])[C:6]([H:16])([H:17])[O:7]1)([H:8])([H:9])[H:10]>>[C:1]([C@@:2]12[C:3]([H:11])([H:12])[C:4]([H:13])([H:14])[C@:6]1([H:16])[O:7]2)([H:8])([H:9])[H:10].[O:5]([H:15])[H:17]"
C       -1.58959883      -1.63677090      -0.10119231
C       -0.56910534      -0.59304154       0.23973740
C        0.81410849      -0.68406503      -0.35440397
C        1.57152066       0.47440705       0.15976714
O        0.93234798       2.24638259      -0.89182247
C       -0.82213699       0.80472761       0.59385922
O       -0.51707033      -0.18033242       1.59365030
H       -1.74635865      -1.68446111      -1.18130088
H       -1.27369836      -2.62619821       0.24007909
H       -2.54002485      -1.39715228       0.37493451
H        0.77455526      -0.67316162      -1.44631917
H        1.35795016      -1.59739308      -0.06273207
H        2.52422869       0.70883224      -0.29548950
H        1.44575374       0.71922642       1.20402822
H        1.30173402       3.04204752      -0.49308246
H       -1.84997968       1.16539239       0.68667074
H        0.18577398       1.91156037      -0.26638371
17
Frame=1 idx=007597 GeodesicLength=0.13532821354841718 rxn_smarts="[C:1]([C@@:2]1([C:3]([C:4]([O:5][H:15])([H:13])[H:14])([H:11])[H:12])[C:6]([H:16])([H:17])[O:7]1)([H:8])([H:9])[H:10]>>[C:1]([C@@:2]12[C:3]([H:11])([H:12])[C:4]([H:13])([H:14])[C@:6]1([H:16])[O:7]2)([H:8])([H:9])[H:10].[O:5]([H:15])[H:17]"
C       -1.58524052      -1.66623236      -0.05684929
C       -0.57769257      -0.59199657       0.22399711
C        0.79744171      -0.68678680      -0.38461717
C        1.55900997       0.47877211       0.10865006
O        1.00758635       2.32426788      -0.80866348
C       -0.84094710       0.81796229       0.51036830
O       -0.53768683      -0.11353791       1.55710907
H       -1.74744739      -1.77351609      -1.13176310
H       -1.25284169      -2.63100746       0.33578496
H       -2.53761207      -1.41575884       0.40997031
H        0.75074094      -0.67862335      -1.47631510
H        1.34262450      -1.59914383      -0.09432015
H        2.52692367       0.66565332      -0.33963805
H        1.48842659       0.70014322       1.16362660
H        1.31822806       3.05866284      -0.26638107
H       -1.87306524       1.17373559       0.57004716
H        0.16155160       1.93740596      -0.32100614
17
Frame=2 idx=007597 GeodesicLength=0.2687624790992986 rxn_smarts="[C:1]([C@@:2]1([C:3]([C:4]([O:5][H:15])([H:13])[H:14])([H:11])[H:12])[C:6]([H:16])([H:17])[O:7]1)([H:8])([H:9])[H:10]>>[C:1]([C@@:2]12[C:3]([H:11])([H:12])[C:4]([H:13])([H:14])[C@:6]1([H:16])[O:7]2)([H:8])([H:9])[H:10].[O:5]([H:15])[H:17]"
C       -1.57908983      -1.68872498      -0.01098606
C       -0.58417794      -0.58842042       0.20720808
C        0.78313079      -0.69082138      -0.41428607
C        1.54901795       0.48234269       0.05657917
O        1.07492362       2.39521085      -0.70434240
C       -0.85631832       0.83141637       0.42042126
O       -0.55828235      -0.04152292       1.51465382
H       -1.74541851      -1.85659768      -1.07738570
H       -1.23137243      -2.62524044       0.43323459
H       -2.53343275      -1.42586153       0.44480198
H        0.73035199      -0.68870633      -1.50576257
H        1.32813373      -1.60201840      -0.12262077
H        2.52424714       0.63041518      -0.39329035
H        1.53714854       0.67152345       1.12070907
H        1.30425133       3.05115367      -0.03530183
H       -1.89189420       1.18108652       0.44459233
H        0.14878125       1.96476533      -0.37822456
17
Frame=3 idx=007597 GeodesicLength=0.4026594835324866 rxn_smarts="[C:1]([C@@:2]1([C:3]([C:4]([O:5][H:15])([H:13])[H:14])([H:11])[H:12])[C:6]([H:16])([H:17])[O:7]1)([H:8])([H:9])[H:10]>>[C:1]([C@@:2]12[C:3]([H:11])([H:12])[C:4]([H:13])([H:14])[C@:6]1([H:16])[O:7]2)([H:8])([H:9])[H:10].[O:5]([H:15])[H:17]"
C       -1.57130250      -1.70522572       0.03598934
C       -0.58938879      -0.58243259       0.18907925
C        0.77089777      -0.69513484      -0.44340018
C        1.54033349       0.48662164       0.00457119
O        1.12980044       2.45575092      -0.58244907
C       -0.86962223       0.84431361       0.32507999
O       -0.57994536       0.03402518       1.46602640
H       -1.73954373      -1.93558211      -1.01826535
H       -1.20924185      -2.60949461       0.53252524
H       -2.52830810      -1.42927297       0.47837229
H        0.71330749      -0.70195458      -1.53461566
H        1.31516309      -1.60481110      -0.14805125
H        2.51587273       0.60572371      -0.45619402
H        1.59012507       0.63570995       1.07485897
H        1.27369531       3.01615440       0.18984458
H       -1.90810898       1.18581386       0.31156141
H        0.14626614       1.99979526      -0.42493312
17
Frame=4 idx=007597 GeodesicLength=0.53807240113847 rxn_smarts="[C:1]([C@@:2]1([C:3]([C:4]([O:5][H:15])([H:13])[H:14])([H:11])[H:12])[C:6]([H:16])([H:17])[O:7]1)([H:8])([H:9])[H:10]>>[C:1]([C@@:2]12[C:3]([H:11])([H:12])[C:4]([H:13])([H:14])[C@:6]1([H:16])[O:7]2)([H:8])([H:9])[H:10].[O:5]([H:15])[H:17]"
C       -1.56234726      -1.71533172       0.08309184
C       -0.59332748      -0.57430584       0.17007608
C        0.76108097      -0.69964897      -0.47083395
C        1.53268517       0.49211377      -0.04624931
O        1.17223776       2.50271088      -0.44743681
C       -0.88032244       0.85582612       0.22707275
O       -0.60234930       0.11058348       1.41233550
H       -1.73092903      -2.00787219      -0.95547788
H       -1.18682025      -2.58408413       0.63059130
H       -2.52248132      -1.42612903       0.51028143
H        0.70020329      -0.71852328      -1.56171966
H        1.30422339      -1.60720180      -0.16912875
H        2.50206306       0.59201681      -0.52721231
H        1.64667553       0.59555472       1.02563939
H        1.22886607       2.95616404       0.40288049
H       -1.92083508       1.18727866       0.17410374
H        0.15137690       2.04084849      -0.45801385
17
Frame=5 idx=007597 GeodesicLength=0.6747067426102262 rxn_smarts="[C:1]([C@@:2]1([C:3]([C:4]([O:5][H:15])([H:13])[H:14])([H:11])[H:12])[C:6]([H:16])([H:17])[O:7]1)([H:8])([H:9])[H:10]>>[C:1]([C@@:2]12[C:3]([H:11])([H:12])[C:4]([H:13])([H:14])[C@:6]1([H:16])[O:7]2)([H:8])([H:9])[H:10].[O:5]([H:15])[H:17]"
C       -1.55212027      -1.71937003       0.12886575
C       -0.59643487      -0.56439436       0.15059318
C        0.75330254      -0.70362670      -0.49563408
C        1.52446411       0.49961488      -0.09471308
O        1.20191119       2.53334620      -0.30690579
C       -0.88824260       0.86523340       0.12990889
O       -0.62606109       0.18481677       1.35543780
H       -1.71857345      -2.07311656      -0.89070895
H       -1.16485509      -2.54963136       0.72564162
H       -2.51605936      -1.41766726       0.53846585
H        0.69115203      -0.73718704      -1.58606633
H        1.29548561      -1.60773703      -0.18486962
H        2.48208218       0.58897809      -0.60306713
H        1.70440294       0.55529805       0.97296963
H        1.18082982       2.87268907       0.59687261
H       -1.92944780       1.18464101       0.03611219
H        0.15816412       2.08811287      -0.47290254
17
Frame=6 idx=007597 GeodesicLength=0.8129747057180337 rxn_smarts="[C:1]([C@@:2]1([C:3]([C:4]([O:5][H:15])([H:13])[H:14])([H:11])[H:12])[C:6]([H:16])([H:17])[O:7]1)([H:8])([H:9])[H:10]>>[C:1]([C@@:2]12[C:3]([H:11])([H:12])[C:4]([H:13])([H:14])[C@:6]1([H:16])[O:7]2)([H:8])([H:9])[H:10].[O:5]([H:15])[H:17]"
C       -1.54202855      -1.71750207       0.17158361
C       -0.59847193      -0.55336481       0.13162402
C        0.74827370      -0.70743989      -0.51633901
C        1.51685645       0.50876323      -0.13955134
O        1.22128136       2.54794523      -0.16639085
C       -0.89224764       0.87277402       0.03819278
O       -0.64984191       0.25348788       1.29852053
H       -1.70503048      -2.12806687      -0.82688702
H       -1.14479910      -2.50864466       0.81327082
H       -2.50996482      -1.40425754       0.56273962
H        0.68668358      -0.75803563      -1.60612243
H        1.28936305      -1.60723040      -0.19410610
H        2.45762297       0.59507999      -0.68114362
H        1.76444529       0.51807896       0.91730382
H        1.12524860       2.77309116       0.76792357
H       -1.93266194       1.17944475      -0.09584996
H        0.16527135       2.13587665      -0.47476845
17
Frame=7 idx=007597 GeodesicLength=0.9531112568597313 rxn_smarts="[C:1]([C@@:2]1([C:3]([C:4]([O:5][H:15])([H:13])[H:14])([H:11])[H:12])[C:6]([H:16])([H:17])[O:7]1)([H:8])([H:9])[H:10]>>[C:1]([C@@:2]12[C:3]([H:11])([H:12])[C:4]([H:13])([H:14])[C@:6]1([H:16])[O:7]2)([H:8])([H:9])[H:10].[O:5]([H:15])[H:17]"
C       -1.53235132      -1.71120626       0.21077736
C       -0.59996377      -0.54169612       0.11345430
C        0.74550289      -0.71083082      -0.53268837
C        1.50926373       0.51970579      -0.18077624
O        1.23228401       2.54810943      -0.02949242
C       -0.89279907       0.87886415      -0.04666527
O       -0.67439055       0.31571937       1.24310607
H       -1.68999745      -2.17472806      -0.76496983
H       -1.12740243      -2.46285758       0.89383472
H       -2.50482715      -1.38766946       0.58194787
H        0.68621229      -0.78039250      -1.62155075
H        1.28571729      -1.60513970      -0.19672373
H        2.42847245       0.60868683      -0.75980314
H        1.82618673       0.48623458       0.85834016
H        1.06920082       2.66128321       0.91598901
H       -1.93087706       1.17218486      -0.22094904
H        0.16976857       2.18373227      -0.46383070
17
Frame=8 idx=007597 GeodesicLength=1.0948106804180653 rxn_smarts="[C:1]([C@@:2]1([C:3]([C:4]([O:5][H:15])([H:13])[H:14])([H:11])[H:12])[C:6]([H:16])([H:17])[O:7]1)([H:8])([H:9])[H:10]>>[C:1]([C@@:2]12[C:3]([H:11])([H:12])[C:4]([H:13])([H:14])[C@:6]1([H:16])[O:7]2)([H:8])([H:9])[H:10].[O:5]([H:15])[H:17]"
C       -1.52344496      -1.70150577       0.24620676
C       -0.60109799      -0.52977370       0.09643906
C        0.74473164      -0.71371400      -0.54441335
C        1.50164485       0.53221642      -0.21845104
O        1.23713888       2.53556768       0.10181958
C       -0.89021340       0.88389892      -0.12390218
O       -0.69984759       0.37128351       1.19035563
H       -1.67403800      -2.21371797      -0.70586082
H       -1.11303879      -2.41399530       0.96699989
H       -2.50089167      -1.36916039       0.59611604
H        0.68928436      -0.80387635      -1.63198877
H        1.28431508      -1.60128134      -0.19261058
H        2.39460227       0.62811516      -0.83799513
H        1.88956291       0.46102756       0.79581642
H        1.01477108       2.54138452       1.04218418
H       -1.92429867       1.16346822      -0.33838217
H        0.17082000       2.23006281      -0.44233352
17
Frame=9 idx=007597 GeodesicLength=1.2379072892720142 rxn_smarts="[C:1]([C@@:2]1([C:3]([C:4]([O:5][H:15])([H:13])[H:14])([H:11])[H:12])[C:6]([H:16])([H:17])[O:7]1)([H:8])([H:9])[H:10]>>[C:1]([C@@:2]12[C:3]([H:11])([H:12])[C:4]([H:13])([H:14])[C@:6]1([H:16])[O:7]2)([H:8])([H:9])[H:10].[O:5]([H:15])[H:17]"
C       -1.51547286      -1.68933108       0.27807329
C       -0.60207864      -0.51780233       0.08062132
C        0.74567277      -0.71600463      -0.55161768
C        1.49395026       0.54610750      -0.25304968
O        1.23782668       2.51195472       0.22710201
C       -0.88496949       0.88829569      -0.19387717
O       -0.72644791       0.42079075       1.14052513
H       -1.65735671      -2.24635097      -0.64968054
H       -1.10185937      -2.36315511       1.03345549
H       -2.49829794      -1.34974283       0.60544023
H        0.69544819      -0.82828672      -1.63743275
H        1.28492256      -1.59541476      -0.18190287
H        2.35588226       0.65191668      -0.91525371
H        1.95422518       0.44309756       0.72914612
H        0.96372792       2.41599338       1.14894593
H       -1.91330293       1.15378482      -0.44872635
H        0.16813003       2.27414732      -0.41176879
17
Frame=10 idx=007597 GeodesicLength=1.38208241322694 rxn_smarts="[C:1]([C@@:2]1([C:3]([C:4]([O:5][H:15])([H:13])[H:14])([H:11])[H:12])[C:6]([H:16])([H:17])[O:7]1)([H:8])([H:9])[H:10]>>[C:1]([C@@:2]12[C:3]([H:11])([H:12])[C:4]([H:13])([H:14])[C@:6]1([H:16])[O:7]2)([H:8])([H:9])[H:10].[O:5]([H:15])[H:17]"
C       -1.50850510      -1.67537659       0.30664292
C       -0.60305729      -0.50587488       0.06593392
C        0.74811449      -0.71761995      -0.55445941
C        1.48615120       0.56124290      -0.28514639
O        1.23581007       2.47841300       0.34635405
C       -0.87754710       0.89237153      -0.25729963
O       -0.75423128       0.46509700       1.09345574
H       -1.64019605      -2.27369906      -0.59637728
H       -1.09384095      -2.31112530       1.09385715
H       -2.49705145      -1.33013975       0.61024699
H        0.70445103      -0.85357696      -1.63792071
H        1.28739644      -1.58718100      -0.16460062
H        2.31230979       0.67871911      -0.99121855
H        2.01949079       0.43287843       0.65775899
H        0.91746973       2.28680071       1.23877120
H       -1.89828982       1.14352442      -0.55270433
H        0.16152551       2.31554637      -0.37329405
17
Frame=11 idx=007597 GeodesicLength=1.5272724700256035 rxn_smarts="[C:1]([C@@:2]1([C:3]([C:4]([O:5][H:15])([H:13])[H:14])([H:11])[H:12])[C:6]([H:16])([H:17])[O:7]1)([H:8])([H:9])[H:10]>>[C:1]([C@@:2]12[C:3]([H:11])([H:12])[C:4]([H:13])([H:14])[C@:6]1([H:16])[O:7]2)([H:8])([H:9])[H:10].[O:5]([H:15])[H:17]"
C       -1.50249923      -1.66003526       0.33233392
C       -0.60408983      -0.49396261       0.05216363
C        0.75189709      -0.71841695      -0.55328716
C        1.47831497       0.57749187      -0.31537079
O        1.23222522       2.43554463       0.46015430
C       -0.86829778       0.89642194      -0.31504362
O       -0.78301344       0.50512550       1.04870166
H       -1.62269865      -2.29663178      -0.54556905
H       -1.08877327      -2.25819320       1.14902496
H       -2.49699400      -1.31070587       0.61107701
H        0.71606698      -0.87958511      -1.63366352
H        1.29160412      -1.57617314      -0.14097498
H        2.26408366       0.70730693      -1.06559651
H        2.08430213       0.43056666       0.58125799
H        0.87603062       2.15444022       1.31387877
H       -1.87956030       1.13299871      -0.65110116
H        0.15140171       2.35380744      -0.32798545
17
Frame=12 idx=007597 GeodesicLength=1.6734766914036108 rxn_smarts="[C:1]([C@@:2]1([C:3]([C:4]([O:5][H:15])([H:13])[H:14])([H:11])[H:12])[C:6]([H:16])([H:17])[O:7]1)([H:8])([H:9])[H:10]>>[C:1]([C@@:2]12[C:3]([H:11])([H:12])[C:4]([H:13])([H:14])[C@:6]1([H:16])[O:7]2)([H:8])([H:9])[H:10].[O:5]([H:15])[H:17]"
C       -1.49728011      -1.64355792       0.35559881
C       -0.60521302      -0.48198903       0.03899501
C        0.75683792      -0.71818473      -0.54865996
C        1.47051974       0.59472951      -0.34426320
O        1.22793537       2.38347456       0.56894065
C       -0.85753432       0.90072893      -0.36786761
O       -0.81234942       0.54166182       1.00580072
H       -1.60498460      -2.31581343      -0.49676180
H       -1.08617830      -2.20447699       1.19965624
H       -2.49779641      -1.29165454       0.60867337
H        0.73004835      -0.90586586      -1.62510792
H        1.29738653      -1.56195172      -0.11168414
H        2.21197510       0.73626560      -1.13773047
H        2.14697872       0.43612950       0.49993868
H        0.83874708       2.01939268       1.37575328
H       -1.85745338       1.12257773      -0.74434920
H        0.13836076       2.38853388      -0.27693245
17
Frame=13 idx=007597 GeodesicLength=1.8208104198315351 rxn_smarts="[C:1]([C@@:2]1([C:3]([C:4]([O:5][H:15])([H:13])[H:14])([H:11])[H:12])[C:6]([H:16])([H:17])[O:7]1)([H:8])([H:9])[H:10]>>[C:1]([C@@:2]12[C:3]([H:11])([H:12])[C:4]([H:13])([H:14])[C@:6]1([H:16])[O:7]2)([H:8])([H:9])[H:10].[O:5]([H:15])[H:17]"
C       -1.49260215      -1.62610569       0.37690310
C       -0.60643064      -0.46990973       0.02606990
C        0.76272562      -0.71670288      -0.54135209
C        1.46283724       0.61282563      -0.37219389
O        1.22351980       2.32216354       0.67284176
C       -0.84557699       0.90552305      -0.41634553
O       -0.84151671       0.57529985       0.96441954
H       -1.58716341      -2.33174300      -0.44941786
H       -1.08540152      -2.14999660       1.24633927
H       -2.49904497      -1.27308055       0.60392297
H        0.74606268      -0.93169714      -1.61297980
H        1.30454040      -1.54419217      -0.07787059
H        2.15736401       0.76413678      -1.20669154
H        2.20548768       0.44925338       0.41504365
H        0.80451694       1.88225479       1.42522976
H       -1.83244558       1.11259024      -0.83250816
H        0.12312760       2.41938049      -0.22141051
17
Frame=14 idx=007597 GeodesicLength=1.9694205575701467 rxn_smarts="[C:1]([C@@:2]1([C:3]([C:4]([O:5][H:15])([H:13])[H:14])([H:11])[H:12])[C:6]([H:16])([H:17])[O:7]1)([H:8])([H:9])[H:10]>>[C:1]([C@@:2]12[C:3]([H:11])([H:12])[C:4]([H:13])([H:14])[C@:6]1([H:16])[O:7]2)([H:8])([H:9])[H:10].[O:5]([H:15])[H:17]"
C       -1.48816846      -1.60784040       0.39671034
C       -0.60773976      -0.45777329       0.01301395
C        0.76929028      -0.71382321      -0.53235527
C        1.45530043       0.63159677      -0.39923252
O        1.21932696       2.25170234       0.77150894
C       -0.83277449       0.91094489      -0.46088129
O       -0.86955602       0.60641199       0.92441957
H       -1.56941811      -2.34478652      -0.40304162
H       -1.08559713      -2.09486208       1.28949437
H       -2.50025503      -1.25503592       0.59791772
H        0.76366211      -0.95610026      -1.59833825
H        1.31275841      -1.52288343      -0.04123693
H        2.10221134       0.78952249      -1.27130371
H        2.25777309       0.46915223       0.32891027
H        0.77197337       1.74425551       1.46268415
H       -1.80520396       1.10335041      -0.91527548
H        0.10641698       2.44616847      -0.16299424
17
Frame=15 idx=007597 GeodesicLength=2.119400317482928 rxn_smarts="[C:1]([C@@:2]1([C:3]([C:4]([O:5][H:15])([H:13])[H:14])([H:11])[H:12])[C:6]([H:16])([H:17])[O:7]1)([H:8])([H:9])[H:10]>>[C:1]([C@@:2]12[C:3]([H:11])([H:12])[C:4]([H:13])([H:14])[C@:6]1([H:16])[O:7]2)([H:8])([H:9])[H:10].[O:5]([H:15])[H:17]"
C       -1.48364695      -1.58898164       0.41550622
C       -0.60914557      -0.44575046      -0.00052212
C        0.77619031      -0.70957695      -0.52287936
C        1.44794283       0.65072623      -0.42503788
O        1.21561762       2.17257386       0.86419918
C       -0.81947856       0.91701964      -0.50179647
O       -0.89544110       0.63518806       0.88584352
H       -1.55200235      -2.35526893      -0.35718212
H       -1.08573214      -2.03935913       1.32943637
H       -2.50091608      -1.23757160       0.59198632
H        0.78222871      -0.97790088      -1.58264937
H        1.32158019      -1.49862507      -0.00413137
H        2.04883822       0.81133825      -1.33025538
H        2.30225640       0.49439872       0.24479118
H        0.73939327       1.60766876       1.48839364
H       -1.77656525       1.09514581      -0.99218038
H        0.08888043       2.46897534      -0.10352200
17
Frame=16 idx=007597 GeodesicLength=2.270927689225477 rxn_smarts="[C:1]([C@@:2]1([C:3]([C:4]([O:5][H:15])([H:13])[H:14])([H:11])[H:12])[C:6]([H:16])([H:17])[O:7]1)([H:8])([H:9])[H:10]>>[C:1]([C@@:2]12[C:3]([H:11])([H:12])[C:4]([H:13])([H:14])[C@:6]1([H:16])[O:7]2)([H:8])([H:9])[H:10].[O:5]([H:15])[H:17]"
C       -1.47886744      -1.56967859       0.43367900
C       -0.61061224      -0.43412466      -0.01477198
C        0.78316707      -0.70420474      -0.51391399
C        1.44074404       0.66991825      -0.44916248
O        1.21219695       2.08574548       0.95022992
C       -0.80597340       0.92357722      -0.53942508
O       -0.91826805       0.66171513       0.84882215
H       -1.53518372      -2.36345265      -0.31149437
H       -1.08514852      -1.98365831       1.36650790
H       -2.50074435      -1.22054661       0.58709403
H        0.80124781      -0.99635933      -1.56722776
H        1.33059405      -1.47232640       0.03148376
H        1.99900241       0.82929657      -1.38277856
H        2.33849340       0.52366751       0.16558200
H        0.70602816       1.47430670       1.50304116
H       -1.74729787       1.08795921      -1.06305622
H        0.07062168       2.48816520      -0.04460946
