14
Frame=0 idx=005510 GeodesicLength=0.0 rxn_smarts="[C:1]([C:2]1([O:3][H:10])[C:4]([H:11])([H:12])[O:5][C:6]1([H:13])[H:14])([H:7])([H:8])[H:9]>>[C:1]1([H:8])([H:9])[C@:2]2([O:3][H:10])[C:4]([H:11])([H:12])[O:5][C@:6]12[H:14].[H:7][H:13]"
C        1.43091013       0.08218852      -0.02120567
C        0.10408594      -0.34280676       0.25312041
O       -0.08544778      -0.73362764       1.58052357
C       -0.83028736      -1.12599382      -0.75051667
O       -1.82669851      -0.09568822      -0.76481914
C       -0.82005370       0.74403677      -0.26434868
H        0.89526103       1.63050818       0.60738332
H        1.79324796       0.09943991      -1.04015778
H        2.16395453       0.05860724       0.77267974
H       -0.86299983      -0.27777470       1.91676503
H       -1.20008669      -2.05847091      -0.32731600
H       -0.38771076      -1.25502331      -1.73732057
H        0.07813088       1.82409625       0.79041069
H       -0.45230584       1.45050854      -1.01519824
14
Frame=1 idx=005510 GeodesicLength=0.09669503238268341 rxn_smarts="[C:1]([C:2]1([O:3][H:10])[C:4]([H:11])([H:12])[O:5][C:6]1([H:13])[H:14])([H:7])([H:8])[H:9]>>[C:1]1([H:8])([H:9])[C@:2]2([O:3][H:10])[C:4]([H:11])([H:12])[O:5][C@:6]12[H:14].[H:7][H:13]"
C        1.41970128       0.09810040      -0.03373501
C        0.10013830      -0.35003661       0.25653490
O       -0.07724461      -0.73779889       1.58544862
C       -0.82685450      -1.13125860      -0.74877566
O       -1.80626731      -0.08605779      -0.79220178
C       -0.80610588       0.74776137      -0.26575220
H        0.90628990       1.64874252       0.61840230
H        1.78983947       0.07346135      -1.04998019
H        2.15759677       0.07302479       0.75613496
H       -0.86694386      -0.30311685       1.92106029
H       -1.22291124      -2.05015381      -0.31846425
H       -0.37652418      -1.28666302      -1.72841577
H        0.06351876       1.82963054       0.80403441
H       -0.45423290       1.47436461      -1.00429062
14
Frame=2 idx=005510 GeodesicLength=0.192974201355666 rxn_smarts="[C:1]([C:2]1([O:3][H:10])[C:4]([H:11])([H:12])[O:5][C:6]1([H:13])[H:14])([H:7])([H:8])[H:9]>>[C:1]1([H:8])([H:9])[C@:2]2([O:3][H:10])[C:4]([H:11])([H:12])[O:5][C@:6]12[H:14].[H:7][H:13]"
C        1.40824493       0.11374417      -0.04645498
C        0.09619654      -0.35711927       0.25967536
O       -0.06884182      -0.74194917       1.59004165
C       -0.82354880      -1.13652425      -0.74711370
O       -1.78484632      -0.07670005      -0.82000518
C       -0.79233496       0.75147126      -0.26708034
H        0.91797613       1.66721694       0.62837105
H        1.78671884       0.04759110      -1.05812012
H        2.15073297       0.08744331       0.73964209
H       -0.87012760      -0.32895483       1.92525391
H       -1.24606961      -2.04093460      -0.31013083
H       -0.36566195      -1.31872663      -1.71877656
H        0.04887634       1.83501485       0.81717843
H       -0.45731469       1.49842715      -0.99248081
14
Frame=3 idx=005510 GeodesicLength=0.28896834697493373 rxn_smarts="[C:1]([C:2]1([O:3][H:10])[C:4]([H:11])([H:12])[O:5][C:6]1([H:13])[H:14])([H:7])([H:8])[H:9]>>[C:1]1([H:8])([H:9])[C@:2]2([O:3][H:10])[C:4]([H:11])([H:12])[O:5][C@:6]12[H:14].[H:7][H:13]"
C        1.39657256       0.12904679      -0.05934300
C        0.09224241      -0.36403655       0.26256225
O       -0.06027095      -0.74609269       1.59430392
C       -0.82037118      -1.14177597      -0.74553310
O       -1.76238243      -0.06762057      -0.84824644
C       -0.77877385       0.75517636      -0.26832936
H        0.93040674       1.68591398       0.63713443
H        1.78385362       0.02197378      -1.06459545
H        2.14337200       0.10182482       0.72325476
H       -0.87254641      -0.35528601       1.92936143
H       -1.26955716      -2.03077214      -0.30234842
H       -0.35513270      -1.35117827      -1.70836591
H        0.03417223       1.84022785       0.82988889
H       -0.46158488       1.52259861      -0.97974400
14
Frame=4 idx=005510 GeodesicLength=0.38483719751637996 rxn_smarts="[C:1]([C:2]1([O:3][H:10])[C:4]([H:11])([H:12])[O:5][C:6]1([H:13])[H:14])([H:7])([H:8])[H:9]>>[C:1]1([H:8])([H:9])[C@:2]2([O:3][H:10])[C:4]([H:11])([H:12])[O:5][C@:6]12[H:14].[H:7][H:13]"
C        1.38471614       0.14394552      -0.07237136
C        0.08825917      -0.37077355       0.26522143
O       -0.05155910      -0.75024647       1.59824204
C       -0.81732302      -1.14699783      -0.74403197
O       -1.73880589      -0.05881953      -0.87694237
C       -0.76545272       0.75888442      -0.26949232
H        0.94368153       1.70483050       0.64452920
H        1.78120462      -0.00325277      -1.06944358
H        2.13552695       0.11613448       0.70702598
H       -0.87420451      -0.38211982       1.93339815
H       -1.29337765      -2.01961440      -0.29515567
H       -0.34494772      -1.38398358      -1.69714106
H        0.01934836       1.84524319       0.84222975
H       -0.46706616       1.54676984      -0.96606822
14
Frame=5 idx=005510 GeodesicLength=0.48065990693678284 rxn_smarts="[C:1]([C:2]1([O:3][H:10])[C:4]([H:11])([H:12])[O:5][C:6]1([H:13])[H:14])([H:7])([H:8])[H:9]>>[C:1]1([H:8])([H:9])[C@:2]2([O:3][H:10])[C:4]([H:11])([H:12])[O:5][C@:6]12[H:14].[H:7][H:13]"
C        1.37270898       0.15839234      -0.08550456
C        0.08422947      -0.37731841       0.26768062
O       -0.04273662      -0.75442870       1.60186395
C       -0.81440597      -1.15217084      -0.74261048
O       -1.71404298      -0.05030307      -0.90609956
C       -0.75239618       0.76260629      -0.27055851
H        0.95788721       1.72397974       0.65039543
H        1.77873733      -0.02796463      -1.07272627
H        2.12721887       0.13033575       0.69101380
H       -0.87511191      -0.40947216       1.93737712
H       -1.31753173      -2.00740410      -0.28859725
H       -0.33513008      -1.41710664      -1.68505671
H        0.00434350       1.85003378       0.85427344
H       -0.47376990       1.57082064      -0.95145103
14
Frame=6 idx=005510 GeodesicLength=0.5766594499208576 rxn_smarts="[C:1]([C:2]1([O:3][H:10])[C:4]([H:11])([H:12])[O:5][C:6]1([H:13])[H:14])([H:7])([H:8])[H:9]>>[C:1]1([H:8])([H:9])[C@:2]2([O:3][H:10])[C:4]([H:11])([H:12])[O:5][C@:6]12[H:14].[H:7][H:13]"
C        1.36058371       0.17234447      -0.09870510
C        0.08013933      -0.38365859       0.26997131
O       -0.03382460      -0.75865760       1.60518686
C       -0.81162643      -1.15727092      -0.74126158
O       -1.68800413      -0.04206505      -0.93570976
C       -0.73962385       0.76635026      -0.27151820
H        0.97314743       1.74338081       0.65452668
H        1.77641026      -0.05206221      -1.07449269
H        2.11846248       0.14440535       0.67527658
H       -0.87527233      -0.43737843       1.94130678
H       -1.34202098      -1.99407509      -0.28273176
H       -0.32570821      -1.45050199      -1.67206778
H       -0.01096977       1.85456154       0.86612290
H       -0.48169292       1.59462745      -0.93590424
14
Frame=7 idx=005510 GeodesicLength=0.6728747383065414 rxn_smarts="[C:1]([C:2]1([O:3][H:10])[C:4]([H:11])([H:12])[O:5][C:6]1([H:13])[H:14])([H:7])([H:8])[H:9]>>[C:1]1([H:8])([H:9])[C@:2]2([O:3][H:10])[C:4]([H:11])([H:12])[O:5][C@:6]12[H:14].[H:7][H:13]"
C        1.34837526       0.18577085      -0.11193113
C        0.07597402      -0.38978839       0.27212653
O       -0.02484853      -0.76295606       1.60822632
C       -0.80899284      -1.16226923      -0.73998305
O       -1.66060845      -0.03410362      -0.96573805
C       -0.72714849       0.77012519      -0.27235338
H        0.98955565       1.76307221       0.65672027
H        1.77419909      -0.07545948      -1.07479018
H        2.10927991       0.15832041       0.65988093
H       -0.87469405      -0.46588163       1.94519038
H       -1.36683347      -1.97956569      -0.27762732
H       -0.31673508      -1.48410860      -1.65813532
H       -0.02669394       1.85879366       0.87787173
H       -0.49082909       1.61805039      -0.91945772
14
Frame=8 idx=005510 GeodesicLength=0.7694236138875735 rxn_smarts="[C:1]([C:2]1([O:3][H:10])[C:4]([H:11])([H:12])[O:5][C:6]1([H:13])[H:14])([H:7])([H:8])[H:9]>>[C:1]1([H:8])([H:9])[C@:2]2([O:3][H:10])[C:4]([H:11])([H:12])[O:5][C@:6]12[H:14].[H:7][H:13]"
C        1.33611857       0.19864869      -0.12512506
C        0.07172379      -0.39570515       0.27418554
O       -0.01583231      -0.76734908       1.61100355
C       -0.80651519      -1.16713041      -0.73877012
O       -1.63176648      -0.02641504      -0.99612365
C       -0.71497417       0.77394024      -0.27304415
H        1.00722740       1.78310237       0.65672588
H        1.77208483      -0.09810603      -1.07368225
H        2.09969236       0.17207395       0.64490088
H       -0.87338945      -0.49504504       1.94902848
H       -1.39195218      -1.96380059      -0.27336259
H       -0.30827224      -1.51785153      -1.64322360
H       -0.04298882       1.86268492       0.88963858
H       -0.50115612       1.64095272      -0.90215149
14
Frame=9 idx=005510 GeodesicLength=0.8667686696285177 rxn_smarts="[C:1]([C:2]1([O:3][H:10])[C:4]([H:11])([H:12])[O:5][C:6]1([H:13])[H:14])([H:7])([H:8])[H:9]>>[C:1]1([H:8])([H:9])[C@:2]2([O:3][H:10])[C:4]([H:11])([H:12])[O:5][C@:6]12[H:14].[H:7][H:13]"
C        1.32384421       0.21097763      -0.13817173
C        0.06737488      -0.40139419       0.27618872
O       -0.00679394      -0.77188241       1.61355523
C       -0.80420097      -1.17177379      -0.73764113
O       -1.60151671      -0.01893816      -1.02669917
C       -0.70307335       0.77783201      -0.27355496
H        1.02637840       1.80340879       0.65394950
H        1.77006066      -0.12018305      -1.07121820
H        2.08965290       0.18586363       0.63047223
H       -0.87142214      -0.52496488       1.95276942
H       -1.41724993      -1.94680910      -0.26999872
H       -0.30035971      -1.55156934      -1.62736676
H       -0.06015537       1.86614949       0.90170362
H       -0.51253894       1.66328338      -0.88398806
14
Frame=10 idx=005510 GeodesicLength=0.964503621311142 rxn_smarts="[C:1]([C:2]1([O:3][H:10])[C:4]([H:11])([H:12])[O:5][C:6]1([H:13])[H:14])([H:7])([H:8])[H:9]>>[C:1]1([H:8])([H:9])[C@:2]2([O:3][H:10])[C:4]([H:11])([H:12])[O:5][C@:6]12[H:14].[H:7][H:13]"
C        1.31159668       0.22273445      -0.15103784
C        0.06292295      -0.40688120       0.27817748
O        0.00224033      -0.77656808       1.61590185
C       -0.80206971      -1.17618574      -0.73658438
O       -1.56974227      -0.01169880      -1.05735396
C       -0.69145077       0.78177976      -0.27387277
H        1.04706237       1.82418209       0.64839557
H        1.76814124      -0.14149893      -1.06741000
H        2.07923859       0.19951996       0.61665164
H       -0.86875976      -0.55571409       1.95644747
H       -1.44275330      -1.92847421      -0.26762777
H       -0.29312861      -1.58516104      -1.61056366
H       -0.07827563       1.86916414       0.91400627
H       -0.52502211       1.68480170      -0.86512988
14
Frame=11 idx=005510 GeodesicLength=1.062546910702665 rxn_smarts="[C:1]([C:2]1([O:3][H:10])[C:4]([H:11])([H:12])[O:5][C:6]1([H:13])[H:14])([H:7])([H:8])[H:9]>>[C:1]1([H:8])([H:9])[C@:2]2([O:3][H:10])[C:4]([H:11])([H:12])[O:5][C@:6]12[H:14].[H:7][H:13]"
C        1.29941697       0.23390970      -0.16363116
C        0.05835929      -0.41218565       0.28019657
O        0.01124242      -0.78144028       1.61807847
C       -0.80014076      -1.18031087      -0.73561015
O       -1.53647787      -0.00467761      -1.08786023
C       -0.68007953       0.78578438      -0.27397115
H        1.06941495       1.84552030       0.63975570
H        1.76634377      -0.16206734      -1.06225869
H        2.06846130       0.21305221       0.60355928
H       -0.86541866      -0.58738188       1.96005421
H       -1.46837084      -1.90879515      -0.26632651
H       -0.28668282      -1.61843528      -1.59289762
H       -0.09754347       1.87167358       0.92662570
H       -0.53852474       1.70535388      -0.84571444
14
Frame=12 idx=005510 GeodesicLength=1.1608815326412545 rxn_smarts="[C:1]([C:2]1([O:3][H:10])[C:4]([H:11])([H:12])[O:5][C:6]1([H:13])[H:14])([H:7])([H:8])[H:9]>>[C:1]1([H:8])([H:9])[C@:2]2([O:3][H:10])[C:4]([H:11])([H:12])[O:5][C@:6]12[H:14].[H:7][H:13]"
C        1.28735183       0.24448759      -0.17585156
C        0.05368104      -0.41732609       0.28229532
O        0.02018408      -0.78653148       1.62012621
C       -0.79842854      -1.18408697      -0.73472755
O       -1.50179677       0.00215437      -1.11794011
C       -0.66891511       0.78984850      -0.27382320
H        1.09362152       1.86751065       0.62764520
H        1.76470086      -0.18192832      -1.05573243
H        2.05732497       0.22649364       0.59132708
H       -0.86142323      -0.62008303       1.96356509
H       -1.49399345      -1.88777760      -0.26616611
H       -0.28113297      -1.65117618      -1.57448426
H       -0.11822135       1.87360999       0.93965710
H       -0.55295287       1.72480492      -0.82589078
14
Frame=13 idx=005510 GeodesicLength=1.2593319717854519 rxn_smarts="[C:1]([C:2]1([O:3][H:10])[C:4]([H:11])([H:12])[O:5][C:6]1([H:13])[H:14])([H:7])([H:8])[H:9]>>[C:1]1([H:8])([H:9])[C@:2]2([O:3][H:10])[C:4]([H:11])([H:12])[O:5][C@:6]12[H:14].[H:7][H:13]"
C        1.27544691       0.25445775      -0.18758964
C        0.04887771      -0.42232053       0.28452016
O        0.02902083      -0.79187028       1.62208518
C       -0.79695222      -1.18744605      -0.73395078
O       -1.46586422       0.00881612      -1.14725361
C       -0.65789755       0.79398618      -0.27340149
H        1.11985895       1.89024492       0.61168138
H        1.76327054      -0.20116012      -1.04778298
H        2.04582791       0.23988415       0.58010384
H       -0.85680513      -0.65392744       1.96694751
H       -1.51945366      -1.86548408      -0.26721832
H       -0.27659717      -1.68313447      -1.55548679
H       -0.14054460       1.87491369       0.95316575
H       -0.56818829       1.74304015      -0.80582021
14
Frame=14 idx=005510 GeodesicLength=1.3577513791408822 rxn_smarts="[C:1]([C:2]1([O:3][H:10])[C:4]([H:11])([H:12])[O:5][C:6]1([H:13])[H:14])([H:7])([H:8])[H:9]>>[C:1]1([H:8])([H:9])[C@:2]2([O:3][H:10])[C:4]([H:11])([H:12])[O:5][C@:6]12[H:14].[H:7][H:13]"
C        1.26375789       0.26380198      -0.19872796
C        0.04394031      -0.42718367       0.28692260
O        0.03769682      -0.79747346       1.62400802
C       -0.79571235      -1.19031980      -0.73329573
O       -1.42893006       0.01535578      -1.17545998
C       -0.64694937       0.79821855      -0.27266902
H        1.14834867       1.91378612       0.59135970
H        1.76212827      -0.21983861      -1.03830859
H        2.03396880       0.25326614       0.57005346
H       -0.85159656      -0.68905193       1.97014455
H       -1.54458229      -1.84201720      -0.26951066
H       -0.27317166      -1.71403586      -1.53611318
H       -0.16481068       1.87551432       0.96724804
H       -0.58408780       1.75997765      -0.78565126
14
Frame=15 idx=005510 GeodesicLength=1.4558790961756891 rxn_smarts="[C:1]([C:2]1([O:3][H:10])[C:4]([H:11])([H:12])[O:5][C:6]1([H:13])[H:14])([H:7])([H:8])[H:9]>>[C:1]1([H:8])([H:9])[C@:2]2([O:3][H:10])[C:4]([H:11])([H:12])[O:5][C@:6]12[H:14].[H:7][H:13]"
C        1.25233919       0.27250514      -0.20915464
C        0.03885026      -0.43192490       0.28954846
O        0.04614727      -0.80335667       1.62594276
C       -0.79471284      -1.19263858      -0.73277926
O       -1.39130210       0.02183333      -1.20222542
C       -0.63598459       0.80257822      -0.27158518
H        1.17930909       1.93818217       0.56616294
H        1.76135770      -0.23806198      -1.02718291
H        2.02173165       0.26670652       0.56134201
H       -0.84582542      -0.72558699       1.97309220
H       -1.56919565      -1.81752647      -0.27304745
H       -0.27092935      -1.74361738      -1.51659816
H       -0.19130540       1.87533057       0.98199297
H       -0.60047980       1.77557704      -0.76550832
14
Frame=16 idx=005510 GeodesicLength=1.553475310504251 rxn_smarts="[C:1]([C:2]1([O:3][H:10])[C:4]([H:11])([H:12])[O:5][C:6]1([H:13])[H:14])([H:7])([H:8])[H:9]>>[C:1]1([H:8])([H:9])[C@:2]2([O:3][H:10])[C:4]([H:11])([H:12])[O:5][C@:6]12[H:14].[H:7][H:13]"
C        1.24124642       0.28055521      -0.21876166
C        0.03358633      -0.43654623       0.29244375
O        0.05430504      -0.80953329       1.62793640
C       -0.79394830      -1.19433596      -0.73241466
O       -1.35329271       0.02833020      -1.22726907
C       -0.62491166       0.80710735      -0.27010078
H        1.21298602       1.96345311       0.53548811
H        1.76104843      -0.25593440      -1.01425221
H        2.00909415       0.28029685       0.55413192
H       -0.83950789      -0.76368006       1.97571119
H       -1.59313655      -1.79215229      -0.27780722
H       -0.26991789      -1.77165214      -1.49716569
H       -0.22037706       1.87424329       0.99752104
H       -0.61717433       1.78984834      -0.74546112
