15
Frame=0 idx=008920 GeodesicLength=0.0 rxn_smarts="[C:1]([n:2]1[c:3]([H:11])[c:4]([H:12])[c:5]([H:13])[c:6]1[N:7]([H:14])[H:15])([H:8])([H:9])[H:10]>>[C:1]([N+:7]([c-:6]1[n:2][c:3]([H:11])[c:4]([H:12])[c:5]1[H:13])([H:14])[H:15])([H:8])([H:9])[H:10]"
C       -1.92008777      -0.92300223       0.30253832
N        0.22230025      -0.67571020       0.26475806
C        1.53371325      -1.00354525       0.36424804
C        2.29970468       0.08295939      -0.03371201
C        1.40368499       1.11946503      -0.38984639
C        0.15146344       0.57871317      -0.17884245
N       -1.20030215       0.97864872      -0.30353087
H       -2.83090010      -0.34902113       0.41552628
H       -1.87102349      -1.49376520      -0.61181906
H       -1.66173651      -1.47720572       1.18918043
H        1.85363079      -1.97797951       0.70206526
H        3.37875011       0.12327709      -0.06564439
H        1.64568814       2.10999190      -0.74266258
H       -1.49663955       1.71010897       0.33201812
H       -1.50824610       1.19706502      -1.24427671
15
Frame=1 idx=008920 GeodesicLength=0.03658135863696699 rxn_smarts="[C:1]([n:2]1[c:3]([H:11])[c:4]([H:12])[c:5]([H:13])[c:6]1[N:7]([H:14])[H:15])([H:8])([H:9])[H:10]>>[C:1]([N+:7]([c-:6]1[n:2][c:3]([H:11])[c:4]([H:12])[c:5]1[H:13])([H:14])[H:15])([H:8])([H:9])[H:10]"
C       -1.91347598      -0.91362006       0.31032103
N        0.22343225      -0.69561184       0.21280509
C        1.53566233      -1.01056462       0.34230855
C        2.30037398       0.08578377      -0.02850470
C        1.40278268       1.12610651      -0.36900140
C        0.15120398       0.57156943      -0.19536230
N       -1.20162481       0.97439572      -0.31079693
H       -2.83539068      -0.35147014       0.39461273
H       -1.88102040      -1.52978178      -0.57547507
H       -1.66507334      -1.43096746       1.22264748
H        1.85504252      -1.98189476       0.68936330
H        3.37914693       0.12562174      -0.06702533
H        1.64217770       2.12642109      -0.69501062
H       -1.49159709       1.70974429       0.32293935
H       -1.50164007       1.19426811      -1.25382119
15
Frame=2 idx=008920 GeodesicLength=0.07331348354063574 rxn_smarts="[C:1]([n:2]1[c:3]([H:11])[c:4]([H:12])[c:5]([H:13])[c:6]1[N:7]([H:14])[H:15])([H:8])([H:9])[H:10]>>[C:1]([N+:7]([c-:6]1[n:2][c:3]([H:11])[c:4]([H:12])[c:5]1[H:13])([H:14])[H:15])([H:8])([H:9])[H:10]"
C       -1.90505122      -0.90427261       0.31852437
N        0.22420763      -0.71320158       0.16080232
C        1.53602975      -1.01773956       0.31923423
C        2.30000665       0.08781165      -0.02290998
C        1.40130752       1.13178250      -0.34885898
C        0.15072179       0.56546913      -0.21271999
N       -1.20330059       0.97053136      -0.31932368
H       -2.83763546      -0.35532472       0.37541619
H       -1.88885342      -1.56587635      -0.53500364
H       -1.66463216      -1.38214584       1.25513580
H        1.85329981      -1.98799045       0.67108984
H        3.37861597       0.12845810      -0.06310453
H        1.63831235       2.14177518      -0.64549514
H       -1.48735232       1.71006453       0.31195113
H       -1.49567630       1.19065865      -1.26473794
15
Frame=3 idx=008920 GeodesicLength=0.11049735895268849 rxn_smarts="[C:1]([n:2]1[c:3]([H:11])[c:4]([H:12])[c:5]([H:13])[c:6]1[N:7]([H:14])[H:15])([H:8])([H:9])[H:10]>>[C:1]([N+:7]([c-:6]1[n:2][c:3]([H:11])[c:4]([H:12])[c:5]1[H:13])([H:14])[H:15])([H:8])([H:9])[H:10]"
C       -1.89521974      -0.89433967       0.32829168
N        0.22454129      -0.72758422       0.11325378
C        1.53517221      -1.02468877       0.29633421
C        2.29866894       0.08934530      -0.01620057
C        1.39912348       1.13723480      -0.32675927
C        0.15000943       0.56058105      -0.22951592
N       -1.20535200       0.96658258      -0.33043886
H       -2.83842704      -0.36034592       0.35619489
H       -1.89281543      -1.60292490      -0.48754781
H       -1.66268366      -1.32811648       1.28899222
H        1.85019362      -1.99955209       0.63717175
H        3.37722364       0.13193177      -0.05376689
H        1.63376576       2.15629815      -0.59271475
H       -1.48516361       1.71167524       0.29590476
H       -1.48903689       1.18390315      -1.27919922
15
Frame=4 idx=008920 GeodesicLength=0.14825755161710397 rxn_smarts="[C:1]([n:2]1[c:3]([H:11])[c:4]([H:12])[c:5]([H:13])[c:6]1[N:7]([H:14])[H:15])([H:8])([H:9])[H:10]>>[C:1]([N+:7]([c-:6]1[n:2][c:3]([H:11])[c:4]([H:12])[c:5]1[H:13])([H:14])[H:15])([H:8])([H:9])[H:10]"
C       -1.88411193      -0.88386345       0.33916315
N        0.22437202      -0.74006800       0.06726037
C        1.53341120      -1.03240649       0.27049025
C        2.29639975       0.08995010      -0.00975068
C        1.39614674       1.14182456      -0.30423087
C        0.14907658       0.55629976      -0.24705119
N       -1.20774281       0.96260288      -0.34364495
H       -2.83758728      -0.36644329       0.33809538
H       -1.89413286      -1.63964497      -0.43390293
H       -1.65865601      -1.26987748       1.32260966
H        1.84627503      -2.01354041       0.59480716
H        3.37500499       0.13600508      -0.03844191
H        1.62814292       2.16992725      -0.53550548
H       -1.48405159       1.71413046       0.27625904
H       -1.48254674       1.17510400      -1.29615698
15
Frame=5 idx=008920 GeodesicLength=0.1865603260392102 rxn_smarts="[C:1]([n:2]1[c:3]([H:11])[c:4]([H:12])[c:5]([H:13])[c:6]1[N:7]([H:14])[H:15])([H:8])([H:9])[H:10]>>[C:1]([N+:7]([c-:6]1[n:2][c:3]([H:11])[c:4]([H:12])[c:5]1[H:13])([H:14])[H:15])([H:8])([H:9])[H:10]"
C       -1.87198997      -0.87333049       0.34957808
N        0.22379436      -0.75072342       0.02372370
C        1.53108045      -1.04025290       0.24353917
C        2.29340888       0.08973832      -0.00353528
C        1.39234521       1.14583216      -0.27975183
C        0.14802262       0.55277673      -0.26423646
N       -1.21036153       0.95888820      -0.35762977
H       -2.83547150      -0.37444369       0.31898802
H       -1.89182620      -1.67532663      -0.37612169
H       -1.65429189      -1.20893949       1.35399638
H        1.84181873      -2.02749570       0.55080078
H        3.37197749       0.13851834      -0.02534235
H        1.62134940       2.18202339      -0.47519014
H       -1.48403111       1.71689558       0.25523924
H       -1.47582494       1.16583960      -1.31405785
15
Frame=6 idx=008920 GeodesicLength=0.22557315907692033 rxn_smarts="[C:1]([n:2]1[c:3]([H:11])[c:4]([H:12])[c:5]([H:13])[c:6]1[N:7]([H:14])[H:15])([H:8])([H:9])[H:10]>>[C:1]([N+:7]([c-:6]1[n:2][c:3]([H:11])[c:4]([H:12])[c:5]1[H:13])([H:14])[H:15])([H:8])([H:9])[H:10]"
C       -1.85857966      -0.86254214       0.36014786
N        0.22277556      -0.76029076      -0.01999461
C        1.52805831      -1.04828885       0.21500231
C        2.28953553       0.08875951       0.00278956
C        1.38766790       1.14865135      -0.25556033
C        0.14682581       0.54960813      -0.28278381
N       -1.21324576       0.95534695      -0.37268041
H       -2.83159636      -0.38386647       0.30096031
H       -1.88692648      -1.70913894      -0.31367449
H       -1.64824100      -1.14551956       1.38313077
H        1.83674957      -2.04177433       0.50352062
H        3.36803058       0.14078090      -0.00873670
H        1.61312053       2.19221878      -0.41207058
H       -1.48433194       1.71993110       0.23283966
H       -1.46984259       1.15612433      -1.33289015
15
Frame=7 idx=008920 GeodesicLength=0.2653076892362986 rxn_smarts="[C:1]([n:2]1[c:3]([H:11])[c:4]([H:12])[c:5]([H:13])[c:6]1[N:7]([H:14])[H:15])([H:8])([H:9])[H:10]>>[C:1]([N+:7]([c-:6]1[n:2][c:3]([H:11])[c:4]([H:12])[c:5]1[H:13])([H:14])[H:15])([H:8])([H:9])[H:10]"
C       -1.84391454      -0.85168292       0.37046054
N        0.22133588      -0.76880064      -0.06380380
C        1.52441176      -1.05634455       0.18523468
C        2.28480200       0.08697756       0.00898903
C        1.38214950       1.15022822      -0.23211644
C        0.14550445       0.54686671      -0.30245474
N       -1.21638376       0.95216170      -0.38802235
H       -2.82606492      -0.39509480       0.28343052
H       -1.87882460      -1.74047096      -0.24743259
H       -1.64106761      -1.08039042       1.40937512
H        1.83106080      -2.05577396       0.45465540
H        3.36309838       0.14249726       0.01119048
H        1.60341272       2.19996891      -0.34818368
H       -1.48474967       1.72305690       0.21038110
H       -1.46477040       1.14680101      -1.35170327
15
Frame=8 idx=008920 GeodesicLength=0.3058166207978072 rxn_smarts="[C:1]([n:2]1[c:3]([H:11])[c:4]([H:12])[c:5]([H:13])[c:6]1[N:7]([H:14])[H:15])([H:8])([H:9])[H:10]>>[C:1]([N+:7]([c-:6]1[n:2][c:3]([H:11])[c:4]([H:12])[c:5]1[H:13])([H:14])[H:15])([H:8])([H:9])[H:10]"
C       -1.82777438      -0.84122936       0.37974028
N        0.21954232      -0.77630642      -0.10896815
C        1.51987937      -1.06408133       0.15525624
C        2.27913814       0.08442232       0.01525300
C        1.37594769       1.15057737      -0.21041410
C        0.14406386       0.54474960      -0.32337468
N       -1.21979110       0.94969630      -0.40256915
H       -2.81867631      -0.40861142       0.26622307
H       -1.86711019      -1.76873669      -0.17934635
H       -1.63264749      -1.01538531       1.43160733
H        1.82388730      -2.06846724       0.40865590
H        3.35704688       0.14299549       0.03306318
H        1.59252751       2.20499348      -0.28606120
H       -1.48488099       1.72598816       0.19000570
H       -1.46115260       1.13939504      -1.36907109
15
Frame=9 idx=008920 GeodesicLength=0.3477603696678624 rxn_smarts="[C:1]([n:2]1[c:3]([H:11])[c:4]([H:12])[c:5]([H:13])[c:6]1[N:7]([H:14])[H:15])([H:8])([H:9])[H:10]>>[C:1]([N+:7]([c-:6]1[n:2][c:3]([H:11])[c:4]([H:12])[c:5]1[H:13])([H:14])[H:15])([H:8])([H:9])[H:10]"
C       -1.80915960      -0.83117983       0.38852453
N        0.21732242      -0.78291110      -0.15864235
C        1.51360587      -1.07139578       0.12552482
C        2.27192586       0.08108272       0.02274494
C        1.36905721       1.14967696      -0.19229957
C        0.14239706       0.54334501      -0.34740054
N       -1.22365061       0.94803577      -0.41654286
H       -2.80852815      -0.42403619       0.25178770
H       -1.85192245      -1.79345620      -0.10956801
H       -1.62046782      -0.95127980       1.45007781
H        1.81434786      -2.08053105       0.36336175
H        3.34897634       0.14255655       0.06320803
H        1.58069599       2.20723572      -0.22768799
H       -1.48428268       1.72876622       0.17188282
H       -1.46031731       1.13409101      -1.38497107
15
Frame=10 idx=008920 GeodesicLength=0.39068424885087244 rxn_smarts="[C:1]([n:2]1[c:3]([H:11])[c:4]([H:12])[c:5]([H:13])[c:6]1[N:7]([H:14])[H:15])([H:8])([H:9])[H:10]>>[C:1]([N+:7]([c-:6]1[n:2][c:3]([H:11])[c:4]([H:12])[c:5]1[H:13])([H:14])[H:15])([H:8])([H:9])[H:10]"
C       -1.79013720      -0.82011161       0.39851776
N        0.21457725      -0.78827132      -0.20341349
C        1.50786872      -1.07909620       0.09297076
C        2.26426157       0.07684771       0.02906652
C        1.36106854       1.14788099      -0.17173193
C        0.14069332       0.54227023      -0.37015695
N       -1.22760976       0.94598194      -0.43199661
H       -2.79737655      -0.44158992       0.23550466
H       -1.83166360      -1.81477007      -0.03313497
H       -1.61124271      -0.88248146       1.46769401
H        1.80664088      -2.09355637       0.30950646
H        3.33981632       0.14111273       0.09453472
H        1.56651866       2.20723739      -0.16475214
H       -1.48507105       1.73207396       0.15034841
H       -1.45834438       1.12647199      -1.40295720
15
Frame=11 idx=008920 GeodesicLength=0.4349996467416187 rxn_smarts="[C:1]([n:2]1[c:3]([H:11])[c:4]([H:12])[c:5]([H:13])[c:6]1[N:7]([H:14])[H:15])([H:8])([H:9])[H:10]>>[C:1]([N+:7]([c-:6]1[n:2][c:3]([H:11])[c:4]([H:12])[c:5]1[H:13])([H:14])[H:15])([H:8])([H:9])[H:10]"
C       -1.76960530      -0.80850193       0.40920412
N        0.21134571      -0.79282053      -0.24803897
C        1.50165783      -1.08672911       0.05938889
C        2.25557389       0.07178737       0.03588373
C        1.35212044       1.14499396      -0.15165872
C        0.13887343       0.54163367      -0.39383961
N       -1.23189233       0.94400546      -0.44810011
H       -2.78413794      -0.46121492       0.22019103
H       -1.80692725      -1.83152388       0.04721092
H       -1.60187433      -0.81191712       1.48300462
H        1.79924255      -2.10653218       0.25099805
H        3.32875120       0.13823691       0.13050192
H        1.55037429       2.20457891      -0.10102102
H       -1.48628775       1.73563557       0.12778262
H       -1.45721447       1.11836783      -1.42150747
15
Frame=12 idx=008920 GeodesicLength=0.4812123571097189 rxn_smarts="[C:1]([n:2]1[c:3]([H:11])[c:4]([H:12])[c:5]([H:13])[c:6]1[N:7]([H:14])[H:15])([H:8])([H:9])[H:10]>>[C:1]([N+:7]([c-:6]1[n:2][c:3]([H:11])[c:4]([H:12])[c:5]1[H:13])([H:14])[H:15])([H:8])([H:9])[H:10]"
C       -1.74679127      -0.79678522       0.41994092
N        0.20770159      -0.79639042      -0.29445048
C        1.49438872      -1.09398480       0.02551111
C        2.24547800       0.06586562       0.04351054
C        1.34206437       1.14110150      -0.13198998
C        0.13694428       0.54174887      -0.41890657
N       -1.23648842       0.94235286      -0.46417104
H       -2.76797671      -0.48288319       0.20681747
H       -1.77763286      -1.84312750       0.12873593
H       -1.59115648      -0.74187992       1.49517946
H        1.79063370      -2.11842019       0.19275370
H        3.31523990       0.13323902       0.16982280
H        1.53276310       2.19921253      -0.03881272
H       -1.48771432       1.73909642       0.10572116
H       -1.45745359       1.11085443      -1.43966227
15
Frame=13 idx=008920 GeodesicLength=0.5288404804005427 rxn_smarts="[C:1]([n:2]1[c:3]([H:11])[c:4]([H:12])[c:5]([H:13])[c:6]1[N:7]([H:14])[H:15])([H:8])([H:9])[H:10]>>[C:1]([N+:7]([c-:6]1[n:2][c:3]([H:11])[c:4]([H:12])[c:5]1[H:13])([H:14])[H:15])([H:8])([H:9])[H:10]"
C       -1.72366577      -0.78322541       0.43254018
N        0.20353591      -0.79959057      -0.33585968
C        1.48818241      -1.10143227      -0.01070335
C        2.23490583       0.05910836       0.05128846
C        1.33065380       1.13584260      -0.10993794
C        0.13509686       0.54168597      -0.44275818
N       -1.24110511       0.93990689      -0.48220872
H       -2.75027166      -0.50656559       0.19293648
H       -1.74366881      -1.84854845       0.21602386
H       -1.58418303      -0.66730055       1.50616655
H        1.78526587      -2.13017777       0.12547955
H        3.30056325       0.12664147       0.20777645
H        1.51138765       2.19049770       0.03053216
H       -1.49038036       1.74306859       0.07916388
H       -1.45631683       1.10008904      -1.46043970
15
Frame=14 idx=008920 GeodesicLength=0.5781145726547919 rxn_smarts="[C:1]([n:2]1[c:3]([H:11])[c:4]([H:12])[c:5]([H:13])[c:6]1[N:7]([H:14])[H:15])([H:8])([H:9])[H:10]>>[C:1]([N+:7]([c-:6]1[n:2][c:3]([H:11])[c:4]([H:12])[c:5]1[H:13])([H:14])[H:15])([H:8])([H:9])[H:10]"
C       -1.69941884      -0.76861500       0.44611532
N        0.19890660      -0.80242353      -0.37533362
C        1.48257733      -1.10868304      -0.04939029
C        2.22356822       0.05149922       0.05934375
C        1.31801713       1.12924240      -0.08717474
C        0.13325385       0.54177690      -0.46638573
N       -1.24588928       0.93724546      -0.50066011
H       -2.73014161      -0.53237129       0.18009394
H       -1.70557278      -1.84752547       0.30560035
H       -1.57921244      -0.59148044       1.51473551
H        1.78124500      -2.14067996       0.05474993
H        3.28398380       0.11817137       0.24795552
H        1.48753225       2.17841784       0.10063579
H       -1.49358509       1.74713304       0.05138036
H       -1.45526414       1.08829249      -1.48166599
15
Frame=15 idx=008920 GeodesicLength=0.6292183541215297 rxn_smarts="[C:1]([n:2]1[c:3]([H:11])[c:4]([H:12])[c:5]([H:13])[c:6]1[N:7]([H:14])[H:15])([H:8])([H:9])[H:10]>>[C:1]([N+:7]([c-:6]1[n:2][c:3]([H:11])[c:4]([H:12])[c:5]1[H:13])([H:14])[H:15])([H:8])([H:9])[H:10]"
C       -1.67389928      -0.75303164       0.46038335
N        0.19385644      -0.80490141      -0.41344273
C        1.47717843      -1.11543418      -0.08902589
C        2.21132713       0.04300446       0.06785625
C        1.30436256       1.12137566      -0.06482141
C        0.13139800       0.54208096      -0.48993414
N       -1.25084691       0.93449078      -0.51908623
H       -2.70729099      -0.56027995       0.16885419
H       -1.66336029      -1.83985589       0.39581265
H       -1.57586839      -0.51558663       1.52057180
H        1.77822537      -2.14953354      -0.01820289
H        3.26521046       0.10746853       0.29037374
H        1.46134955       2.16300906       0.17019902
H       -1.49705003       1.75118803       0.02321774
H       -1.45459205       1.07600577      -1.50275546
15
Frame=16 idx=008920 GeodesicLength=0.6821812130825105 rxn_smarts="[C:1]([n:2]1[c:3]([H:11])[c:4]([H:12])[c:5]([H:13])[c:6]1[N:7]([H:14])[H:15])([H:8])([H:9])[H:10]>>[C:1]([N+:7]([c-:6]1[n:2][c:3]([H:11])[c:4]([H:12])[c:5]1[H:13])([H:14])[H:15])([H:8])([H:9])[H:10]"
C       -1.64731060      -0.73641455       0.47520467
N        0.18843675      -0.80711262      -0.44980135
C        1.47195904      -1.12156800      -0.12871256
C        2.19817403       0.03361922       0.07721329
C        1.28990480       1.11237317      -0.04325983
C        0.12956185       0.54254297      -0.51309841
N       -1.25591932       0.93164507      -0.53727941
H       -2.68166534      -0.59017662       0.15927631
H       -1.61737839      -1.82549018       0.48560936
H       -1.57463014      -0.44025190       1.52363666
H        1.77633152      -2.15646270      -0.09279147
H        3.24447343       0.09445154       0.33361270
H        1.43287583       2.14432021       0.23896148
H       -1.50066971       1.75520376      -0.00506998
H       -1.45414375       1.06332063      -1.52350146
