14
Frame=0 idx=004598 GeodesicLength=0.0 rxn_smarts="[C:1]([C@@:2]1([H:9])[C:3]([H:10])([H:11])[N:4]1[C:5]([H:12])([H:13])[H:14])([H:6])([H:7])[H:8]>>[C:1]([C:2](=[C:3]([H:10])[H:11])[H:9])([H:6])([H:7])[H:8].[N:4](=[C:5]([H:12])[H:14])[H:13]"
C       -1.77264361       0.44295815      -0.51184529
C       -0.51380277       0.35514643       0.29765842
C        0.01090221      -0.94597155       0.80561808
N        0.65923167      -0.28378593      -0.28925779
C        2.13155285       0.12209196      -0.27566645
H       -2.63781331       0.56537324       0.14222819
H       -1.73851467       1.29499801      -1.19278478
H       -1.91491446      -0.46321417      -1.10238149
H       -0.24462985       1.23011565       0.88376822
H       -0.53111799      -1.85609130       0.57380296
H        0.56274310      -0.95305612       1.73923209
H        2.53858578       0.05829659       0.73584165
H        1.27133455      -0.70003554      -1.12684549
H        2.17908644       1.13317452      -0.67936834
14
Frame=1 idx=004598 GeodesicLength=0.13969556499878433 rxn_smarts="[C:1]([C@@:2]1([H:9])[C:3]([H:10])([H:11])[N:4]1[C:5]([H:12])([H:13])[H:14])([H:6])([H:7])[H:8]>>[C:1]([C:2](=[C:3]([H:10])[H:11])[H:9])([H:6])([H:7])[H:8].[N:4](=[C:5]([H:12])[H:14])[H:13]"
C       -1.77069621       0.44898005      -0.51006404
C       -0.52448146       0.34678383       0.31707445
C       -0.00893774      -0.95541751       0.81390624
N        0.68299406      -0.27500319      -0.27970668
C        2.13812416       0.13557608      -0.29065874
H       -2.64529492       0.57097113       0.13157089
H       -1.72062283       1.30762829      -1.18180290
H       -1.90975590      -0.45058662      -1.11131802
H       -0.26675056       1.21382079       0.92036869
H       -0.54627987      -1.86339854       0.56286790
H        0.53510787      -0.97816424       1.75201351
H        2.55679966       0.10999618       0.71798227
H        1.30220892      -0.73961012      -1.10341912
H        2.17758482       1.12842387      -0.73881443
14
Frame=2 idx=004598 GeodesicLength=0.2793869565668584 rxn_smarts="[C:1]([C@@:2]1([H:9])[C:3]([H:10])([H:11])[N:4]1[C:5]([H:12])([H:13])[H:14])([H:6])([H:7])[H:8]>>[C:1]([C:2](=[C:3]([H:10])[H:11])[H:9])([H:6])([H:7])[H:8].[N:4](=[C:5]([H:12])[H:14])[H:13]"
C       -1.76820488       0.45552030      -0.50803974
C       -0.53529603       0.33767857       0.33674943
C       -0.02964495      -0.96599109       0.82192137
N        0.70733391      -0.26675629      -0.26911534
C        2.14462271       0.14998218      -0.30617778
H       -2.65214739       0.57762237       0.12078534
H       -1.70149247       1.32079385      -1.16990859
H       -1.90427716      -0.43701366      -1.12030939
H       -0.28893348       1.19610389       0.95733023
H       -0.56217206      -1.87123043       0.55084627
H        0.50598342      -1.00508092       1.76448580
H        2.57464817       0.16643247       0.69807130
H        1.33526644      -0.77912903      -1.07560469
H        2.17431377       1.12106780      -0.80103420
14
Frame=3 idx=004598 GeodesicLength=0.41904895671445075 rxn_smarts="[C:1]([C@@:2]1([H:9])[C:3]([H:10])([H:11])[N:4]1[C:5]([H:12])([H:13])[H:14])([H:6])([H:7])[H:8]>>[C:1]([C:2](=[C:3]([H:10])[H:11])[H:9])([H:6])([H:7])[H:8].[N:4](=[C:5]([H:12])[H:14])[H:13]"
C       -1.76512469       0.46259088      -0.50575539
C       -0.54630108       0.32783361       0.35673866
C       -0.05129027      -0.97768839       0.82965688
N        0.73232843      -0.25898016      -0.25727955
C        2.15097884       0.16531364      -0.32235765
H       -2.65834011       0.58540019       0.10983593
H       -1.68102739       1.33444110      -1.15708142
H       -1.89839614      -0.42248194      -1.12932189
H       -0.31126122       1.17696552       0.99468991
H       -0.57872999      -1.87955780       0.53760570
H        0.47525921      -1.03383409       1.77661292
H        2.59204213       0.22757735       0.67549434
H        1.37080380      -0.81827332      -1.04304532
H        2.16905848       1.11069343      -0.86579311
14
Frame=4 idx=004598 GeodesicLength=0.5586640481846655 rxn_smarts="[C:1]([C@@:2]1([H:9])[C:3]([H:10])([H:11])[N:4]1[C:5]([H:12])([H:13])[H:14])([H:6])([H:7])[H:8]>>[C:1]([C:2](=[C:3]([H:10])[H:11])[H:9])([H:6])([H:7])[H:8].[N:4](=[C:5]([H:12])[H:14])[H:13]"
C       -1.76139487       0.47022639      -0.50318539
C       -0.55756337       0.31724415       0.37712207
C       -0.07395056      -0.99052268       0.83708232
N        0.75806877      -0.25156626      -0.24393643
C        2.15710658       0.18155205      -0.33934310
H       -2.66384185       0.59433434       0.09867797
H       -1.65912020       1.34858620      -1.14322114
H       -1.89196856      -0.40691181      -1.13838257
H       -0.33384706       1.15637410       1.03254487
H       -0.59586392      -1.88835048       0.52294009
H        0.44279584      -1.06450757       1.78833823
H        2.60882917       0.29353996       0.64957002
H        1.40916585      -0.85674161      -1.00522160
H        2.16158416       1.09674319      -0.93298532
14
Frame=5 idx=004598 GeodesicLength=0.6982396784031043 rxn_smarts="[C:1]([C@@:2]1([H:9])[C:3]([H:10])([H:11])[N:4]1[C:5]([H:12])([H:13])[H:14])([H:6])([H:7])[H:8]>>[C:1]([C:2](=[C:3]([H:10])[H:11])[H:9])([H:6])([H:7])[H:8].[N:4](=[C:5]([H:12])[H:14])[H:13]"
C       -1.75690186       0.47855354      -0.50025621
C       -0.56912367       0.30584010       0.39800317
C       -0.09772721      -1.00462110       0.84406871
N        0.78467090      -0.24444704      -0.22879752
C        2.16288507       0.19868596      -0.35723509
H       -2.66856325       0.60450925       0.08732022
H       -1.63558165       1.36342227      -1.12803836
H       -1.88481157      -0.39003923      -1.14758022
H       -0.35677357       1.13414355       1.07111539
H       -0.61351094      -1.89762452       0.50644314
H        0.40840784      -1.09741530       1.79949490
H        2.62445036       0.36521717       0.61959683
H        1.45097279      -0.89440892      -0.96116785
H        2.15160675       1.07818428      -1.00296712
14
Frame=6 idx=004598 GeodesicLength=0.8377424901846079 rxn_smarts="[C:1]([C@@:2]1([H:9])[C:3]([H:10])([H:11])[N:4]1[C:5]([H:12])([H:13])[H:14])([H:6])([H:7])[H:8]>>[C:1]([C:2](=[C:3]([H:10])[H:11])[H:9])([H:6])([H:7])[H:8].[N:4](=[C:5]([H:12])[H:14])[H:13]"
C       -1.75159218       0.48760422      -0.49693061
C       -0.58109835       0.29363670       0.41947463
C       -0.12266735      -1.01995387       0.85052176
N        0.81225971      -0.23732538      -0.21145296
C        2.16820117       0.21660398      -0.37624912
H       -2.67249629       0.61587957       0.07569709
H       -1.61035226       1.37897493      -1.11136526
H       -1.87669117      -0.37175411      -1.15696480
H       -0.38028223       1.11023643       1.11053503
H       -0.63141799      -1.90728739       0.48778163
H        0.37189963      -1.13261509       1.80997460
H        2.63872832       0.44245664       0.58448961
H        1.49659189      -0.93062625      -0.91009070
H        2.13891711       1.05416961      -1.07542089
14
Frame=7 idx=004598 GeodesicLength=0.9771438568182641 rxn_smarts="[C:1]([C@@:2]1([H:9])[C:3]([H:10])([H:11])[N:4]1[C:5]([H:12])([H:13])[H:14])([H:6])([H:7])[H:8]>>[C:1]([C:2](=[C:3]([H:10])[H:11])[H:9])([H:6])([H:7])[H:8].[N:4](=[C:5]([H:12])[H:14])[H:13]"
C       -1.74537890       0.49746178      -0.49314620
C       -0.59359628       0.28061206       0.44163189
C       -0.14880331      -1.03654098       0.85626498
N        0.84098959      -0.22986523      -0.19141925
C        2.17290493       0.23513697      -0.39661762
H       -2.67559272       0.62845260       0.06376383
H       -1.58332492       1.39535306      -1.09293597
H       -1.86734108      -0.35184842      -1.16660123
H       -0.40464134       1.08451474       1.15100253
H       -0.64927146      -1.91724540       0.46648190
H        0.33304656      -1.17027337       1.81957999
H        2.65125698       0.52534910       0.54298384
H        1.54654032      -0.96466110      -0.85088958
H        2.12321164       1.02355420      -1.15009911
14
Frame=8 idx=004598 GeodesicLength=1.1164292719912705 rxn_smarts="[C:1]([C@@:2]1([H:9])[C:3]([H:10])([H:11])[N:4]1[C:5]([H:12])([H:13])[H:14])([H:6])([H:7])[H:8]>>[C:1]([C:2](=[C:3]([H:10])[H:11])[H:9])([H:6])([H:7])[H:8].[N:4](=[C:5]([H:12])[H:14])[H:13]"
C       -1.73815668       0.50829184      -0.48878385
C       -0.60672622       0.26670455       0.46457584
C       -0.17614126      -1.05446384       0.86097482
N        0.87104009      -0.22164650      -0.16814023
C        2.17681387       0.25402191      -0.41853591
H       -2.67778037       0.64225989       0.05154141
H       -1.55439138       1.41281950      -1.07228604
H       -1.85645024      -0.32993850      -1.17659154
H       -0.43015260       1.05670573       1.19280249
H       -0.66665941      -1.92739189       0.44183007
H        0.29159541      -1.21071849       1.82794739
H        2.66121027       0.61443228       0.49354143
H        1.60158083      -0.99560619      -0.78196380
H        2.10421768       0.98452970      -1.22691209
14
Frame=9 idx=004598 GeodesicLength=1.255476867322624 rxn_smarts="[C:1]([C@@:2]1([H:9])[C:3]([H:10])([H:11])[N:4]1[C:5]([H:12])([H:13])[H:14])([H:6])([H:7])[H:8]>>[C:1]([C:2](=[C:3]([H:10])[H:11])[H:9])([H:6])([H:7])[H:8].[N:4](=[C:5]([H:12])[H:14])[H:13]"
C       -1.73005500       0.51992482      -0.48386702
C       -0.62087484       0.25214659       0.48843687
C       -0.20445988      -1.07328270       0.86452490
N        0.90257350      -0.21128212      -0.14057382
C        2.17986012       0.27261758      -0.44230401
H       -2.67939641       0.65649264       0.03869387
H       -1.52402942       1.43129931      -1.04916401
H       -1.84335562      -0.30605905      -1.18713210
H       -0.45775597       1.02700054       1.23608383
H       -0.68260325      -1.93726559       0.41349303
H        0.24747112      -1.25354593       1.83491969
H        2.66959306       0.70699724       0.43427315
H        1.66098036      -1.02121053      -0.70306889
H        2.08205224       0.93616721      -1.30431548
14
Frame=10 idx=004598 GeodesicLength=1.3943326061198311 rxn_smarts="[C:1]([C@@:2]1([H:9])[C:3]([H:10])([H:11])[N:4]1[C:5]([H:12])([H:13])[H:14])([H:6])([H:7])[H:8]>>[C:1]([C:2](=[C:3]([H:10])[H:11])[H:9])([H:6])([H:7])[H:8].[N:4](=[C:5]([H:12])[H:14])[H:13]"
C       -1.72083226       0.53286981      -0.47811410
C       -0.63602238       0.23666509       0.51323533
C       -0.23364272      -1.09336608       0.86610179
N        0.93582235      -0.19839668      -0.10814516
C        2.18168528       0.29039126      -0.46798031
H       -2.68013105       0.67170303       0.02549993
H       -1.49193306       1.45152114      -1.02262771
H       -1.82779927      -0.27925056      -1.19829520
H       -0.48765757       0.99458668       1.28128480
H       -0.69646509      -1.94677672       0.38008743
H        0.20046897      -1.29962521       1.83953665
H        2.67388848       0.80517083       0.36283456
H        1.72656395      -1.04029887      -0.61104309
H        2.05605437       0.87480627      -1.38237492
14
Frame=11 idx=004598 GeodesicLength=1.5327522084883567 rxn_smarts="[C:1]([C@@:2]1([H:9])[C:3]([H:10])([H:11])[N:4]1[C:5]([H:12])([H:13])[H:14])([H:6])([H:7])[H:8]>>[C:1]([C:2](=[C:3]([H:10])[H:11])[H:9])([H:6])([H:7])[H:8].[N:4](=[C:5]([H:12])[H:14])[H:13]"
C       -1.71124559       0.54658904      -0.47158369
C       -0.65281457       0.22086103       0.53882350
C       -0.26277537      -1.11355820       0.86538173
N        0.97074157      -0.17998156      -0.06983412
C        2.18252348       0.30593161      -0.49533819
H       -2.68094564       0.68615511       0.01167337
H       -1.45989468       1.47304478      -0.99265000
H       -1.80939340      -0.25007328      -1.21004481
H       -0.52149366       0.96007941       1.32813040
H       -0.70634069      -1.95486683       0.34160892
H        0.15144613      -1.34762933       1.84127136
H        2.67700133       0.90234353       0.27788098
H        1.79559337      -1.04908441      -0.50788569
H        2.02759772       0.80018910      -1.45743375
14
Frame=12 idx=004598 GeodesicLength=1.6707281721623002 rxn_smarts="[C:1]([C@@:2]1([H:9])[C:3]([H:10])([H:11])[N:4]1[C:5]([H:12])([H:13])[H:14])([H:6])([H:7])[H:8]>>[C:1]([C:2](=[C:3]([H:10])[H:11])[H:9])([H:6])([H:7])[H:8].[N:4](=[C:5]([H:12])[H:14])[H:13]"
C       -1.70123835       0.56155465      -0.46405930
C       -0.67113489       0.20453946       0.56487801
C       -0.29116908      -1.13389756       0.86138219
N        1.00733078      -0.15522251      -0.02556485
C        2.18201448       0.31794193      -0.52387237
H       -2.68162912       0.70033368      -0.00244658
H       -1.42819962       1.49660667      -0.95835052
H       -1.78802927      -0.21756734      -1.22237778
H       -0.55941084       0.92274937       1.37648294
H       -0.71105795      -1.96110780       0.29708034
H        0.10124109      -1.39782076       1.83874706
H        2.67606212       0.99841285       0.17730651
H        1.86918507      -1.04544488      -0.39188589
H        1.99603556       0.70892222      -1.52731976
14
Frame=13 idx=004598 GeodesicLength=1.8081735786341775 rxn_smarts="[C:1]([C@@:2]1([H:9])[C:3]([H:10])([H:11])[N:4]1[C:5]([H:12])([H:13])[H:14])([H:6])([H:7])[H:8]>>[C:1]([C:2](=[C:3]([H:10])[H:11])[H:9])([H:6])([H:7])[H:8].[N:4](=[C:5]([H:12])[H:14])[H:13]"
C       -1.69281259       0.57666159      -0.45565066
C       -0.69151465       0.18870476       0.59037616
C       -0.31700614      -1.15241581       0.85374730
N        1.04465044      -0.12021245       0.02314340
C        2.18107753       0.32479020      -0.55186477
H       -2.68396643       0.71194956      -0.01630020
H       -1.40065024       1.52092990      -0.92084171
H       -1.76539595      -0.18348548      -1.23445032
H       -0.60250308       0.88396139       1.42464417
H       -0.70879858      -1.96396274       0.24792654
H        0.05296416      -1.44733907       1.83107408
H        2.67678385       1.08259292       0.06421525
H        1.94206301      -1.02660251      -0.26980186
H        1.96510867       0.60442775      -1.58621738
14
Frame=14 idx=004598 GeodesicLength=1.945107190528496 rxn_smarts="[C:1]([C@@:2]1([H:9])[C:3]([H:10])([H:11])[N:4]1[C:5]([H:12])([H:13])[H:14])([H:6])([H:7])[H:8]>>[C:1]([C:2](=[C:3]([H:10])[H:11])[H:9])([H:6])([H:7])[H:8].[N:4](=[C:5]([H:12])[H:14])[H:13]"
C       -1.68607639       0.59248921      -0.44611874
C       -0.71323322       0.17296309       0.61446262
C       -0.33966166      -1.16928909       0.84164406
N        1.08185010      -0.07584782       0.07325706
C        2.17969232       0.32546646      -0.57755629
H       -2.68753384       0.72220928      -0.02882496
H       -1.37777640       1.54672932      -0.87961820
H       -1.74263815      -0.14676375      -1.24605314
H       -0.64882818       0.84307179       1.47141702
H       -0.69985770      -1.96317192       0.19421510
H        0.00892128      -1.49614765       1.81674056
H        2.67348252       1.15569798      -0.06073614
H        2.01560744      -0.99179916      -0.14144393
H        1.93605190       0.48439224      -1.63138501
14
Frame=15 idx=004598 GeodesicLength=2.081817832411253 rxn_smarts="[C:1]([C@@:2]1([H:9])[C:3]([H:10])([H:11])[N:4]1[C:5]([H:12])([H:13])[H:14])([H:6])([H:7])[H:8]>>[C:1]([C:2](=[C:3]([H:10])[H:11])[H:9])([H:6])([H:7])[H:8].[N:4](=[C:5]([H:12])[H:14])[H:13]"
C       -1.68440728       0.60755801      -0.43530193
C       -0.73628758       0.15825624       0.63539084
C       -0.35818640      -1.18287284       0.82512718
N        1.11666414      -0.02061611       0.11798973
C        2.18035890       0.32028100      -0.59850221
H       -2.69474799       0.72962634      -0.03734654
H       -1.36449548       1.57179659      -0.83724076
H       -1.72546237      -0.11046661      -1.25527465
H       -0.69645870       0.80222639       1.51377556
H       -0.68523545      -1.95804368       0.13854955
H       -0.02707720      -1.54083309       1.79541065
H        2.67374542       1.20870419      -0.18817485
H        2.08425103      -0.94182687      -0.01525354
H        1.91733896       0.35621044      -1.65914905
14
Frame=16 idx=004598 GeodesicLength=2.2186167636054486 rxn_smarts="[C:1]([C@@:2]1([H:9])[C:3]([H:10])([H:11])[N:4]1[C:5]([H:12])([H:13])[H:14])([H:6])([H:7])[H:8]>>[C:1]([C:2](=[C:3]([H:10])[H:11])[H:9])([H:6])([H:7])[H:8].[N:4](=[C:5]([H:12])[H:14])[H:13]"
C       -1.68715966       0.62235410      -0.42313765
C       -0.75986472       0.14379727       0.65302599
C       -0.37368312      -1.19425000       0.80455516
N        1.14858433       0.04235301       0.15451561
C        2.18369172       0.31000649      -0.61385571
H       -2.70475901       0.73602242      -0.04124678
H       -1.35936589       1.59649098      -0.79375267
H       -1.71452625      -0.07381150      -1.26228764
H       -0.74263328       0.76084424       1.55138053
H       -0.66735579      -1.94931347       0.08145295
H       -0.05470275      -1.58223238       1.76734945
H        2.67239141       1.24546698      -0.31748711
H        2.14904221      -0.87757045       0.10829310
H        1.91034081       0.21984231      -1.66880523
