14
Frame=0 idx=000830 GeodesicLength=0.0 rxn_smarts="[C:1]1([H:7])([H:8])[C@@:2]2([H:9])[C:3]([H:10])([H:11])[C:4]([H:12])=[C:5]([H:13])[C@@:6]12[H:14]>>[C:1]12([H:8])[C:2]3([H:9])[C:3]([H:11])=[C:4]([H:12])[C:5]1([H:13])[C:6]23[H:14].[H:7][H:10]"
C       -1.36860853       0.26533489      -0.02148162
C       -0.21564530       0.37190349      -0.99370077
C        1.08312902       0.59782172      -0.39859895
C        1.32107096      -0.40201533       0.57268510
C        0.24495129      -1.22397990       0.65380373
C       -0.75467121      -0.96782799      -0.42765008
H       -0.52369651       1.29007784       0.98898035
H       -2.40340775       0.50961824      -0.23681156
H       -0.45520232       0.73563611      -1.98457635
H        0.24729413       1.65680312       0.95375347
H        1.84058896       1.24709446      -0.81685269
H        2.14342542      -0.38404943       1.27374017
H        0.04304712      -1.92951231       1.44948352
H       -1.20227528      -1.76690495      -1.01277433
14
Frame=1 idx=000830 GeodesicLength=0.07656260665333675 rxn_smarts="[C:1]1([H:7])([H:8])[C@@:2]2([H:9])[C:3]([H:10])([H:11])[C:4]([H:12])=[C:5]([H:13])[C@@:6]12[H:14]>>[C:1]12([H:8])[C:2]3([H:9])[C:3]([H:11])=[C:4]([H:12])[C:5]1([H:13])[C:6]23[H:14].[H:7][H:10]"
C       -1.36110326       0.25617633      -0.01180746
C       -0.21559159       0.37136637      -0.99326476
C        1.08213982       0.60851654      -0.38868672
C        1.32024818      -0.40139260       0.57280323
C        0.23372154      -1.21498947       0.65824380
C       -0.74895509      -0.97269351      -0.44093813
H       -0.53575679       1.30279942       0.99276451
H       -2.39780283       0.49723650      -0.22125817
H       -0.45788292       0.73745932      -1.98244077
H        0.25090084       1.67738230       0.95175569
H        1.84928464       1.23080302      -0.82995202
H        2.14290222      -0.39067924       1.27382472
H        0.03451334      -1.93112101       1.44490547
H       -1.19661810      -1.77086397      -1.02594940
14
Frame=2 idx=000830 GeodesicLength=0.15312783450959294 rxn_smarts="[C:1]1([H:7])([H:8])[C@@:2]2([H:9])[C:3]([H:10])([H:11])[C:4]([H:12])=[C:5]([H:13])[C@@:6]12[H:14]>>[C:1]12([H:8])[C:2]3([H:9])[C:3]([H:11])=[C:4]([H:12])[C:5]1([H:13])[C:6]23[H:14].[H:7][H:10]"
C       -1.35349369       0.24733469      -0.00229070
C       -0.21544041       0.37073193      -0.99282355
C        1.08123142       0.61915861      -0.37882530
C        1.31944773      -0.40078545       0.57282902
C        0.22279147      -1.20629102       0.66226892
C       -0.74331582      -0.97723652      -0.45362875
H       -0.54822663       1.31532853       0.99650844
H       -2.39202309       0.48509376      -0.20607874
H       -0.46037266       0.73882073      -1.98044913
H        0.25473427       1.69816342       0.94951478
H        1.85706513       1.21433853      -0.84218709
H        2.14230529      -0.39730448       1.27385407
H        0.02650326      -1.93291740       1.43984940
H       -1.19120628      -1.77443533      -1.03854138
14
Frame=3 idx=000830 GeodesicLength=0.22969511476285417 rxn_smarts="[C:1]1([H:7])([H:8])[C@@:2]2([H:9])[C:3]([H:10])([H:11])[C:4]([H:12])=[C:5]([H:13])[C@@:6]12[H:14]>>[C:1]12([H:8])[C:2]3([H:9])[C:3]([H:11])=[C:4]([H:12])[C:5]1([H:13])[C:6]23[H:14].[H:7][H:10]"
C       -1.34577933       0.23879222       0.00707161
C       -0.21519702       0.36997919      -0.99239363
C        1.08041560       0.62968262      -0.36905973
C        1.31868719      -0.40023082       0.57273655
C        0.21216950      -1.19792397       0.66587828
C       -0.73777406      -0.98150100      -0.46576593
H       -0.56107188       1.32760323       1.00022278
H       -2.38606992       0.47319654      -0.19124771
H       -0.46268024       0.73973337      -1.97860768
H        0.25886814       1.71912934       0.94697569
H        1.86391680       1.19792224      -0.85345566
H        2.14165017      -0.40394244       1.27380572
H        0.01892743      -1.93478440       1.43443664
H       -1.18606238      -1.77765614      -1.05059693
14
Frame=4 idx=000830 GeodesicLength=0.30626702433107805 rxn_smarts="[C:1]1([H:7])([H:8])[C@@:2]2([H:9])[C:3]([H:10])([H:11])[C:4]([H:12])=[C:5]([H:13])[C@@:6]12[H:14]>>[C:1]12([H:8])[C:2]3([H:9])[C:3]([H:11])=[C:4]([H:12])[C:5]1([H:13])[C:6]23[H:14].[H:7][H:10]"
C       -1.33796513       0.23052930       0.01628417
C       -0.21486862       0.36909443      -0.99198888
C        1.07970070       0.64003692      -0.35942317
C        1.31798337      -0.39976007       0.57250831
C        0.20186068      -1.18992201       0.66907515
C       -0.73234932      -0.98552747      -0.47739258
H       -0.57427051       1.33956713       1.00392635
H       -2.37995329       0.46154455      -0.17673901
H       -0.46481586       0.74021856      -1.97692096
H        0.26336817       1.74027468       0.94408466
H        1.86986376       1.18174738      -0.86369989
H        2.14094903      -0.41060311       1.27367190
H        0.01170409      -1.93663836       1.42877514
H       -1.18120707      -1.78056194      -1.06216118
14
Frame=5 idx=000830 GeodesicLength=0.3828488973570581 rxn_smarts="[C:1]1([H:7])([H:8])[C@@:2]2([H:9])[C:3]([H:10])([H:11])[C:4]([H:12])=[C:5]([H:13])[C@@:6]12[H:14]>>[C:1]12([H:8])[C:2]3([H:9])[C:3]([H:11])=[C:4]([H:12])[C:5]1([H:13])[C:6]23[H:14].[H:7][H:10]"
C       -1.33005226       0.22252671       0.02535126
C       -0.21446044       0.36806331      -0.99161364
C        1.07908215       0.65018494      -0.34992523
C        1.31733902      -0.39939352       0.57213293
C        0.19185627      -1.18229600       0.67187282
C       -0.72705571      -0.98935188      -0.48854672
H       -0.58782037       1.35119132       1.00762559
H       -2.37366984       0.45013192      -0.16253753
H       -0.46677977       0.74028410      -1.97538525
H        0.26830368       1.76159159       0.94083260
H        1.87492955       1.16597770      -0.87290834
H        2.14021289      -0.41730639       1.27342826
H        0.00476203      -1.93841489       1.42295052
H       -1.17664720      -1.78318891      -1.07327727
14
Frame=6 idx=000830 GeodesicLength=0.45942700686498106 rxn_smarts="[C:1]1([H:7])([H:8])[C@@:2]2([H:9])[C:3]([H:10])([H:11])[C:4]([H:12])=[C:5]([H:13])[C@@:6]12[H:14]>>[C:1]12([H:8])[C:2]3([H:9])[C:3]([H:11])=[C:4]([H:12])[C:5]1([H:13])[C:6]23[H:14].[H:7][H:10]"
C       -1.32205121       0.21476967       0.03428113
C       -0.21398182       0.36688298      -0.99127619
C        1.07856431       0.66008670      -0.34059309
C        1.31677441      -0.39915926       0.57159442
C        0.18216502      -1.17507451       0.67427122
C       -0.72190626      -0.99300357      -0.49926383
H       -0.60171333       1.36240921       1.01137583
H       -2.36723593       0.43897417      -0.14862220
H       -0.46858339       0.73995872      -1.97399764
H        0.27372212       1.78309473       0.93711460
H        1.87917264       1.15074587      -0.88104818
H        2.13942786      -0.42402451       1.27310396
H       -0.00194655      -1.94009954       1.41702583
H       -1.17240788      -1.78556067      -1.08396586
14
Frame=7 idx=000830 GeodesicLength=0.5359840688438173 rxn_smarts="[C:1]1([H:7])([H:8])[C@@:2]2([H:9])[C:3]([H:10])([H:11])[C:4]([H:12])=[C:5]([H:13])[C@@:6]12[H:14]>>[C:1]12([H:8])[C:2]3([H:9])[C:3]([H:11])=[C:4]([H:12])[C:5]1([H:13])[C:6]23[H:14].[H:7][H:10]"
C       -1.31396769       0.20723091       0.04307207
C       -0.21344965       0.36555781      -0.99096491
C        1.07812335       0.66973960      -0.33139315
C        1.31627896      -0.39904710       0.57091735
C        0.17277790      -1.16824046       0.67629210
C       -0.71690793      -0.99649217      -0.50958184
H       -0.61596608       1.37317021       1.01518093
H       -2.36065845       0.42802773      -0.13498535
H       -0.47024992       0.73927725      -1.97273410
H        0.27966917       1.80478930       0.93294738
H        1.88267182       1.13606983      -0.88821569
H        2.13861139      -0.43077551       1.27269648
H       -0.00846599      -1.94163053       1.41105806
H       -1.16846688      -1.78767686      -1.09428932
14
Frame=8 idx=000830 GeodesicLength=0.6125566082684587 rxn_smarts="[C:1]1([H:7])([H:8])[C@@:2]2([H:9])[C:3]([H:10])([H:11])[C:4]([H:12])=[C:5]([H:13])[C@@:6]12[H:14]>>[C:1]12([H:8])[C:2]3([H:9])[C:3]([H:11])=[C:4]([H:12])[C:5]1([H:13])[C:6]23[H:14].[H:7][H:10]"
C       -1.30581977       0.19989878       0.05173978
C       -0.21286330       0.36409651      -0.99068269
C        1.07776573       0.67914068      -0.32233097
C        1.31585838      -0.39906553       0.57010229
C        0.16367824      -1.16180599       0.67795878
C       -0.71206721      -0.99985143      -0.51953042
H       -0.63061369       1.38346869       1.01909157
H       -2.35396369       0.41728594      -0.12159848
H       -0.47176989       0.73827482      -1.97159455
H        0.28619598       1.82672891       0.92827983
H        1.88549946       1.12201847      -0.89445468
H        2.13776324      -0.43755505       1.27221459
H       -0.01484215      -1.94305057       1.40508499
H       -1.16482134      -1.78958424      -1.10428005
14
Frame=9 idx=000830 GeodesicLength=0.6891312504074483 rxn_smarts="[C:1]1([H:7])([H:8])[C@@:2]2([H:9])[C:3]([H:10])([H:11])[C:4]([H:12])=[C:5]([H:13])[C@@:6]12[H:14]>>[C:1]12([H:8])[C:2]3([H:9])[C:3]([H:11])=[C:4]([H:12])[C:5]1([H:13])[C:6]23[H:14].[H:7][H:10]"
C       -1.29761680       0.19275674       0.06028862
C       -0.21223425       0.36250812      -0.99041956
C        1.07747777       0.68828792      -0.31338813
C        1.31550817      -0.39920916       0.56916467
C        0.15485613      -1.15575835       0.67929199
C       -0.70738617      -1.00308978      -0.52913729
H       -0.64568486       1.39326170       1.02314333
H       -2.34716229       0.40673078      -0.10845504
H       -0.47315570       0.73698212      -1.97055965
H        0.29335218       1.84894339       0.92306920
H        1.88771880       1.10859377      -0.89982631
H        2.13687934      -0.44435383       1.27167615
H       -0.02109221      -1.94436607       1.39912267
H       -1.16146010      -1.79128737      -1.11397065
14
Frame=10 idx=000830 GeodesicLength=0.76570689215373 rxn_smarts="[C:1]1([H:7])([H:8])[C@@:2]2([H:9])[C:3]([H:10])([H:11])[C:4]([H:12])=[C:5]([H:13])[C@@:6]12[H:14]>>[C:1]12([H:8])[C:2]3([H:9])[C:3]([H:11])=[C:4]([H:12])[C:5]1([H:13])[C:6]23[H:14].[H:7][H:10]"
C       -1.28937136       0.18578977       0.06872470
C       -0.21157111       0.36080434      -0.99016646
C        1.07724983       0.69718541      -0.30454744
C        1.31522387      -0.39947156       0.56812001
C        0.14629839      -1.15008674       0.68031412
C       -0.70286542      -1.00621772      -0.53842794
H       -0.66121899       1.40251317       1.02737838
H       -2.34026983       0.39634371      -0.09554766
H       -0.47441422       0.73543109      -1.96961360
H        0.30119355       1.87147457       0.91727170
H        1.88939091       1.09579161      -0.90439352
H        2.13595811      -0.45116524       1.27109600
H       -0.02723416      -1.94559490       1.39318393
H       -1.15836958      -1.79279751      -1.12339221
14
Frame=11 idx=000830 GeodesicLength=0.842282545162018 rxn_smarts="[C:1]1([H:7])([H:8])[C@@:2]2([H:9])[C:3]([H:10])([H:11])[C:4]([H:12])=[C:5]([H:13])[C@@:6]12[H:14]>>[C:1]12([H:8])[C:2]3([H:9])[C:3]([H:11])=[C:4]([H:12])[C:5]1([H:13])[C:6]23[H:14].[H:7][H:10]"
C       -1.28109627       0.17898331       0.07705452
C       -0.21088260       0.35899895      -0.98991297
C        1.07707265       0.70584002      -0.29579078
C        1.31499913      -0.39984367       0.56698643
C        0.13799104      -1.14477929       0.68104713
C       -0.69850372      -1.00924312      -0.54742622
H       -0.67726069       1.41118365       1.03184431
H       -2.33330239       0.38610399      -0.08286944
H       -0.47555291       0.73365512      -1.96873944
H        0.30978240       1.89437227       0.91083553
H        1.89057275       1.08359222      -0.90821970
H        2.13499504      -0.45798015       1.27049271
H       -0.03328102      -1.94675991       1.38727319
H       -1.15553343      -1.79412338      -1.13257528
14
Frame=12 idx=000830 GeodesicLength=0.9188578359742541 rxn_smarts="[C:1]1([H:7])([H:8])[C@@:2]2([H:9])[C:3]([H:10])([H:11])[C:4]([H:12])=[C:5]([H:13])[C@@:6]12[H:14]>>[C:1]12([H:8])[C:2]3([H:9])[C:3]([H:11])=[C:4]([H:12])[C:5]1([H:13])[C:6]23[H:14].[H:7][H:10]"
C       -1.27280479       0.17232314       0.08528419
C       -0.21017741       0.35710687      -0.98964787
C        1.07693733       0.71426025      -0.28709969
C        1.31482635      -0.40031500       0.56578332
C        0.12991935      -1.13982336       0.68151250
C       -0.69429825      -1.01217190      -0.55615429
H       -0.69386104       1.41922974       1.03659360
H       -2.32627643       0.37598959      -0.07041607
H       -0.47657884       0.73168683      -1.96792014
H        0.31919109       1.91769175       0.90370144
H        1.89131403       1.07196954      -0.91136324
H        2.13398556      -0.46479039       1.26988436
H       -0.03924339      -1.94788486       1.38139063
H       -1.15293357      -1.79527221      -1.14154872
14
Frame=13 idx=000830 GeodesicLength=0.9954323654589996 rxn_smarts="[C:1]1([H:7])([H:8])[C@@:2]2([H:9])[C:3]([H:10])([H:11])[C:4]([H:12])=[C:5]([H:13])[C@@:6]12[H:14]>>[C:1]12([H:8])[C:2]3([H:9])[C:3]([H:11])=[C:4]([H:12])[C:5]1([H:13])[C:6]23[H:14].[H:7][H:10]"
C       -1.26451032       0.16579498       0.09342008
C       -0.20946466       0.35514440      -0.98935902
C        1.07683550       0.72245522      -0.27845602
C        1.31469653      -0.40087372       0.56453179
C        0.12206842      -1.13520682       0.68173000
C       -0.69024490      -1.01500808      -0.56463343
H       -0.71107617       1.42660126       1.04168568
H       -2.31920880       0.36597608      -0.05818342
H       -0.47750021       0.72955999      -1.96713764
H        0.32950373       1.94149558       0.89579772
H        1.89165892       1.06089027      -0.91387849
H        2.13292171      -0.47158526       1.26929303
H       -0.04512973      -1.94899490       1.37553131
H       -1.15055002      -1.79624899      -1.15034159
14
Frame=14 idx=000830 GeodesicLength=1.0720058626784505 rxn_smarts="[C:1]1([H:7])([H:8])[C@@:2]2([H:9])[C:3]([H:10])([H:11])[C:4]([H:12])=[C:5]([H:13])[C@@:6]12[H:14]>>[C:1]12([H:8])[C:2]3([H:9])[C:3]([H:11])=[C:4]([H:12])[C:5]1([H:13])[C:6]23[H:14].[H:7][H:10]"
C       -1.25622657       0.15938419       0.10146866
C       -0.20875403       0.35312900      -0.98903341
C        1.07675916       0.73043439      -0.26984194
C        1.31459944      -0.40150709       0.56325448
C        0.11442326      -1.13091848       0.68171753
C       -0.68633839      -1.01775404      -0.57288430
H       -0.72896808       1.43323940       1.04718833
H       -2.31211680       0.35603661      -0.04616829
H       -0.47832614       0.72730921      -1.96637298
H        0.34081869       1.96585366       0.88703830
H        1.89164579       1.05031739      -0.91581418
H        2.13179274      -0.47835219       1.26874412
H       -0.05094755      -1.95011523       1.36968687
H       -1.14836150      -1.79705682      -1.15898318
14
Frame=15 idx=000830 GeodesicLength=1.148578300336888 rxn_smarts="[C:1]1([H:7])([H:8])[C@@:2]2([H:9])[C:3]([H:10])([H:11])[C:4]([H:12])=[C:5]([H:13])[C@@:6]12[H:14]>>[C:1]12([H:8])[C:2]3([H:9])[C:3]([H:11])=[C:4]([H:12])[C:5]1([H:13])[C:6]23[H:14].[H:7][H:10]"
C       -1.24796795       0.15307564       0.10943641
C       -0.20805595       0.35107948      -0.98865700
C        1.07670026       0.73820765      -0.26123947
C        1.31452337      -0.40220135       0.56197584
C        0.10696864      -1.12694819       0.68149118
C       -0.68257236      -1.02041060      -0.58092712
H       -0.74760602       1.43907503       1.05317887
H       -2.30501847       0.34614170      -0.03436881
H       -0.47906670       0.72497017      -1.96560621
H        0.35325133       1.99084362       0.87732063
H        1.89130735       1.04021194      -0.91721306
H        2.13058552      -0.48507755       1.26826569
H       -0.05670423      -1.95127047       1.36384650
H       -1.14634479      -1.79769706      -1.16750344
14
Frame=16 idx=000830 GeodesicLength=1.2251499043883827 rxn_smarts="[C:1]1([H:7])([H:8])[C@@:2]2([H:9])[C:3]([H:10])([H:11])[C:4]([H:12])=[C:5]([H:13])[C@@:6]12[H:14]>>[C:1]12([H:8])[C:2]3([H:9])[C:3]([H:11])=[C:4]([H:12])[C:5]1([H:13])[C:6]23[H:14].[H:7][H:10]"
C       -1.23974952       0.14685330       0.11733037
C       -0.20738198       0.34901637      -0.98821442
C        1.07665079       0.74578494      -0.25263066
C        1.31445504      -0.40294175       0.56072263
C        0.09968933      -1.12328767       0.68106460
C       -0.67893953      -1.02297694      -0.58878228
H       -0.76706635       1.44402567       1.05974713
H       -2.29793276       0.33625850      -0.02278317
H       -0.47973381       0.72258113      -1.96481550
H        0.36693701       2.01655252       0.86651969
H        1.89067164       1.03053245      -0.91811240
H        2.12928191      -0.49174362       1.26789246
H       -0.06240690      -1.95248609       1.35799581
H       -1.14447488      -1.79816881      -1.17593426
