14
Frame=0 idx=005372 GeodesicLength=0.0 rxn_smarts="[C:1]([C:2]#[C:3][C:4]([C:5]([O:6][H:14])([H:12])[H:13])([H:10])[H:11])([H:7])([H:8])[H:9]>>[C:1]([C:2]/[C:3](=[C:4](/[C:5]([O:6][H:14])([H:12])[H:13])[H:11])[H:10])([H:7])([H:8])[H:9]"
C        2.64859496       0.26623449      -0.47775148
C        1.56127088      -0.13913609       0.43750452
C        0.30495570      -0.33409797       0.22782554
C       -0.94591849      -0.91790472       0.22617973
C       -2.21697767      -0.11926789       0.31406106
O       -2.01788186       1.26658455       0.24636914
H        3.12929681       1.17661254      -0.11394665
H        3.42336404      -0.50472159      -0.43893954
H        2.35813430       0.40806818      -1.52618934
H       -0.21424384       0.16599183      -0.70155700
H       -1.05160568      -1.99874315       0.14858773
H       -2.90529613      -0.37376763      -0.49573495
H       -2.71633388      -0.40874965       1.25258124
H       -1.35735914       1.51289708       0.90101005
14
Frame=1 idx=005372 GeodesicLength=0.057038406365357945 rxn_smarts="[C:1]([C:2]#[C:3][C:4]([C:5]([O:6][H:14])([H:12])[H:13])([H:10])[H:11])([H:7])([H:8])[H:9]>>[C:1]([C:2]/[C:3](=[C:4](/[C:5]([O:6][H:14])([H:12])[H:13])[H:11])[H:10])([H:7])([H:8])[H:9]"
C        2.65951439       0.25894274      -0.47087917
C        1.56354505      -0.16085926       0.42595321
C        0.30139948      -0.31711987       0.21550134
C       -0.94661444      -0.90736674       0.19857054
C       -2.22145166      -0.12082534       0.32428699
O       -2.04139020       1.26682842       0.23936331
H        3.13311227       1.16386764      -0.08390975
H        3.43536594      -0.51100623      -0.43944916
H        2.37815780       0.42214501      -1.51853903
H       -0.22908630       0.16708855      -0.73232692
H       -1.04147854      -1.99051667       0.14646146
H       -2.92986234      -0.39003046      -0.46317347
H       -2.68929189      -0.40877275       1.27917003
H       -1.37191956       1.52762494       0.87897062
14
Frame=2 idx=005372 GeodesicLength=0.11375912786614117 rxn_smarts="[C:1]([C:2]#[C:3][C:4]([C:5]([O:6][H:14])([H:12])[H:13])([H:10])[H:11])([H:7])([H:8])[H:9]>>[C:1]([C:2]/[C:3](=[C:4](/[C:5]([O:6][H:14])([H:12])[H:13])[H:11])[H:10])([H:7])([H:8])[H:9]"
C        2.66978192       0.25230763      -0.46334597
C        1.56449909      -0.18401509       0.41253000
C        0.29773434      -0.30188611       0.20065674
C       -0.94801658      -0.89739457       0.17137582
C       -2.22497831      -0.12204481       0.33517122
O       -2.06386219       1.26685326       0.23196324
H        3.13509930       1.15072686      -0.05104299
H        3.44724024      -0.51607796      -0.43990274
H        2.39863655       0.43884973      -1.50967245
H       -0.24505272       0.16566127      -0.76527252
H       -1.03264148      -1.98218265       0.14475886
H       -2.95345851      -0.40646877      -0.42831903
H       -2.66014500      -0.40669326       1.30615132
H       -1.38483664       1.54236448       0.85494848
14
Frame=3 idx=005372 GeodesicLength=0.17020270272253424 rxn_smarts="[C:1]([C:2]#[C:3][C:4]([C:5]([O:6][H:14])([H:12])[H:13])([H:10])[H:11])([H:7])([H:8])[H:9]>>[C:1]([C:2]/[C:3](=[C:4](/[C:5]([O:6][H:14])([H:12])[H:13])[H:11])[H:10])([H:7])([H:8])[H:9]"
C        2.67945391       0.24609051      -0.45533775
C        1.56425106      -0.20754456       0.39751205
C        0.29403620      -0.28789267       0.18370954
C       -0.94996136      -0.88781159       0.14482485
C       -2.22758012      -0.12296782       0.34660106
O       -2.08557514       1.26667399       0.22481693
H        3.13533493       1.13727218      -0.01666708
H        3.45900062      -0.52022096      -0.43958894
H        2.41955573       0.45675069      -1.49985842
H       -0.26221899       0.16222792      -0.79985682
H       -1.02466737      -1.97358909       0.14271733
H       -2.97561442      -0.42283636      -0.39171480
H       -2.62932568      -0.40306657       1.33297998
H       -1.39668937       1.55691433       0.82986208
14
Frame=4 idx=005372 GeodesicLength=0.2263536837336387 rxn_smarts="[C:1]([C:2]#[C:3][C:4]([C:5]([O:6][H:14])([H:12])[H:13])([H:10])[H:11])([H:7])([H:8])[H:9]>>[C:1]([C:2]/[C:3](=[C:4](/[C:5]([O:6][H:14])([H:12])[H:13])[H:11])[H:10])([H:7])([H:8])[H:9]"
C        2.68848423       0.24023606      -0.44697028
C        1.56293653      -0.23088952       0.38102083
C        0.29039589      -0.27486411       0.16508249
C       -0.95230435      -0.87855055       0.11925972
C       -2.22923219      -0.12362607       0.35839612
O       -2.10661028       1.26627842       0.21802487
H        3.13437496       1.12308591       0.01879310
H        3.47013269      -0.52372480      -0.43886915
H        2.44057973       0.47590543      -1.48887560
H       -0.28056508       0.15684956      -0.83569375
H       -1.01721423      -1.96472971       0.14049651
H       -2.99589748      -0.43907309      -0.35389391
H       -2.59724068      -0.39810004       1.35919579
H       -1.40783975       1.57120251       0.80403325
14
Frame=5 idx=005372 GeodesicLength=0.28230670507380423 rxn_smarts="[C:1]([C:2]#[C:3][C:4]([C:5]([O:6][H:14])([H:12])[H:13])([H:10])[H:11])([H:7])([H:8])[H:9]>>[C:1]([C:2]/[C:3](=[C:4](/[C:5]([O:6][H:14])([H:12])[H:13])[H:11])[H:10])([H:7])([H:8])[H:9]"
C        2.69687170       0.23498405      -0.43819193
C        1.56073088      -0.25440381       0.36294077
C        0.28685138      -0.26321501       0.14471052
C       -0.95514578      -0.86990283       0.09488918
C       -2.22995141      -0.12390119       0.37055630
O       -2.12671981       1.26569980       0.21117260
H        3.13228899       1.10778577       0.05619235
H        3.48068274      -0.52647765      -0.43869072
H        2.46149621       0.49770029      -1.47633531
H       -0.30014941       0.14876508      -0.87290074
H       -1.01058817      -1.95594337       0.13861040
H       -3.01441526      -0.45507519      -0.31476308
H       -2.56396839      -0.39128774       1.38490813
H       -1.41798367       1.58527181       0.77690153
14
Frame=6 idx=005372 GeodesicLength=0.3381117648014641 rxn_smarts="[C:1]([C:2]#[C:3][C:4]([C:5]([O:6][H:14])([H:12])[H:13])([H:10])[H:11])([H:7])([H:8])[H:9]>>[C:1]([C:2]/[C:3](=[C:4](/[C:5]([O:6][H:14])([H:12])[H:13])[H:11])[H:10])([H:7])([H:8])[H:9]"
C        2.70506130       0.22881214      -0.42960309
C        1.55754602      -0.27378111       0.34535634
C        0.28333404      -0.25005696       0.12364183
C       -0.95774355      -0.86029457       0.07050004
C       -2.23001758      -0.12437609       0.38276022
O       -2.14762894       1.26489382       0.20755062
H        3.12879512       1.09393052       0.08867948
H        3.49123128      -0.52997142      -0.43308279
H        2.48354992       0.51253337      -1.46513706
H       -0.32093674       0.14262444      -0.90970105
H       -1.00279604      -1.94596272       0.13324854
H       -3.03051197      -0.47062197      -0.27607209
H       -2.53020958      -0.38617507       1.40883929
H       -1.42967328       1.59844561       0.75301972
14
Frame=7 idx=005372 GeodesicLength=0.393293026284234 rxn_smarts="[C:1]([C:2]#[C:3][C:4]([C:5]([O:6][H:14])([H:12])[H:13])([H:10])[H:11])([H:7])([H:8])[H:9]>>[C:1]([C:2]/[C:3](=[C:4](/[C:5]([O:6][H:14])([H:12])[H:13])[H:11])[H:10])([H:7])([H:8])[H:9]"
C        2.71273066       0.22264445      -0.42095439
C        1.55359180      -0.29128838       0.32747325
C        0.27992091      -0.23703380       0.10161444
C       -0.96035479      -0.85064467       0.04691716
C       -2.22928469      -0.12475075       0.39494143
O       -2.16809553       1.26388886       0.20513221
H        3.12445808       1.07995815       0.12009007
H        3.50106397      -0.53361300      -0.42610466
H        2.50565659       0.52630245      -1.45367806
H       -0.34272627       0.13570535      -0.94664954
H       -0.99493537      -1.93560566       0.12721828
H       -3.04447964      -0.48573646      -0.23750164
H       -2.49607713      -0.38087589       1.43144529
H       -1.44146858       1.61104935       0.73005614
14
Frame=8 idx=005372 GeodesicLength=0.4485016508991166 rxn_smarts="[C:1]([C:2]#[C:3][C:4]([C:5]([O:6][H:14])([H:12])[H:13])([H:10])[H:11])([H:7])([H:8])[H:9]>>[C:1]([C:2]/[C:3](=[C:4](/[C:5]([O:6][H:14])([H:12])[H:13])[H:11])[H:10])([H:7])([H:8])[H:9]"
C        2.72003492       0.21616998      -0.41232208
C        1.54903477      -0.30633502       0.30990912
C        0.27660820      -0.22354453       0.07895548
C       -0.96297470      -0.84061387       0.02377779
C       -2.22787200      -0.12512955       0.40704110
O       -2.18856422       1.26271096       0.20457823
H        3.11930958       1.06666358       0.14908214
H        3.51034582      -0.53775460      -0.41654087
H        2.52803821       0.53706662      -1.44261331
H       -0.36554712       0.12897766      -0.98356188
H       -0.98662085      -1.92470435       0.11966862
H       -3.05629327      -0.50051744      -0.19935175
H       -2.46162408      -0.37604102       1.45256480
H       -1.45387526       1.62305157       0.70881261
14
Frame=9 idx=005372 GeodesicLength=0.5036021735710757 rxn_smarts="[C:1]([C:2]#[C:3][C:4]([C:5]([O:6][H:14])([H:12])[H:13])([H:10])[H:11])([H:7])([H:8])[H:9]>>[C:1]([C:2]/[C:3](=[C:4](/[C:5]([O:6][H:14])([H:12])[H:13])[H:11])[H:10])([H:7])([H:8])[H:9]"
C        2.72682621       0.20977826      -0.40349656
C        1.54392575      -0.32014983       0.29208766
C        0.27334503      -0.21039225       0.05524664
C       -0.96578473      -0.83063475       0.00115520
C       -2.22564937      -0.12533032       0.41917010
O       -2.20847631       1.26140463       0.20504763
H        3.11317131       1.05348849       0.17749983
H        3.51900942      -0.54193434      -0.40579646
H        2.55038724       0.54721064      -1.43116657
H       -0.38949607       0.12126239      -1.02082479
H       -0.97845615      -1.91365983       0.11141359
H       -3.06622011      -0.51493519      -0.16101265
H       -2.42644358      -0.37074462       1.47261534
H       -1.46613865       1.63463672       0.68806102
14
Frame=10 idx=005372 GeodesicLength=0.5586114323701172 rxn_smarts="[C:1]([C:2]#[C:3][C:4]([C:5]([O:6][H:14])([H:12])[H:13])([H:10])[H:11])([H:7])([H:8])[H:9]>>[C:1]([C:2]/[C:3](=[C:4](/[C:5]([O:6][H:14])([H:12])[H:13])[H:11])[H:10])([H:7])([H:8])[H:9]"
C        2.73312327       0.20336092      -0.39446750
C        1.53825397      -0.33249711       0.27420396
C        0.27010887      -0.19740047       0.03044602
C       -0.96876711      -0.82058190      -0.02124821
C       -2.22261529      -0.12540196       0.43132691
O       -2.22789137       1.25999247       0.20685353
H        3.10581941       1.04091576       0.20470699
H        3.52714178      -0.54615472      -0.39305724
H        2.57288802       0.55571090      -1.41966194
H       -0.41461438       0.11297710      -1.05834006
H       -0.97036452      -1.90242322       0.10200554
H       -3.07433313      -0.52894597      -0.12251257
H       -2.39042168      -0.36531754       1.49158324
H       -1.47832784       1.64576574       0.66816133
14
Frame=11 idx=005372 GeodesicLength=0.6134702671406171 rxn_smarts="[C:1]([C:2]#[C:3][C:4]([C:5]([O:6][H:14])([H:12])[H:13])([H:10])[H:11])([H:7])([H:8])[H:9]>>[C:1]([C:2]/[C:3](=[C:4](/[C:5]([O:6][H:14])([H:12])[H:13])[H:11])[H:10])([H:7])([H:8])[H:9]"
C        2.73880930       0.19722373      -0.38521624
C        1.53219997      -0.34419639       0.25591575
C        0.26694339      -0.18507088       0.00467910
C       -0.97195238      -0.81080241      -0.04299863
C       -2.21873975      -0.12519852       0.44340597
O       -2.24642205       1.25852240       0.20919906
H        3.09765822       1.02795609       0.23223456
H        3.53444874      -0.55029861      -0.38032667
H        2.59494164       0.56508042      -1.40727116
H       -0.44082799       0.10305268      -1.09613390
H       -0.96257860      -1.89127136       0.09268992
H       -3.08062835      -0.54249330      -0.08391924
H       -2.35378157      -0.35906672       1.50947850
H       -1.49007058       1.65656287       0.64826297
14
Frame=12 idx=005372 GeodesicLength=0.6682740478261919 rxn_smarts="[C:1]([C:2]#[C:3][C:4]([C:5]([O:6][H:14])([H:12])[H:13])([H:10])[H:11])([H:7])([H:8])[H:9]>>[C:1]([C:2]/[C:3](=[C:4](/[C:5]([O:6][H:14])([H:12])[H:13])[H:11])[H:10])([H:7])([H:8])[H:9]"
C        2.74399893       0.19098092      -0.37579828
C        1.52568156      -0.35431836       0.23786250
C        0.26379216      -0.17273542      -0.02198365
C       -0.97524136      -0.80085538      -0.06468909
C       -2.21406962      -0.12490882       0.45540210
O       -2.26441605       1.25697767       0.21304883
H        3.08822358       1.01599803       0.25801890
H        3.54122129      -0.55453201      -0.36522200
H        2.61711727       0.57212764      -1.39511324
H       -0.46817841       0.09284191      -1.13391472
H       -0.95476071      -1.87988378       0.08210572
H       -3.08510782      -0.55559932      -0.04549561
H       -2.31643194      -0.35297615       1.52616304
H       -1.50182887       1.66688307       0.62961549
14
Frame=13 idx=005372 GeodesicLength=0.7230747689495621 rxn_smarts="[C:1]([C:2]#[C:3][C:4]([C:5]([O:6][H:14])([H:12])[H:13])([H:10])[H:11])([H:7])([H:8])[H:9]>>[C:1]([C:2]/[C:3](=[C:4](/[C:5]([O:6][H:14])([H:12])[H:13])[H:11])[H:10])([H:7])([H:8])[H:9]"
C        2.74858087       0.18485462      -0.36605699
C        1.51870590      -0.36364405       0.21955773
C        0.26063274      -0.16090534      -0.04991253
C       -0.97878419      -0.79100123      -0.08636377
C       -2.20847960      -0.12440155       0.46742079
O       -2.28154704       1.25542834       0.21800035
H        3.07726067       1.00468256       0.28317567
H        3.54742858      -0.55853391      -0.34839279
H        2.63928127       0.57823569      -1.38266283
H       -0.49683688       0.08166344      -1.17197455
H       -0.94726548      -1.86852029       0.07057214
H       -3.08790851      -0.56818314      -0.00671426
H       -2.27795569      -0.34651623       1.54187652
H       -1.51311264       1.67684108       0.61147452
14
Frame=14 idx=005372 GeodesicLength=0.7777792581214071 rxn_smarts="[C:1]([C:2]#[C:3][C:4]([C:5]([O:6][H:14])([H:12])[H:13])([H:10])[H:11])([H:7])([H:8])[H:9]>>[C:1]([C:2]/[C:3](=[C:4](/[C:5]([O:6][H:14])([H:12])[H:13])[H:11])[H:10])([H:7])([H:8])[H:9]"
C        2.75247705       0.17899621      -0.35601915
C        1.51139048      -0.37250951       0.20083477
C        0.25748649      -0.14979750      -0.07895152
C       -0.98257064      -0.78139824      -0.10774411
C       -2.20195681      -0.12360054       0.47934177
O       -2.29756100       1.25390997       0.22368511
H        3.06502712       0.99338428       0.30838821
H        3.55288506      -0.56222778      -0.33097397
H        2.66102520       0.58469434      -1.36941200
H       -0.52676853       0.06894995      -1.21016304
H       -0.94016628      -1.85728364       0.05883355
H       -3.08898081      -0.58014995       0.03221791
H       -2.23859498      -0.33942606       1.55649441
H       -1.52369235       1.68645846       0.59346806
14
Frame=15 idx=005372 GeodesicLength=0.8325139640593675 rxn_smarts="[C:1]([C:2]#[C:3][C:4]([C:5]([O:6][H:14])([H:12])[H:13])([H:10])[H:11])([H:7])([H:8])[H:9]>>[C:1]([C:2]/[C:3](=[C:4](/[C:5]([O:6][H:14])([H:12])[H:13])[H:11])[H:10])([H:7])([H:8])[H:9]"
C        2.75572517       0.17319097      -0.34567373
C        1.50366190      -0.38043839       0.18210967
C        0.25432486      -0.13909987      -0.10913230
C       -0.98656515      -0.77179772      -0.12927573
C       -2.19449040      -0.12263123       0.49118412
O       -2.31258140       1.25244395       0.23073698
H        3.05105181       0.98328463       0.33227974
H        3.55774768      -0.56564405      -0.31115764
H        2.68276635       0.58932889      -1.35621778
H       -0.55803021       0.05556266      -1.24836922
H       -0.93333368      -1.84603247       0.04589035
H       -3.08833205      -0.59150674       0.07118490
H       -2.19817717      -0.33232107       1.56996936
H       -1.53376770       1.69566044       0.57647129
14
Frame=16 idx=005372 GeodesicLength=0.8873101184483279 rxn_smarts="[C:1]([C:2]#[C:3][C:4]([C:5]([O:6][H:14])([H:12])[H:13])([H:10])[H:11])([H:7])([H:8])[H:9]>>[C:1]([C:2]/[C:3](=[C:4](/[C:5]([O:6][H:14])([H:12])[H:13])[H:11])[H:10])([H:7])([H:8])[H:9]"
C        2.75802401       0.16801523      -0.33472863
C        1.49557871      -0.38924238       0.16185428
C        0.25110665      -0.13011361      -0.14125349
C       -0.99108339      -0.76292983      -0.15071660
C       -2.18575356      -0.12109079       0.50314547
O       -2.32581499       1.25123845       0.23802623
H        3.03488534       0.97253266       0.35804736
H        3.56193366      -0.56804459      -0.29150227
H        2.70388029       0.59646585      -1.34119169
H       -0.59106755       0.03950909      -1.28715602
H       -0.92752191      -1.83538535       0.03298440
H       -3.08604927      -0.60190430       0.11135728
H       -2.15590890      -0.32374179       1.58267476
H       -1.54220909       1.70469136       0.55845892
