12
Frame=0 idx=001892 GeodesicLength=0.0 rxn_smarts="[C:1]([C:2]([C:3](=[O:4])[N:5]([H:11])[H:12])([H:9])[H:10])([H:6])([H:7])[H:8]>>[C:1]([C@:2]1([H:9])/[C:3](=[N:5]/[H:11])[O:4]1)([H:6])([H:7])[H:8].[H:10][H:12]"
C       -1.38367016       0.36609795       0.50105544
C       -0.35021839      -0.36613764      -0.26702231
C        0.87356865       0.30340186      -0.74171709
O        0.39945430       0.96662121      -1.70016425
N        1.98420913       0.07128632      -0.14373744
H       -2.06349601      -0.32136422       1.00365796
H       -0.93894836       1.05951825       1.21249827
H       -1.96721740       0.93590392      -0.22672560
H       -0.67961143      -1.21061941      -0.86868440
H        0.30257448      -1.34686164       0.95378953
H        2.77891997       0.56185224      -0.53325042
H        1.04443523      -1.01969887       0.81030031
12
Frame=1 idx=001892 GeodesicLength=0.09743553321378035 rxn_smarts="[C:1]([C:2]([C:3](=[O:4])[N:5]([H:11])[H:12])([H:9])[H:10])([H:6])([H:7])[H:8]>>[C:1]([C@:2]1([H:9])/[C:3](=[N:5]/[H:11])[O:4]1)([H:6])([H:7])[H:8].[H:10][H:12]"
C       -1.40005430       0.36410924       0.49301954
C       -0.34791663      -0.35526927      -0.26402823
C        0.87818740       0.31541248      -0.72910328
O        0.38954367       1.01024071      -1.65673316
N        1.99134016       0.06774047      -0.13954515
H       -2.06624775      -0.33270820       1.00114201
H       -0.97062551       1.07303174       1.19853393
H       -1.99753927       0.91416741      -0.23849562
H       -0.66682012      -1.19873115      -0.87336693
H        0.31094345      -1.33586529       0.96042107
H        2.79972927       0.48819146      -0.57925334
H        1.07945963      -1.01031961       0.82740916
12
Frame=2 idx=001892 GeodesicLength=0.19483165972190822 rxn_smarts="[C:1]([C:2]([C:3](=[O:4])[N:5]([H:11])[H:12])([H:9])[H:10])([H:6])([H:7])[H:8]>>[C:1]([C@:2]1([H:9])/[C:3](=[N:5]/[H:11])[O:4]1)([H:6])([H:7])[H:8].[H:10][H:12]"
C       -1.41599875       0.36222703       0.48476102
C       -0.34556998      -0.34425019      -0.26106385
C        0.88281424       0.32741505      -0.71666930
O        0.38038613       1.05270983      -1.61244519
N        1.99905095       0.06377517      -0.13731088
H       -2.06899558      -0.34339139       0.99804413
H       -1.00200557       1.08575450       1.18464088
H       -2.02622129       0.89284762      -0.25046003
H       -0.65406886      -1.18654109      -0.87798068
H        0.32001431      -1.32421178       0.96716768
H        2.81435421       0.41448338      -0.62278235
H        1.11624018      -1.00081813       0.84409857
12
Frame=3 idx=001892 GeodesicLength=0.2922121238312292 rxn_smarts="[C:1]([C:2]([C:3](=[O:4])[N:5]([H:11])[H:12])([H:9])[H:10])([H:6])([H:7])[H:8]>>[C:1]([C@:2]1([H:9])/[C:3](=[N:5]/[H:11])[O:4]1)([H:6])([H:7])[H:8].[H:10][H:12]"
C       -1.43143675       0.36050601       0.47626207
C       -0.34326086      -0.33319127      -0.25809899
C        0.88741927       0.33911375      -0.70439333
O        0.37196287       1.09363176      -1.56738572
N        2.00723463       0.05867547      -0.13723660
H       -2.07180475      -0.35326507       0.99428743
H       -1.03285359       1.09763996       1.17084311
H       -2.05314289       0.87214499      -0.26265173
H       -0.64160713      -1.17411368      -0.88244282
H        0.32958359      -1.31192857       0.97414534
H        2.82312333       0.34229496      -0.66354871
H        1.15478229      -0.99150832       0.86021995
12
Frame=4 idx=001892 GeodesicLength=0.389786990811114 rxn_smarts="[C:1]([C:2]([C:3](=[O:4])[N:5]([H:11])[H:12])([H:9])[H:10])([H:6])([H:7])[H:8]>>[C:1]([C@:2]1([H:9])/[C:3](=[N:5]/[H:11])[O:4]1)([H:6])([H:7])[H:8].[H:10][H:12]"
C       -1.44675949       0.35880245       0.46748144
C       -0.34091641      -0.32196576      -0.25499022
C        0.89213629       0.35108892      -0.69175269
O        0.36441371       1.13358689      -1.52122546
N        2.01604291       0.05273156      -0.13902791
H       -2.07513563      -0.36280528       0.98959594
H       -1.06388339       1.10859758       1.15732028
H       -2.07865248       0.85203699      -0.27524266
H       -0.62900751      -1.16137671      -0.88677410
H        0.33966976      -1.29896369       0.98159983
H        2.82685913       0.27024140      -0.70327087
H        1.19523311      -0.98197435       0.87628642
12
Frame=5 idx=001892 GeodesicLength=0.4870732421413756 rxn_smarts="[C:1]([C:2]([C:3](=[O:4])[N:5]([H:11])[H:12])([H:9])[H:10])([H:6])([H:7])[H:8]>>[C:1]([C@:2]1([H:9])/[C:3](=[N:5]/[H:11])[O:4]1)([H:6])([H:7])[H:8].[H:10][H:12]"
C       -1.46162037       0.35715237       0.45838783
C       -0.33856249      -0.31069859      -0.25185299
C        0.89681028       0.36278637      -0.67899788
O        0.35763845       1.17219500      -1.47378932
N        2.02484585       0.04606755      -0.14244463
H       -2.07847818      -0.37180773       0.98404071
H       -1.09458219       1.11868368       1.14394409
H       -2.10243157       0.83241062      -0.28819258
H       -0.61645492      -1.14839977      -0.89105075
H        0.35010713      -1.28533164       0.98922189
H        2.82533108       0.19900431      -0.74129456
H        1.23739695      -0.97206217       0.89202820
12
Frame=6 idx=001892 GeodesicLength=0.5845504783154671 rxn_smarts="[C:1]([C:2]([C:3](=[O:4])[N:5]([H:11])[H:12])([H:9])[H:10])([H:6])([H:7])[H:8]>>[C:1]([C@:2]1([H:9])/[C:3](=[N:5]/[H:11])[O:4]1)([H:6])([H:7])[H:8].[H:10][H:12]"
C       -1.47629530       0.35563645       0.44901227
C       -0.33633890      -0.29952978      -0.24857240
C        0.90157597       0.37410932      -0.66609468
O        0.35170767       1.20923033      -1.42553031
N        2.03393336       0.03819281      -0.14760841
H       -2.08249735      -0.38023773       0.97759254
H       -1.12502948       1.12787257       1.13083402
H       -2.12470503       0.81379699      -0.30157175
H       -0.60421002      -1.13537212      -0.89506503
H        0.36076603      -1.27126416       0.99742417
H        2.81947548       0.12994324      -0.77784647
H        1.28161756      -0.96237792       0.90742607
12
Frame=7 idx=001892 GeodesicLength=0.6820462874242579 rxn_smarts="[C:1]([C:2]([C:3](=[O:4])[N:5]([H:11])[H:12])([H:9])[H:10])([H:6])([H:7])[H:8]>>[C:1]([C@:2]1([H:9])/[C:3](=[N:5]/[H:11])[O:4]1)([H:6])([H:7])[H:8].[H:10][H:12]"
C       -1.49072907       0.35423549       0.43931061
C       -0.33424534      -0.28848491      -0.24513975
C        0.90637238       0.38496880      -0.65297619
O        0.34658910       1.24465658      -1.37623684
N        2.04301314       0.02930925      -0.15426381
H       -2.08707297      -0.38813233       0.97018247
H       -1.15518166       1.13620173       1.11794438
H       -2.14544421       0.79610935      -0.31542981
H       -0.59224603      -1.12231642      -0.89882993
H        0.37155130      -1.25668776       1.00616558
H        2.80943975       0.06289877      -0.81310975
H        1.32795362      -0.95275854       0.92238305
12
Frame=8 idx=001892 GeodesicLength=0.7796183621748922 rxn_smarts="[C:1]([C:2]([C:3](=[O:4])[N:5]([H:11])[H:12])([H:9])[H:10])([H:6])([H:7])[H:8]>>[C:1]([C@:2]1([H:9])/[C:3](=[N:5]/[H:11])[O:4]1)([H:6])([H:7])[H:8].[H:10][H:12]"
C       -1.50498195       0.35295532       0.42927466
C       -0.33232747      -0.27760867      -0.24154311
C        0.91119682       0.39529225      -0.63965164
O        0.34226214       1.27842619      -1.32593577
N        2.05199733       0.01956604      -0.16222397
H       -2.09230596      -0.39551896       0.96181183
H       -1.18504122       1.14369128       1.10528424
H       -2.16475856       0.77941815      -0.32981188
H       -0.58062686      -1.10928026      -0.90233711
H        0.38238970      -1.24166177       1.01548939
H        2.79558359      -0.00210492      -0.84719712
H        1.37661245      -0.94317466       0.93684050
12
Frame=9 idx=001892 GeodesicLength=0.8771370318888291 rxn_smarts="[C:1]([C:2]([C:3](=[O:4])[N:5]([H:11])[H:12])([H:9])[H:10])([H:6])([H:7])[H:8]>>[C:1]([C@:2]1([H:9])/[C:3](=[N:5]/[H:11])[O:4]1)([H:6])([H:7])[H:8].[H:10][H:12]"
C       -1.51898076       0.35185347       0.41890930
C       -0.33064035      -0.26702275      -0.23782136
C        0.91594198       0.40477792      -0.62635999
O        0.33862622       1.31035944      -1.27466848
N        2.06054799       0.00914416      -0.17129811
H       -2.09809817      -0.40230415       0.95255232
H       -1.21442091       1.15043278       1.09278119
H       -2.18263143       0.76383478      -0.34465082
H       -0.56948482      -1.09642523      -0.90552712
H        0.39316237      -1.22636668       1.02526257
H        2.77828270      -0.06470128      -0.87972750
H        1.42769518      -0.93358248       0.95054799
12
Frame=10 idx=001892 GeodesicLength=0.9747041212198922 rxn_smarts="[C:1]([C:2]([C:3](=[O:4])[N:5]([H:11])[H:12])([H:9])[H:10])([H:6])([H:7])[H:8]>>[C:1]([C@:2]1([H:9])/[C:3](=[N:5]/[H:11])[O:4]1)([H:6])([H:7])[H:8].[H:10][H:12]"
C       -1.53284245       0.35090446       0.40820417
C       -0.32922501      -0.25672861      -0.23392995
C        0.92062867       0.41353454      -0.61294068
O        0.33569650       1.34046283      -1.22243830
N        2.06875682      -0.00191311      -0.18139154
H       -2.10464823      -0.40858478       0.94233221
H       -1.24342823       1.15640890       1.08050106
H       -2.19920834       0.74940195      -0.36001921
H       -0.55884060      -1.08373088      -0.90843538
H        0.40378009      -1.21086596       1.03553989
H        2.75782507      -0.12514167      -0.91103744
H        1.48150572      -0.92374766       0.96361519
12
Frame=11 idx=001892 GeodesicLength=1.0722838110988948 rxn_smarts="[C:1]([C:2]([C:3](=[O:4])[N:5]([H:11])[H:12])([H:9])[H:10])([H:6])([H:7])[H:8]>>[C:1]([C@:2]1([H:9])/[C:3](=[N:5]/[H:11])[O:4]1)([H:6])([H:7])[H:8].[H:10][H:12]"
C       -1.54657695       0.35011639       0.39714640
C       -0.32811175      -0.24677471      -0.22986842
C        0.92520367       0.42149450      -0.59940623
O        0.33342940       1.36870482      -1.16916868
N        2.07648629      -0.01353825      -0.19241697
H       -2.11197096      -0.41438150       0.93111575
H       -1.27205304       1.16164628       1.06843754
H       -2.21453365       0.73617224      -0.37591849
H       -0.54872769      -1.07123908      -0.91107125
H        0.41413466      -1.19531385       1.04623182
H        2.73441204      -0.18356248      -0.94109234
H        1.53830799      -0.91332437       0.97601087
12
Frame=12 idx=001892 GeodesicLength=1.16987550678449 rxn_smarts="[C:1]([C:2]([C:3](=[O:4])[N:5]([H:11])[H:12])([H:9])[H:10])([H:6])([H:7])[H:8]>>[C:1]([C@:2]1([H:9])/[C:3](=[N:5]/[H:11])[O:4]1)([H:6])([H:7])[H:8].[H:10][H:12]"
C       -1.56022356       0.34949282       0.38573175
C       -0.32733815      -0.23719944      -0.22564208
C        0.92963410       0.42863903      -0.58573421
O        0.33179582       1.39506581      -1.11480989
N        2.08367221      -0.02567149      -0.20429554
H       -2.12013145      -0.41973522       0.91886309
H       -1.30031156       1.16615129       1.05661935
H       -2.22868297       0.72422104      -0.39234838
H       -0.53918413      -1.05895803      -0.91348918
H        0.42410619      -1.17995324       1.05721065
H        2.70820658      -0.24022777      -0.96989262
H        1.59845693      -0.90182478       0.98778706
12
Frame=13 idx=001892 GeodesicLength=1.267429522923976 rxn_smarts="[C:1]([C:2]([C:3](=[O:4])[N:5]([H:11])[H:12])([H:9])[H:10])([H:6])([H:7])[H:8]>>[C:1]([C@:2]1([H:9])/[C:3](=[N:5]/[H:11])[O:4]1)([H:6])([H:7])[H:8].[H:10][H:12]"
C       -1.57376470       0.34903653       0.37397022
C       -0.32696921      -0.22807517      -0.22131445
C        0.93384738       0.43484247      -0.57202810
O        0.33076799       1.41948414      -1.05926267
N        2.09016733      -0.03828142      -0.21695728
H       -2.12914016      -0.42466841       0.90552907
H       -1.32809097       1.16988873       1.04510899
H       -2.24168078       0.71366712      -0.40923783
H       -0.53034681      -1.04690562      -0.91580529
H        0.43352688      -1.16516786       1.06818414
H        2.67937505      -0.29539313      -0.99725288
H        1.66230799      -0.88842739       0.99906607
12
Frame=14 idx=001892 GeodesicLength=1.3649999625086895 rxn_smarts="[C:1]([C:2]([C:3](=[O:4])[N:5]([H:11])[H:12])([H:9])[H:10])([H:6])([H:7])[H:8]>>[C:1]([C@:2]1([H:9])/[C:3](=[N:5]/[H:11])[O:4]1)([H:6])([H:7])[H:8].[H:10][H:12]"
C       -1.58727538       0.34878059       0.36184721
C       -0.32705358      -0.21944047      -0.21684900
C        0.93781412       0.44011618      -0.55813139
O        0.33032349       1.44186692      -1.00249991
N        2.09594156      -0.05139738      -0.23030404
H       -2.13913060      -0.42917525       0.89104297
H       -1.35546519       1.17289785       1.03392281
H       -2.25361140       0.70461322      -0.42662186
H       -0.52224019      -1.03506914      -0.91805513
H        0.44219273      -1.15125578       1.07908604
H        2.64799499      -0.34928174      -1.02311623
H        1.73050946      -0.87265502       1.00967853
12
Frame=15 idx=001892 GeodesicLength=1.4625761872056187 rxn_smarts="[C:1]([C:2]([C:3](=[O:4])[N:5]([H:11])[H:12])([H:9])[H:10])([H:6])([H:7])[H:8]>>[C:1]([C@:2]1([H:9])/[C:3](=[N:5]/[H:11])[O:4]1)([H:6])([H:7])[H:8].[H:10][H:12]"
C       -1.60078317       0.34875068       0.34935413
C       -0.32766567      -0.21135910      -0.21226435
C        0.94147149       0.44437576      -0.54397382
O        0.33044431       1.46210680      -0.94439768
N        2.10088721      -0.06506453      -0.24423538
H       -2.15019270      -0.43324880       0.87529850
H       -1.38240223       1.17515536       1.02311774
H       -2.26450806       0.69721228      -0.44447743
H       -0.51497079      -1.02341813      -0.92035164
H        0.44985674      -1.13867258       1.08967870
H        2.61409988      -0.40224313      -1.04727077
H        1.80376300      -0.85359461       1.01952200
12
Frame=16 idx=001892 GeodesicLength=1.5601579202516105 rxn_smarts="[C:1]([C:2]([C:3](=[O:4])[N:5]([H:11])[H:12])([H:9])[H:10])([H:6])([H:7])[H:8]>>[C:1]([C@:2]1([H:9])/[C:3](=[N:5]/[H:11])[O:4]1)([H:6])([H:7])[H:8].[H:10][H:12]"
C       -1.61433908       0.34898245       0.33648280
C       -0.32889130      -0.20389787      -0.20757408
C        0.94477160       0.44754922      -0.52940594
O        0.33113317       1.48007954      -0.88482071
N        2.10491599      -0.07934992      -0.25861391
H       -2.16246671      -0.43688030       0.85816179
H       -1.40889795       1.17664005       1.01277401
H       -2.27440642       0.69165134      -0.46278666
H       -0.50864241      -1.01189691      -0.92284724
H        0.45621006      -1.12798762       1.09969757
H        2.57763994      -0.45475668      -1.06943018
H        1.88297313      -0.83013329       1.02836255
