14
Frame=0 idx=005581 GeodesicLength=0.0 rxn_smarts="[C:1]1([H:7])([H:8])[C@:2]2([H:9])[C:3]([H:10])([H:11])[C:4]([H:12])([H:13])[C@@:5]1([H:14])[O:6]2>>[C:1]1([H:7])([H:8])[C@@:2]2([H:9])[C:3]([H:10])([H:11])[C:4]([H:12])=[C:5]1[O:6]2.[H:13][H:14]"
C        1.06146174       0.44360657      -0.59667944
C        0.26831408       1.08476466       0.56114351
C       -1.18859414       0.58278396       0.39003126
C       -0.78611605      -0.84738287       0.12236853
C        0.64757521      -0.78239108       0.24926205
O        0.78510771       0.07351755       1.44866889
H        0.68165983       0.52991678      -1.61383884
H        2.12564323       0.65654271      -0.52416345
H        0.43628758       2.10747627       0.89624928
H       -1.78460211       0.75729329       1.28761646
H       -1.72353439       0.99969812      -0.47005995
H       -1.40744468      -1.72482703       0.05271985
H        0.10265953      -1.92274744      -1.19498534
H        0.78158249      -1.95825150      -0.60833281
14
Frame=1 idx=005581 GeodesicLength=0.06623571264747641 rxn_smarts="[C:1]1([H:7])([H:8])[C@:2]2([H:9])[C:3]([H:10])([H:11])[C:4]([H:12])([H:13])[C@@:5]1([H:14])[O:6]2>>[C:1]1([H:7])([H:8])[C@@:2]2([H:9])[C:3]([H:10])([H:11])[C:4]([H:12])=[C:5]1[O:6]2.[H:13][H:14]"
C        1.05832785       0.45010996      -0.60042140
C        0.26781214       1.08589425       0.56340913
C       -1.18998952       0.58557678       0.39001408
C       -0.78930190      -0.84466646       0.10923410
C        0.64353982      -0.77675739       0.24231029
O        0.78255108       0.06785589       1.44478086
H        0.67650247       0.54268304      -1.61632017
H        2.12348827       0.65880191      -0.52998525
H        0.44096786       2.10558306       0.90535489
H       -1.78268437       0.75549257       1.29058290
H       -1.72641197       1.01032428      -0.46501943
H       -1.42278655      -1.71431073       0.05373970
H        0.11438720      -1.95207923      -1.19359911
H        0.80359761      -1.97450792      -0.59408060
14
Frame=2 idx=005581 GeodesicLength=0.13240948860536947 rxn_smarts="[C:1]1([H:7])([H:8])[C@:2]2([H:9])[C:3]([H:10])([H:11])[C:4]([H:12])([H:13])[C@@:5]1([H:14])[O:6]2>>[C:1]1([H:7])([H:8])[C@@:2]2([H:9])[C:3]([H:10])([H:11])[C:4]([H:12])=[C:5]1[O:6]2.[H:13][H:14]"
C        1.05511517       0.45675152      -0.60431536
C        0.26733281       1.08686911       0.56568530
C       -1.19138534       0.58833007       0.38995376
C       -0.79259468      -0.84187361       0.09571928
C        0.63939976      -0.77117895       0.23490185
O        0.78000212       0.06184322       1.44057608
H        0.67122849       0.55588569      -1.61886580
H        2.12125130       0.66110868      -0.53601039
H        0.44574971       2.10337242       0.91466152
H       -1.78072253       0.75347731       1.29351988
H       -1.72929070       1.02105848      -0.45984092
H       -1.43824752      -1.70327995       0.05456803
H        0.12616850      -1.98182985      -1.19159093
H        0.82599289      -1.99053414      -0.57896230
14
Frame=3 idx=005581 GeodesicLength=0.19853245122687713 rxn_smarts="[C:1]1([H:7])([H:8])[C@:2]2([H:9])[C:3]([H:10])([H:11])[C:4]([H:12])([H:13])[C@@:5]1([H:14])[O:6]2>>[C:1]1([H:7])([H:8])[C@@:2]2([H:9])[C:3]([H:10])([H:11])[C:4]([H:12])=[C:5]1[O:6]2.[H:13][H:14]"
C        1.05182394       0.46353331      -0.60836772
C        0.26687947       1.08768157       0.56797100
C       -1.19278401       0.59104256       0.38985509
C       -0.79600346      -0.83900494       0.08182989
C        0.63515442      -0.76566314       0.22702479
O        0.77746527       0.05546564       1.43603953
H        0.66583387       0.56953839      -1.62147354
H        2.11893538       0.66346219      -0.54225574
H        0.45064004       2.10083224       0.92416927
H       -1.77871892       0.75124574       1.29643311
H       -1.73217425       1.03190088      -0.45451239
H       -1.45381214      -1.69173500       0.05515621
H        0.13798883      -2.01199698      -1.18893500
H        0.84877157      -2.00630245      -0.56293451
14
Frame=4 idx=005581 GeodesicLength=0.26459978402177164 rxn_smarts="[C:1]1([H:7])([H:8])[C@:2]2([H:9])[C:3]([H:10])([H:11])[C:4]([H:12])([H:13])[C@@:5]1([H:14])[O:6]2>>[C:1]1([H:7])([H:8])[C@@:2]2([H:9])[C:3]([H:10])([H:11])[C:4]([H:12])=[C:5]1[O:6]2.[H:13][H:14]"
C        1.04844716       0.47045407      -0.61258225
C        0.26645672       1.08832017       0.57026453
C       -1.19418126       0.59370891       0.38972343
C       -0.79953228      -0.83605795       0.06757642
C        0.63080306      -0.76021169       0.21867018
O        0.77494786       0.04871525       1.43115566
H        0.66030406       0.58364574      -1.62413640
H        2.11653168       0.66586061      -0.54873628
H        0.45564805       2.09794266       0.93387457
H       -1.77666323       0.74879226       1.29932704
H       -1.73506007       1.04284171      -0.44902098
H       -1.46946410      -1.67966801       0.05542795
H        0.14982943      -2.04257269      -1.18559894
H        0.87193291      -2.02177105      -0.54594493
14
Frame=5 idx=005581 GeodesicLength=0.3306108288262262 rxn_smarts="[C:1]1([H:7])([H:8])[C@:2]2([H:9])[C:3]([H:10])([H:11])[C:4]([H:12])([H:13])[C@@:5]1([H:14])[O:6]2>>[C:1]1([H:7])([H:8])[C@@:2]2([H:9])[C:3]([H:10])([H:11])[C:4]([H:12])=[C:5]1[O:6]2.[H:13][H:14]"
C        1.04497941       0.47751208      -0.61696312
C        0.26606978       1.08877418       0.57256384
C       -1.19557407       0.59632490       0.38956552
C       -0.80318645      -0.83303056       0.05297172
C        0.62634563      -0.75482807       0.20983017
O        0.77245746       0.04158414       1.42590927
H        0.65462630       0.59821154      -1.62684758
H        2.11403398       0.66830194      -0.55546844
H        0.46078391       2.09468566       0.94377256
H       -1.77454722       0.74611253       1.30220814
H       -1.73794707       1.05387253      -0.44335268
H       -1.48518680      -1.66707900       0.05530445
H        0.16166951      -2.07354575      -1.18155363
H        0.89547564      -2.03689612      -0.52794021
14
Frame=6 idx=005581 GeodesicLength=0.3965647262261863 rxn_smarts="[C:1]1([H:7])([H:8])[C@:2]2([H:9])[C:3]([H:10])([H:11])[C:4]([H:12])([H:13])[C@@:5]1([H:14])[O:6]2>>[C:1]1([H:7])([H:8])[C@@:2]2([H:9])[C:3]([H:10])([H:11])[C:4]([H:12])=[C:5]1[O:6]2.[H:13][H:14]"
C        1.04141514       0.48470432      -0.62151416
C        0.26572451       1.08903282       0.57486638
C       -1.19695888       0.59888635       0.38938963
C       -0.80697062      -0.82992023       0.03803148
C        0.62178282      -0.74951612       0.20049877
O        0.77000221       0.03406586       1.42028549
H        0.64878727       0.61323652      -1.62959926
H        2.11143554       0.67078374      -0.56246954
H        0.46605880       2.09104328       0.95385631
H       -1.77236150       0.74320213       1.30508459
H       -1.74083379       1.06498431      -0.43749190
H       -1.50096590      -1.65397257       0.05469855
H        0.17348519      -2.10490269      -1.17677035
H        0.91939920      -2.05162771      -0.50886599
14
Frame=7 idx=005581 GeodesicLength=0.4624613199091398 rxn_smarts="[C:1]1([H:7])([H:8])[C@:2]2([H:9])[C:3]([H:10])([H:11])[C:4]([H:12])([H:13])[C@@:5]1([H:14])[O:6]2>>[C:1]1([H:7])([H:8])[C@@:2]2([H:9])[C:3]([H:10])([H:11])[C:4]([H:12])=[C:5]1[O:6]2.[H:13][H:14]"
C        1.03774936       0.49202641      -0.62623845
C        0.26542741       1.08908508       0.57716909
C       -1.19833181       0.60138896       0.38920458
C       -0.81088888      -0.82672408       0.02277309
C        0.61711616      -0.74428018       0.19067203
O        0.76759026       0.02615516       1.41427017
H        0.64277457       0.62871872      -1.63238263
H        2.10873005       0.67330298      -0.56975641
H        0.47148470       2.08699754       0.96411682
H       -1.77009637       0.74005640       1.30796496
H       -1.74371820       1.07616721      -0.43142288
H       -1.51678860      -1.64035911       0.05352276
H        0.18524827      -2.13662605      -1.17122412
H        0.94370308      -2.06590904      -0.48866903
14
Frame=8 idx=005581 GeodesicLength=0.5282971922463453 rxn_smarts="[C:1]1([H:7])([H:8])[C@:2]2([H:9])[C:3]([H:10])([H:11])[C:4]([H:12])([H:13])[C@@:5]1([H:14])[O:6]2>>[C:1]1([H:7])([H:8])[C@@:2]2([H:9])[C:3]([H:10])([H:11])[C:4]([H:12])=[C:5]1[O:6]2.[H:13][H:14]"
C        1.03397742       0.49947215      -0.63113816
C        0.26518530       1.08891950       0.57946823
C       -1.19968875       0.60382841       0.38901883
C       -0.81494605      -0.82343899       0.00721358
C        0.61234658      -0.73912585       0.18034755
O        0.76522849       0.01784751       1.40784971
H        0.63657705       0.64465337      -1.63518775
H        2.10591118       0.67585537      -0.57734460
H        0.47707461       2.08253021       0.97454354
H       -1.76774177       0.73667049       1.31085718
H       -1.74659749       1.08741109      -0.42513039
H       -1.53264074      -1.62625402       0.05169692
H        0.19692937      -2.16869138      -1.16489769
H        0.96838480      -2.07967786      -0.46729694
14
Frame=9 idx=005581 GeodesicLength=0.5940746810583202 rxn_smarts="[C:1]1([H:7])([H:8])[C@:2]2([H:9])[C:3]([H:10])([H:11])[C:4]([H:12])([H:13])[C@@:5]1([H:14])[O:6]2>>[C:1]1([H:7])([H:8])[C@@:2]2([H:9])[C:3]([H:10])([H:11])[C:4]([H:12])=[C:5]1[O:6]2.[H:13][H:14]"
C        1.03009618       0.50703388      -0.63621439
C        0.26500551       1.08852462       0.58175937
C       -1.20102510       0.60619966       0.38884179
C       -0.81914415      -0.82006127      -0.00862819
C        0.60747760      -0.73405867       0.16952617
O        0.76292390       0.00914052       1.40101209
H        0.63018542       0.66103361      -1.63800336
H        2.10297384       0.67843626      -0.58524909
H        0.48284150       2.07762332       0.98512302
H       -1.76528761       0.73303759       1.31376995
H       -1.74946819       1.09870497      -0.41859835
H       -1.54851618      -1.61167632       0.04913759
H        0.20848934      -2.20107731      -1.15777379
H        0.99344795      -2.09286085      -0.44470280
14
Frame=10 idx=005581 GeodesicLength=0.6597930498653015 rxn_smarts="[C:1]1([H:7])([H:8])[C@:2]2([H:9])[C:3]([H:10])([H:11])[C:4]([H:12])([H:13])[C@@:5]1([H:14])[O:6]2>>[C:1]1([H:7])([H:8])[C@@:2]2([H:9])[C:3]([H:10])([H:11])[C:4]([H:12])=[C:5]1[O:6]2.[H:13][H:14]"
C        1.02610361       0.51470142      -0.64146651
C        0.26489524       1.08788839       0.58403733
C       -1.20233623       0.60849721       0.38868116
C       -0.82348576      -0.81658765      -0.02473478
C        0.60251213      -0.72908589       0.15821124
O        0.76068094       0.00003265       1.39374680
H        0.62359360       0.67784914      -1.64081673
H        2.09991369       0.68103916      -0.59348165
H        0.48879847       2.07225872       0.99584011
H       -1.76272456       0.72915075       1.31670937
H       -1.75232556       1.11003698      -0.41181316
H       -1.56440689      -1.59664883       0.04577950
H        0.21988636      -2.23375402      -1.14984777
H        1.01889495      -2.10537803      -0.42084493
14
Frame=11 idx=005581 GeodesicLength=0.7254517219099326 rxn_smarts="[C:1]1([H:7])([H:8])[C@:2]2([H:9])[C:3]([H:10])([H:11])[C:4]([H:12])([H:13])[C@@:5]1([H:14])[O:6]2>>[C:1]1([H:7])([H:8])[C@@:2]2([H:9])[C:3]([H:10])([H:11])[C:4]([H:12])=[C:5]1[O:6]2.[H:13][H:14]"
C        1.02199972       0.52246156      -0.64689145
C        0.26486143       1.08699862       0.58629621
C       -1.20361746       0.61071473       0.38854323
C       -0.82797230      -0.81301590      -0.04108750
C        0.59745403      -0.72421626       0.14641078
O        0.75850183      -0.00947545       1.38604649
H        0.61679979       0.69508453      -1.64361343
H        2.09672809       0.68365588      -0.60204995
H        0.49495756       2.06641913       1.00667673
H       -1.76004477       0.72500339       1.31967891
H       -1.75516336       1.12139286      -0.40476462
H       -1.58030643      -1.58119750       0.04157469
H        0.23107190      -2.26668521      -1.14112856
H        1.04472997      -2.11714039      -0.39569153
14
Frame=12 idx=005581 GeodesicLength=0.791052257469043 rxn_smarts="[C:1]1([H:7])([H:8])[C@:2]2([H:9])[C:3]([H:10])([H:11])[C:4]([H:12])([H:13])[C@@:5]1([H:14])[O:6]2>>[C:1]1([H:7])([H:8])[C@@:2]2([H:9])[C:3]([H:10])([H:11])[C:4]([H:12])=[C:5]1[O:6]2.[H:13][H:14]"
C        1.01778646       0.53029685      -0.65248300
C        0.26491028       1.08584329       0.58852936
C       -1.20486430       0.61284517       0.38843231
C       -0.83260417      -0.80934545      -0.05766575
C        0.59230773      -0.71946058       0.13413925
O        0.75638597      -0.01937996       1.37790840
H        0.60980680       0.71271725      -1.64637724
H        2.09341595       0.68627515      -0.61095639
H        0.50132910       2.06008896       1.01761125
H       -1.75724224       0.72059072       1.32267862
H       -1.75797410       1.13275551      -0.39744716
H       -1.59620889      -1.56535068       0.03649699
H        0.24199099      -2.29982511      -1.13164450
H        1.07096041      -2.12805112      -0.36922214
14
Frame=13 idx=005581 GeodesicLength=0.856595235839415 rxn_smarts="[C:1]1([H:7])([H:8])[C@:2]2([H:9])[C:3]([H:10])([H:11])[C:4]([H:12])([H:13])[C@@:5]1([H:14])[O:6]2>>[C:1]1([H:7])([H:8])[C@@:2]2([H:9])[C:3]([H:10])([H:11])[C:4]([H:12])=[C:5]1[O:6]2.[H:13][H:14]"
C        1.01346876       0.53818554      -0.65823292
C        0.26504636       1.08441177       0.59072983
C       -1.20607360       0.61488205       0.38835230
C       -0.83738002      -0.80557789      -0.07444411
C        0.58707974      -0.71483185       0.12141898
O        0.75432908      -0.02967364       1.36933655
H        0.60262306       0.73071825      -1.64909198
H        2.08997931       0.68888156      -0.62020020
H        0.50792004       2.05325599       1.02861924
H       -1.75431537       0.71591120       1.32570798
H       -1.76074961       1.14410677      -0.38985961
H       -1.61211027      -1.54913721       0.03053827
H        0.25258465      -2.33312629      -1.12144321
H        1.09759788      -2.13800625      -0.34143113
14
Frame=14 idx=005581 GeodesicLength=0.922080822729435 rxn_smarts="[C:1]1([H:7])([H:8])[C@:2]2([H:9])[C:3]([H:10])([H:11])[C:4]([H:12])([H:13])[C@@:5]1([H:14])[O:6]2>>[C:1]1([H:7])([H:8])[C@@:2]2([H:9])[C:3]([H:10])([H:11])[C:4]([H:12])=[C:5]1[O:6]2.[H:13][H:14]"
C        1.00905135       0.54609952      -0.66412359
C        0.26527550       1.08269208       0.59288738
C       -1.20723998       0.61681501       0.38830133
C       -0.84230056      -0.80171537      -0.09139386
C        0.58177180      -0.71034076       0.10828384
O        0.75232315      -0.04034028       1.36033668
H        0.59525963       0.74904441      -1.65173002
H        2.08641908       0.69145550      -0.62976788
H        0.51474047       2.04590577       1.03966817
H       -1.75126050       0.71096465       1.32875328
H       -1.76347749       1.15541711      -0.38200721
H       -1.62800607      -1.53258649       0.02372264
H        0.26278508      -2.36652520      -1.11060038
H        1.12465853      -2.14688596      -0.31233037
14
Frame=15 idx=005581 GeodesicLength=0.9875152479402631 rxn_smarts="[C:1]1([H:7])([H:8])[C@:2]2([H:9])[C:3]([H:10])([H:11])[C:4]([H:12])([H:13])[C@@:5]1([H:14])[O:6]2>>[C:1]1([H:7])([H:8])[C@@:2]2([H:9])[C:3]([H:10])([H:11])[C:4]([H:12])=[C:5]1[O:6]2.[H:13][H:14]"
C        1.00453634       0.55401489      -0.67014988
C        0.26560198       1.08067476       0.59499511
C       -1.20835790       0.61863520       0.38828530
C       -0.84735922      -0.79776064      -0.10850292
C        0.57639221      -0.70600291       0.09475404
O        0.75036212      -0.05137201       1.35091557
H        0.58772159       0.76766995      -1.65427735
H        2.08273158       0.69398766      -0.63966187
H        0.52179899       2.03802751       1.05073748
H       -1.74806982       0.70573809       1.33181947
H       -1.76614876       1.16667685      -0.37387954
H       -1.64390635      -1.51570761       0.01601804
H        0.27251922      -2.40000463      -1.09915138
H        1.15217803      -2.15457710      -0.28190205
14
Frame=16 idx=005581 GeodesicLength=1.0529150957025724 rxn_smarts="[C:1]1([H:7])([H:8])[C@:2]2([H:9])[C:3]([H:10])([H:11])[C:4]([H:12])([H:13])[C@@:5]1([H:14])[O:6]2>>[C:1]1([H:7])([H:8])[C@@:2]2([H:9])[C:3]([H:10])([H:11])[C:4]([H:12])=[C:5]1[O:6]2.[H:13][H:14]"
C        0.99993641       0.56189051      -0.67628944
C        0.26602575       1.07835404       0.59704403
C       -1.20942877       0.62033737       0.38830239
C       -0.85255460      -0.79372325      -0.12572565
C        0.57094704      -0.70183839       0.08088818
O        0.74842955      -0.06274429       1.34110360
H        0.58003528       0.78653001      -1.65671169
H        2.07892774       0.69644661      -0.64985922
H        0.52909378       2.02962273       1.06178493
H       -1.74475590       0.70024890       1.33489418
H       -1.76875466       1.17785746      -0.36549585
H       -1.65980683      -1.49853110       0.00749513
H        0.28171053      -2.43349158      -1.08723844
H        1.18019469      -2.16095901      -0.25019216
