10
Frame=0 idx=004458 GeodesicLength=0.0 rxn_smarts="[C:1]([C@@:2]([O:3][H:10])([C:4]#[N:5])[H:9])([H:6])([H:7])[H:8]>>[C:1]([C@@:2]([O:3][H:10])([N+:5]#[C-:4])[H:9])([H:6])([H:7])[H:8]"
C       -1.15720314       0.05032687       0.01150592
C        0.30524453      -0.23063897       0.20093150
O        0.74382828      -1.13338238      -0.69218358
C        1.65029040       1.09431173       0.16720299
N        0.77536088       1.70565671      -0.32659780
H       -1.37569541       0.31316777      -1.02011736
H       -1.48881718       0.84825751       0.67025442
H       -1.68735610      -0.87156430       0.26550648
H        0.56933916      -0.42850830       1.23625677
H        1.66500858      -1.34762664      -0.51275934
10
Frame=1 idx=004458 GeodesicLength=0.05542844160328756 rxn_smarts="[C:1]([C@@:2]([O:3][H:10])([C:4]#[N:5])[H:9])([H:6])([H:7])[H:8]>>[C:1]([C@@:2]([O:3][H:10])([N+:5]#[C-:4])[H:9])([H:6])([H:7])[H:8]"
C       -1.15728319       0.04833464       0.00764292
C        0.31038656      -0.21279886       0.19370374
O        0.74153470      -1.13828369      -0.68590189
C        1.67869076       1.08978851       0.10322479
N        0.76923869       1.73280999      -0.26512487
H       -1.37591181       0.31632969      -1.02278173
H       -1.50772767       0.83152180       0.67452277
H       -1.68008977      -0.87987161       0.25318842
H        0.56760773      -0.41297221       1.23128677
H        1.65355400      -1.37485826      -0.48976093
10
Frame=2 idx=004458 GeodesicLength=0.10982753067959508 rxn_smarts="[C:1]([C@@:2]([O:3][H:10])([C:4]#[N:5])[H:9])([H:6])([H:7])[H:8]>>[C:1]([C@@:2]([O:3][H:10])([N+:5]#[C-:4])[H:9])([H:6])([H:7])[H:8]"
C       -1.15710377       0.04651093       0.00350626
C        0.31522758      -0.19635832       0.18674356
O        0.73936052      -1.14485738      -0.67805752
C        1.69970656       1.08761985       0.03318647
N        0.76732577       1.75612230      -0.19813329
H       -1.37515150       0.32015122      -1.02571696
H       -1.52499400       0.81524712       0.67800731
H       -1.67353137      -0.88730387       0.24053299
H        0.56631074      -0.39767639       1.22658681
H        1.64284946      -1.39945545      -0.46665563
10
Frame=3 idx=004458 GeodesicLength=0.16329671288182218 rxn_smarts="[C:1]([C@@:2]([O:3][H:10])([C:4]#[N:5])[H:9])([H:6])([H:7])[H:8]>>[C:1]([C@@:2]([O:3][H:10])([N+:5]#[C-:4])[H:9])([H:6])([H:7])[H:8]"
C       -1.15673152       0.04496841      -0.00081879
C        0.31964553      -0.18161568       0.18041593
O        0.73739543      -1.15299277      -0.66855030
C        1.71193932       1.08837908      -0.04176927
N        0.77075427       1.77429105      -0.12687521
H       -1.37349716       0.32418305      -1.02897721
H       -1.54032807       0.80030034       0.68029939
H       -1.66797754      -0.89355344       0.22804624
H        0.56495570      -0.38358281       1.22249236
H        1.63384404      -1.42037722      -0.44426314
10
Frame=4 idx=004458 GeodesicLength=0.21604765106331036 rxn_smarts="[C:1]([C@@:2]([O:3][H:10])([C:4]#[N:5])[H:9])([H:6])([H:7])[H:8]>>[C:1]([C@@:2]([O:3][H:10])([N+:5]#[C-:4])[H:9])([H:6])([H:7])[H:8]"
C       -1.15622459       0.04378697      -0.00521677
C        0.32356058      -0.16876798       0.17512716
O        0.73579507      -1.16227110      -0.65752899
C        1.71436827       1.09260650      -0.11984644
N        0.78042177       1.78614919      -0.05322545
H       -1.37109132       0.32787116      -1.03260194
H       -1.55350292       0.78758105       0.68099880
H       -1.66364676      -0.89837819       0.21629758
H        0.56299231      -0.37169291       1.21936799
H        1.62732758      -1.43688469      -0.42337196
10
Frame=5 idx=004458 GeodesicLength=0.26853310874200526 rxn_smarts="[C:1]([C@@:2]([O:3][H:10])([C:4]#[N:5])[H:9])([H:6])([H:7])[H:8]>>[C:1]([C@@:2]([O:3][H:10])([N+:5]#[C-:4])[H:9])([H:6])([H:7])[H:8]"
C       -1.15567625       0.04299897      -0.00959581
C        0.32689354      -0.15784300       0.17124998
O        0.73473897      -1.17216295      -0.64522042
C        1.70644796       1.10049148      -0.19917408
N        0.79713401       1.79107852       0.02097091
H       -1.36813363       0.33055666      -1.03667842
H       -1.56447078       0.77783836       0.67975944
H       -1.66060823      -0.90171702       0.20582660
H        0.55982507      -0.36272654       1.21755849
H        1.62384935      -1.44851448      -0.40469671
10
Frame=6 idx=004458 GeodesicLength=0.32075470358613867 rxn_smarts="[C:1]([C@@:2]([O:3][H:10])([C:4]#[N:5])[H:9])([H:6])([H:7])[H:8]>>[C:1]([C@@:2]([O:3][H:10])([N+:5]#[C-:4])[H:9])([H:6])([H:7])[H:8]"
C       -1.15515715       0.04256473      -0.01381579
C        0.32964179      -0.14873532       0.16901197
O        0.73443089      -1.18183606      -0.63230271
C        1.68865707       1.11211910      -0.27641302
N        0.82092604       1.78876596       0.09270173
H       -1.36498212       0.33150044      -1.04121446
H       -1.57314760       0.77169391       0.67635380
H       -1.65880869      -0.90357141       0.19734111
H        0.55492775      -0.35727029       1.21725832
H        1.62351202      -1.45523105      -0.38892095
10
Frame=7 idx=004458 GeodesicLength=0.37329073260542367 rxn_smarts="[C:1]([C@@:2]([O:3][H:10])([C:4]#[N:5])[H:9])([H:6])([H:7])[H:8]>>[C:1]([C@@:2]([O:3][H:10])([N+:5]#[C-:4])[H:9])([H:6])([H:7])[H:8]"
C       -1.15474633       0.04240713      -0.01784757
C        0.33180310      -0.14118965       0.16847983
O        0.73501313      -1.19079939      -0.61918927
C        1.66171366       1.12726830      -0.34994503
N        0.85178199       1.77960426       0.16064694
H       -1.36186275       0.33023844      -1.04626792
H       -1.57973006       0.76928108       0.67069843
H       -1.65807488      -0.90416412       0.19107135
H        0.54801240      -0.35524400       1.21851840
H        1.62608974      -1.45740204      -0.37616515
10
Frame=8 idx=004458 GeodesicLength=0.4264366167991164 rxn_smarts="[C:1]([C@@:2]([O:3][H:10])([C:4]#[N:5])[H:9])([H:6])([H:7])[H:8]>>[C:1]([C@@:2]([O:3][H:10])([N+:5]#[C-:4])[H:9])([H:6])([H:7])[H:8]"
C       -1.15450047       0.04241049      -0.02168261
C        0.33341583      -0.13491750       0.16951756
O        0.73655979      -1.19857479      -0.60642620
C        1.62681301       1.14576279      -0.41788496
N        0.88920061       1.76403811       0.22349866
H       -1.35904913       0.32633760      -1.05185866
H       -1.58435366       0.77058101       0.66272657
H       -1.65822066      -0.90368071       0.18730394
H        0.53904701      -0.35633888       1.22115167
H        1.63108766      -1.45561810      -0.36634597
10
Frame=9 idx=004458 GeodesicLength=0.4804643666429508 rxn_smarts="[C:1]([C@@:2]([O:3][H:10])([C:4]#[N:5])[H:9])([H:6])([H:7])[H:8]>>[C:1]([C@@:2]([O:3][H:10])([N+:5]#[C-:4])[H:9])([H:6])([H:7])[H:8]"
C       -1.15451194       0.04244684      -0.02532950
C        0.33449676      -0.12961318       0.17190499
O        0.73907881      -1.20490625      -0.59441796
C        1.58531421       1.16737974      -0.47888084
N        0.93263423       1.74269604       0.28040522
H       -1.35676694       0.31956860      -1.05796793
H       -1.58724780       0.77532348       0.65250373
H       -1.65912001      -0.90237458       0.18609258
H        0.52815161      -0.35998382       1.22489979
H        1.63797106      -1.45053685      -0.35921009
10
Frame=10 idx=004458 GeodesicLength=0.5356891974589555 rxn_smarts="[C:1]([C@@:2]([O:3][H:10])([C:4]#[N:5])[H:9])([H:6])([H:7])[H:8]>>[C:1]([C@@:2]([O:3][H:10])([N+:5]#[C-:4])[H:9])([H:6])([H:7])[H:8]"
C       -1.15482674       0.04243245      -0.02879623
C        0.33499090      -0.12501635       0.17548586
O        0.74250485      -1.20983938      -0.58323909
C        1.53820086       1.19186710      -0.53236588
N        0.98170238       1.71626486       0.33076789
H       -1.35504856       0.31021952      -1.06449629
H       -1.58867688       0.78292493       0.64036918
H       -1.66055130      -0.90059708       0.18695513
H        0.51546276      -0.36552756       1.22963475
H        1.64624173      -1.44272848      -0.35431534
10
Frame=11 idx=004458 GeodesicLength=0.5918969175232672 rxn_smarts="[C:1]([C@@:2]([O:3][H:10])([C:4]#[N:5])[H:9])([H:6])([H:7])[H:8]>>[C:1]([C@@:2]([O:3][H:10])([N+:5]#[C-:4])[H:9])([H:6])([H:7])[H:8]"
C       -1.15555118       0.04219273      -0.03216758
C        0.33501257      -0.12086488       0.17969060
O        0.74671628      -1.21291843      -0.57351770
C        1.48736680       1.21923386      -0.57668409
N        1.03509543       1.68485978       0.37441031
H       -1.35426850       0.29747679      -1.07147159
H       -1.58872753       0.79338813       0.62567195
H       -1.66254850      -0.89815604       0.19087168
H        0.50163832      -0.37234240       1.23458691
H        1.65526631      -1.43286954      -0.35139049
10
Frame=12 idx=004458 GeodesicLength=0.6493396450172849 rxn_smarts="[C:1]([C@@:2]([O:3][H:10])([C:4]#[N:5])[H:9])([H:6])([H:7])[H:8]>>[C:1]([C@@:2]([O:3][H:10])([N+:5]#[C-:4])[H:9])([H:6])([H:7])[H:8]"
C       -1.15664234       0.04176534      -0.03538482
C        0.33443646      -0.11694483       0.18467678
O        0.75153953      -1.21466665      -0.56455089
C        1.43307062       1.24888119      -0.61258425
N        1.09272822       1.64939849       0.41022339
H       -1.35404657       0.28327965      -1.07841607
H       -1.58788372       0.80507322       0.60995298
H       -1.66474541      -0.89576532       0.19549629
H        0.48684564      -0.37950471       1.24007358
H        1.66469757      -1.42151637      -0.34948700
10
Frame=13 idx=004458 GeodesicLength=0.7075238040583284 rxn_smarts="[C:1]([C@@:2]([O:3][H:10])([C:4]#[N:5])[H:9])([H:6])([H:7])[H:8]>>[C:1]([C@@:2]([O:3][H:10])([N+:5]#[C-:4])[H:9])([H:6])([H:7])[H:8]"
C       -1.15821956       0.04099701      -0.03853381
C        0.33342946      -0.11308555       0.18975783
O        0.75682956      -1.21476708      -0.55706307
C        1.37758498       1.28098561      -0.63854897
N        1.15273428       1.61005345       0.43846045
H       -1.35462845       0.26656962      -1.08543867
H       -1.58634953       0.81822309       0.59226990
H       -1.66729585      -0.89304355       0.20241542
H        0.47186700      -0.38650802       1.24526800
H        1.67404810      -1.40942457      -0.34858709
10
Frame=14 idx=004458 GeodesicLength=0.7665349257478467 rxn_smarts="[C:1]([C@@:2]([O:3][H:10])([C:4]#[N:5])[H:9])([H:6])([H:7])[H:8]>>[C:1]([C@@:2]([O:3][H:10])([N+:5]#[C-:4])[H:9])([H:6])([H:7])[H:8]"
C       -1.16018870       0.03990374      -0.04156666
C        0.33197474      -0.10913432       0.19513844
O        0.76233659      -1.21386317      -0.55031434
C        1.32117573       1.31508044      -0.65559768
N        1.21486225       1.56784381       0.45809588
H       -1.35549424       0.24945986      -1.09216581
H       -1.58464141       0.83121170       0.57431677
H       -1.66999143      -0.89074941       0.20922797
H        0.45692345      -0.39246631       1.25067134
H        1.68304303      -1.39728635      -0.34780592
10
Frame=15 idx=004458 GeodesicLength=0.8260764731878275 rxn_smarts="[C:1]([C@@:2]([O:3][H:10])([C:4]#[N:5])[H:9])([H:6])([H:7])[H:8]>>[C:1]([C@@:2]([O:3][H:10])([N+:5]#[C-:4])[H:9])([H:6])([H:7])[H:8]"
C       -1.16251767       0.03844699      -0.04453291
C        0.33021641      -0.10502545       0.20048307
O        0.76788361      -1.21200444      -0.54450411
C        1.26509095       1.35116376      -0.66328534
N        1.27767937       1.52319086       0.46926506
H       -1.35652677       0.23179501      -1.09866672
H       -1.58298291       0.84394938       0.55579539
H       -1.67279828      -0.88874366       0.21647516
H        0.44256103      -0.39705902       1.25598824
H        1.69139428      -1.38571343      -0.34701784
10
Frame=16 idx=004458 GeodesicLength=0.8860765335417333 rxn_smarts="[C:1]([C@@:2]([O:3][H:10])([C:4]#[N:5])[H:9])([H:6])([H:7])[H:8]>>[C:1]([C@@:2]([O:3][H:10])([N+:5]#[C-:4])[H:9])([H:6])([H:7])[H:8]"
C       -1.16507246       0.03666236      -0.04744944
C        0.32827470      -0.10071021       0.20576389
O        0.77329505      -1.20953758      -0.53928843
C        1.20978296       1.38890464      -0.66196175
N        1.34028305       1.47677079       0.47151576
H       -1.35737052       0.21462941      -1.10481504
H       -1.58167701       0.85567280       0.53743525
H       -1.67554819      -0.88726549       0.22319158
H        0.42912256      -0.39980538       1.26133242
H        1.69890986      -1.37532135      -0.34572423
