16
Frame=0 idx=005080 GeodesicLength=0.0 rxn_smarts="[C:1]([C:2]([C:3]([C:4]([C:5](=[O:6])[H:16])([H:14])[H:15])([H:12])[H:13])([H:10])[H:11])([H:7])([H:8])[H:9]>>[C:1]([C:2]([C:3]([O:6][C:5](=[C:4]([H:14])[H:15])[H:16])([H:12])[H:13])([H:10])[H:11])([H:7])([H:8])[H:9]"
C       -2.41848422       0.39319685      -0.07245222
C       -1.07046965      -0.34265326      -0.09972404
C        0.01633489       0.67266162       0.00423401
C        1.82065522      -1.00410146       0.37716909
C        2.57530532       0.06347503      -0.07292434
O        2.07370524       1.02582853      -0.69744971
H       -3.23450805      -0.32735239      -0.14654525
H       -2.54813691       0.95290925       0.85553589
H       -2.50990183       1.09143280      -0.90633568
H       -1.00641243      -1.06534973       0.71296660
H       -0.99112978      -0.89195035      -1.04067743
H       -0.00409507       1.43116510      -0.76311408
H        0.30853991       1.01750404       0.98469686
H        1.11153028      -1.39785925      -0.33782915
H        2.21581400      -1.71324498       1.09624879
H        3.66125305       0.09433817       0.10620059
16
Frame=1 idx=005080 GeodesicLength=0.055308723491618084 rxn_smarts="[C:1]([C:2]([C:3]([C:4]([C:5](=[O:6])[H:16])([H:14])[H:15])([H:12])[H:13])([H:10])[H:11])([H:7])([H:8])[H:9]>>[C:1]([C:2]([C:3]([O:6][C:5](=[C:4]([H:14])[H:15])[H:16])([H:12])[H:13])([H:10])[H:11])([H:7])([H:8])[H:9]"
C       -2.41504183       0.39860539      -0.06054835
C       -1.07226089      -0.34490619      -0.10130648
C        0.02961286       0.65908164      -0.01736174
C        1.81717382      -1.01271455       0.35719333
C        2.57321232       0.06603624      -0.06648837
O        2.07161228       1.02853912      -0.69287444
H       -3.23748245      -0.31601270      -0.11902329
H       -2.52832587       0.96594146       0.86503095
H       -2.51280537       1.09240621      -0.89750818
H       -1.00480491      -1.06205486       0.71646015
H       -1.00928610      -0.90099885      -1.03963141
H       -0.00774529       1.41341993      -0.78973633
H        0.30263474       1.02469272       0.96241746
H        1.14374008      -1.42268329      -0.38332512
H        2.20501782      -1.71469032       1.08752298
H        3.64474880       0.12533807       0.17917883
16
Frame=2 idx=005080 GeodesicLength=0.11071352683238782 rxn_smarts="[C:1]([C:2]([C:3]([C:4]([C:5](=[O:6])[H:16])([H:14])[H:15])([H:12])[H:13])([H:10])[H:11])([H:7])([H:8])[H:9]>>[C:1]([C:2]([C:3]([O:6][C:5](=[C:4]([H:14])[H:15])[H:16])([H:12])[H:13])([H:10])[H:11])([H:7])([H:8])[H:9]"
C       -2.41120695       0.40398638      -0.04903843
C       -1.07366994      -0.34693197      -0.10209492
C        0.04267039       0.64570808      -0.03787463
C        1.81400660      -1.02121352       0.33643437
C        2.57087364       0.06870499      -0.06002142
O        2.06903987       1.03106704      -0.68861186
H       -3.23961074      -0.30476406      -0.09216198
H       -2.50881783       0.97907413       0.87362419
H       -2.51499700       1.09310399      -0.88923547
H       -1.00293122      -1.05822231       0.72094553
H       -1.02626710      -0.90999711      -1.03730428
H       -0.01124913       1.39542600      -0.81535247
H        0.29690574       1.03201774       0.94035876
H        1.17801586      -1.44651129      -0.42874168
H        2.19371965      -1.71641360       1.07791074
H        3.62351817       0.15496550       0.25116355
16
Frame=3 idx=005080 GeodesicLength=0.1662624791358982 rxn_smarts="[C:1]([C:2]([C:3]([C:4]([C:5](=[O:6])[H:16])([H:14])[H:15])([H:12])[H:13])([H:10])[H:11])([H:7])([H:8])[H:9]>>[C:1]([C:2]([C:3]([O:6][C:5](=[C:4]([H:14])[H:15])[H:16])([H:12])[H:13])([H:10])[H:11])([H:7])([H:8])[H:9]"
C       -2.40701552       0.40933444      -0.03791070
C       -1.07468813      -0.34871790      -0.10207420
C        0.05553020       0.63257756      -0.05732462
C        1.81117496      -1.02957663       0.31491076
C        2.56829554       0.07151680      -0.05332229
O        2.06607642       1.03343336      -0.68454999
H       -3.24094866      -0.29362269      -0.06590278
H       -2.48964337       0.99235813       0.88132062
H       -2.51654060       1.09346630      -0.88154728
H       -1.00075791      -1.05378989       0.72646771
H       -1.04207232      -0.91898891      -1.03367751
H       -0.01457996       1.37717086      -0.84004075
H        0.29132127       1.03953566       0.91852507
H        1.21452511      -1.46926206      -0.47405244
H        2.18184773      -1.71847191       1.06727631
H        3.59747524       0.18303686       0.32190207
16
Frame=4 idx=005080 GeodesicLength=0.22198523946662035 rxn_smarts="[C:1]([C:2]([C:3]([C:4]([C:5](=[O:6])[H:16])([H:14])[H:15])([H:12])[H:13])([H:10])[H:11])([H:7])([H:8])[H:9]>>[C:1]([C:2]([C:3]([O:6][C:5](=[C:4]([H:14])[H:15])[H:16])([H:12])[H:13])([H:10])[H:11])([H:7])([H:8])[H:9]"
C       -2.40254205       0.41461633      -0.02718852
C       -1.07533502      -0.35023489      -0.10126384
C        0.06816269       0.61975436      -0.07567984
C        1.80867878      -1.03772416       0.29272580
C        2.56541395       0.07453248      -0.04620000
O        2.06273717       1.03573905      -0.68049356
H       -3.24156113      -0.28264759      -0.04031427
H       -2.47092314       1.00573102       0.88812913
H       -2.51752196       1.09346311      -0.87446395
H       -0.99829710      -1.04871794       0.73300067
H       -1.05667678      -0.92793919      -1.02879618
H       -0.01776059       1.35872518      -0.86377915
H        0.28577775       1.04728751       0.89698631
H        1.25345077      -1.49081544      -0.51909004
H        2.16931195      -1.72078893       1.05576678
H        3.56708471       0.20901909       0.39066065
16
Frame=5 idx=005080 GeodesicLength=0.2779170918343767 rxn_smarts="[C:1]([C:2]([C:3]([C:4]([C:5](=[O:6])[H:16])([H:14])[H:15])([H:12])[H:13])([H:10])[H:11])([H:7])([H:8])[H:9]>>[C:1]([C:2]([C:3]([O:6][C:5](=[C:4]([H:14])[H:15])[H:16])([H:12])[H:13])([H:10])[H:11])([H:7])([H:8])[H:9]"
C       -2.39792522       0.41983022      -0.01693404
C       -1.07570775      -0.35152737      -0.09960103
C        0.08050262       0.60724947      -0.09290792
C        1.80639477      -1.04554923       0.26995820
C        2.56211868       0.07789237      -0.03834459
O        2.05911106       1.03834350      -0.67590730
H       -3.24161360      -0.27185389      -0.01538236
H       -2.45280861       1.01934573       0.89390989
H       -2.51807115       1.09296966      -0.86813549
H       -0.99563638      -1.04297304       0.74067164
H       -1.07016923      -0.93701420      -1.02254341
H       -0.02081149       1.33996172      -0.88665328
H        0.28006598       1.05536443       0.87579974
H        1.29490332      -1.51102776      -0.56393754
H        2.15606042      -1.72338617       1.04328146
H        3.53358659       0.23237458       0.45672602
16
Frame=6 idx=005080 GeodesicLength=0.33407770198084474 rxn_smarts="[C:1]([C:2]([C:3]([C:4]([C:5](=[O:6])[H:16])([H:14])[H:15])([H:12])[H:13])([H:10])[H:11])([H:7])([H:8])[H:9]>>[C:1]([C:2]([C:3]([O:6][C:5](=[C:4]([H:14])[H:15])[H:16])([H:12])[H:13])([H:10])[H:11])([H:7])([H:8])[H:9]"
C       -2.39312688       0.42499096      -0.00703213
C       -1.07575992      -0.35253978      -0.09715336
C        0.09261986       0.59507785      -0.10911869
C        1.80441826      -1.05313646       0.24647198
C        2.55843786       0.08135155      -0.03006068
O        2.05518444       1.04091964      -0.67122112
H       -3.24108626      -0.26120767       0.00900596
H       -2.43519587       1.03312071       0.89885520
H       -2.51821416       1.09205564      -0.86239437
H       -0.99267969      -1.03651068       0.74936938
H       -1.08257685      -0.94609936      -1.01504168
H       -0.02370991       1.32095157      -0.90873197
H        0.27433951       1.06373281       0.85484312
H        1.33902720      -1.52995353      -0.60834849
H        2.14202279      -1.72627575       1.02973812
H        3.49629961       0.25352248       0.52081873
16
Frame=7 idx=005080 GeodesicLength=0.3905035410789483 rxn_smarts="[C:1]([C:2]([C:3]([C:4]([C:5](=[O:6])[H:16])([H:14])[H:15])([H:12])[H:13])([H:10])[H:11])([H:7])([H:8])[H:9]>>[C:1]([C:2]([C:3]([O:6][C:5](=[C:4]([H:14])[H:15])[H:16])([H:12])[H:13])([H:10])[H:11])([H:7])([H:8])[H:9]"
C       -2.38819728       0.43010402       0.00253231
C       -1.07551045      -0.35327350      -0.09392992
C        0.10451389       0.58325334      -0.12432997
C        1.80274339      -1.06045079       0.22226035
C        2.55434048       0.08486548      -0.02137511
O        2.05099581       1.04353596      -0.66632309
H       -3.24005661      -0.25070181       0.03288446
H       -2.41812178       1.04708854       0.90298227
H       -2.51802074       1.09070082      -0.85723144
H       -0.98942028      -1.02931347       0.75908123
H       -1.09394084      -0.95521848      -1.00630381
H       -0.02645592       1.30166857      -0.93006071
H        0.26855876       1.07241142       0.83410056
H        1.38595420      -1.54756257      -0.65216912
H        2.12712268      -1.72941509       1.01507994
H        3.45549470       0.27230758       0.58280204
16
Frame=8 idx=005080 GeodesicLength=0.4472118533364517 rxn_smarts="[C:1]([C:2]([C:3]([C:4]([C:5](=[O:6])[H:16])([H:14])[H:15])([H:12])[H:13])([H:10])[H:11])([H:7])([H:8])[H:9]>>[C:1]([C:2]([C:3]([O:6][C:5](=[C:4]([H:14])[H:15])[H:16])([H:12])[H:13])([H:10])[H:11])([H:7])([H:8])[H:9]"
C       -2.38319366       0.43516006       0.01177454
C       -1.07498784      -0.35371327      -0.08998153
C        0.11616304       0.57180377      -0.13855932
C        1.80135245      -1.06746361       0.19732511
C        2.54977341       0.08839579      -0.01231090
O        2.04652152       1.04620815      -0.66118543
H       -3.23858725      -0.24035047       0.05623661
H       -2.40163649       1.06119234       0.90634961
H       -2.51756819       1.08892369      -0.85259822
H       -0.98586985      -1.02138100       0.76971999
H       -1.10430760      -0.96431954      -0.99641464
H       -0.02908113       1.28215931      -0.95063641
H        0.26267906       1.08139012       0.81357384
H        1.43582765      -1.56383444      -0.69513362
H        2.11124741      -1.73269477       0.99941192
H        3.41166747       0.28852386       0.64242847
16
Frame=9 idx=005080 GeodesicLength=0.5042288844007241 rxn_smarts="[C:1]([C:2]([C:3]([C:4]([C:5](=[O:6])[H:16])([H:14])[H:15])([H:12])[H:13])([H:10])[H:11])([H:7])([H:8])[H:9]>>[C:1]([C:2]([C:3]([O:6][C:5](=[C:4]([H:14])[H:15])[H:16])([H:12])[H:13])([H:10])[H:11])([H:7])([H:8])[H:9]"
C       -2.37821415       0.44016580       0.02065789
C       -1.07426545      -0.35391701      -0.08524159
C        0.12753714       0.56070849      -0.15177621
C        1.80012399      -1.07406694       0.17161587
C        2.54466063       0.09197348      -0.00272540
O        2.04183374       1.04916397      -0.65544062
H       -3.23681760      -0.23013206       0.07911342
H       -2.38582465       1.07558205       0.90883880
H       -2.51695347       1.08661200      -0.84861688
H       -0.98208698      -1.01270587       0.78140585
H       -1.11376873      -0.97355537      -0.98525936
H       -0.03157215       1.26228232      -0.97053451
H        0.25657854       1.09072435       0.79328539
H        1.48881192      -1.57864218      -0.73725927
H        2.09417058      -1.73611967       0.98257089
H        3.36578667       0.30192664       0.69936573
16
Frame=10 idx=005080 GeodesicLength=0.5615795387060221 rxn_smarts="[C:1]([C:2]([C:3]([C:4]([C:5](=[O:6])[H:16])([H:14])[H:15])([H:12])[H:13])([H:10])[H:11])([H:7])([H:8])[H:9]>>[C:1]([C:2]([C:3]([O:6][C:5](=[C:4]([H:14])[H:15])[H:16])([H:12])[H:13])([H:10])[H:11])([H:7])([H:8])[H:9]"
C       -2.37321974       0.44511968       0.02929254
C       -1.07330663      -0.35381721      -0.07984159
C        0.13866978       0.55000534      -0.16409536
C        1.79916204      -1.08032762       0.14506005
C        2.53903506       0.09542799       0.00710371
O        2.03688953       1.05214381      -0.64948227
H       -3.23470187      -0.22005047       0.10156555
H       -2.37059775       1.09008553       0.91067490
H       -2.51619601       1.08388872      -0.84505631
H       -0.97799305      -1.00329068       0.79390389
H       -1.12235450      -0.98273097      -0.97304894
H       -0.03395229       1.24217102      -0.98976293
H        0.25036336       1.10035584       0.77312940
H        1.54501449      -1.59209608      -0.77801404
H        2.07584711      -1.73959302       0.96459299
H        3.31734049       0.31270813       0.75397842
16
Frame=11 idx=005080 GeodesicLength=0.6193224685053231 rxn_smarts="[C:1]([C:2]([C:3]([C:4]([C:5](=[O:6])[H:16])([H:14])[H:15])([H:12])[H:13])([H:10])[H:11])([H:7])([H:8])[H:9]>>[C:1]([C:2]([C:3]([O:6][C:5](=[C:4]([H:14])[H:15])[H:16])([H:12])[H:13])([H:10])[H:11])([H:7])([H:8])[H:9]"
C       -2.36822042       0.45003072       0.03772388
C       -1.07211247      -0.35342598      -0.07380736
C        0.14958088       0.53968548      -0.17556225
C        1.79848600      -1.08621270       0.11756578
C        2.53290603       0.09870312       0.01711599
O        2.03173818       1.05514242      -0.64332036
H       -3.23228033      -0.21008458       0.12366062
H       -2.35592322       1.10471236       0.91191623
H       -2.51533496       1.08076800      -0.84185324
H       -0.97355608      -0.99315891       0.80716472
H       -1.13012842      -0.99184875      -0.95982103
H       -0.03620850       1.22179242      -1.00837125
H        0.24404438       1.11027730       0.75305193
H        1.60455505      -1.60420802      -0.81711366
H        2.05609922      -1.74304425       0.94534416
H        3.26635465       0.32087136       0.80630583
16
Frame=12 idx=005080 GeodesicLength=0.6775036895614391 rxn_smarts="[C:1]([C:2]([C:3]([C:4]([C:5](=[O:6])[H:16])([H:14])[H:15])([H:12])[H:13])([H:10])[H:11])([H:7])([H:8])[H:9]>>[C:1]([C:2]([C:3]([O:6][C:5](=[C:4]([H:14])[H:15])[H:16])([H:12])[H:13])([H:10])[H:11])([H:7])([H:8])[H:9]"
C       -2.36323498       0.45489419       0.04599095
C       -1.07069541      -0.35274730      -0.06721856
C        0.16027138       0.52975680      -0.18621883
C        1.79809063      -1.09169132       0.08906929
C        2.52624241       0.10174270       0.02722370
O        2.02635547       1.05814052      -0.63699805
H       -3.22958584      -0.20023961       0.14539158
H       -2.34179060       1.11937451       0.91266859
H       -2.51440876       1.07731724      -0.83890292
H       -0.96876951      -0.98236808       0.82104502
H       -1.13714619      -1.00083948      -0.94570836
H       -0.03836646       1.20120350      -1.02634425
H        0.23762108       1.12043529       0.73303750
H        1.66752114      -1.61504146      -0.85409741
H        2.03472268      -1.74631244       0.92485925
H        3.21317295       0.32637493       0.85620251
16
Frame=13 idx=005080 GeodesicLength=0.7361784657213345 rxn_smarts="[C:1]([C:2]([C:3]([C:4]([C:5](=[O:6])[H:16])([H:14])[H:15])([H:12])[H:13])([H:10])[H:11])([H:7])([H:8])[H:9]>>[C:1]([C:2]([C:3]([O:6][C:5](=[C:4]([H:14])[H:15])[H:16])([H:12])[H:13])([H:10])[H:11])([H:7])([H:8])[H:9]"
C       -2.35831534       0.45969985       0.05409682
C       -1.06910187      -0.35180380      -0.06008441
C        0.17071878       0.52021781      -0.19608009
C        1.79791555      -1.09668065       0.05946160
C        2.51900674       0.10455036       0.03744618
O        2.02076673       1.06123591      -0.63038587
H       -3.22668875      -0.19051761       0.16680542
H       -2.32822616       1.13409457       0.91291378
H       -2.51348611       1.07349089      -0.83621941
H       -0.96367198      -0.97093958       0.83552988
H       -1.14348655      -1.00972434      -0.93072139
H       -0.04044106       1.18039297      -1.04369733
H        0.23104165       1.13081594       0.71309386
H        1.73411596      -1.62455075      -0.88861694
H        2.01138604      -1.74935379       0.90304154
H        3.15846638       0.32907223       0.90341636
16
Frame=14 idx=005080 GeodesicLength=0.7954330177061851 rxn_smarts="[C:1]([C:2]([C:3]([C:4]([C:5](=[O:6])[H:16])([H:14])[H:15])([H:12])[H:13])([H:10])[H:11])([H:7])([H:8])[H:9]>>[C:1]([C:2]([C:3]([O:6][C:5](=[C:4]([H:14])[H:15])[H:16])([H:12])[H:13])([H:10])[H:11])([H:7])([H:8])[H:9]"
C       -2.35340327       0.46444225       0.06214194
C       -1.06727364      -0.35058244      -0.05249355
C        0.18097237       0.51108324      -0.20524272
C        1.79809216      -1.10115409       0.02860227
C        2.51127223       0.10704228       0.04758836
O        2.01501529       1.06432819      -0.62371077
H       -3.22353536      -0.18093362       0.18796772
H       -2.31512445       1.14875704       0.91284064
H       -2.51255595       1.06938577      -0.83360907
H       -0.95815763      -0.95892417       0.85045482
H       -1.14916512      -1.01840694      -0.91500374
H       -0.04242928       1.15941900      -1.06046055
H        0.22439054       1.14138639       0.69312549
H        1.80431535      -1.63287549      -0.92001519
H        1.98588563      -1.75204533       0.87968366
H        3.10170111       0.32907790       0.94813070
16
Frame=15 idx=005080 GeodesicLength=0.8554149101394426 rxn_smarts="[C:1]([C:2]([C:3]([C:4]([C:5](=[O:6])[H:16])([H:14])[H:15])([H:12])[H:13])([H:10])[H:11])([H:7])([H:8])[H:9]>>[C:1]([C:2]([C:3]([O:6][C:5](=[C:4]([H:14])[H:15])[H:16])([H:12])[H:13])([H:10])[H:11])([H:7])([H:8])[H:9]"
C       -2.34846457       0.46910857       0.07017337
C       -1.06516747      -0.34909721      -0.04442582
C        0.19107122       0.50236300      -0.21375215
C        1.79867263      -1.10503238      -0.00374349
C        2.50306899       0.10919853       0.05762099
O        2.00918412       1.06745099      -0.61696380
H       -3.22009275      -0.17149962       0.20900685
H       -2.30241745       1.16340315       0.91245680
H       -2.51162815       1.06493335      -0.83104993
H       -0.95213927      -0.94630214       0.86584907
H       -1.15418682      -1.02692918      -0.89851056
H       -0.04430084       1.13823702      -1.07670432
H        0.21769117       1.15218686       0.67306493
H        1.87810402      -1.63999503      -0.94788870
H        1.95792531      -1.75439348       0.85443531
H        3.04267986       0.32636756       0.99043145
16
Frame=16 idx=005080 GeodesicLength=0.9162891298768506 rxn_smarts="[C:1]([C:2]([C:3]([C:4]([C:5](=[O:6])[H:16])([H:14])[H:15])([H:12])[H:13])([H:10])[H:11])([H:7])([H:8])[H:9]>>[C:1]([C:2]([C:3]([O:6][C:5](=[C:4]([H:14])[H:15])[H:16])([H:12])[H:13])([H:10])[H:11])([H:7])([H:8])[H:9]"
C       -2.34347462       0.47367273       0.07823901
C       -1.06275843      -0.34736081      -0.03592202
C        0.20103971       0.49407142      -0.22166160
C        1.79972168      -1.10822486      -0.03777944
C        2.49440772       0.11099201       0.06746398
O        2.00330257       1.07062942      -0.61016780
H       -3.21633439      -0.16225103       0.22997947
H       -2.29005253       1.17797239       0.91183558
H       -2.51071278       1.06013551      -0.82846031
H       -0.94556538      -0.93311152       0.88163861
H       -1.15856966      -1.03526526      -0.88130366
H       -0.04605683       1.11688649      -1.09243820
H        0.21096531       1.16319558       0.65287764
H        1.95544219      -1.64596436      -0.97156526
H        1.92714669      -1.75627278       0.82703660
H        2.98149877       0.32089507       1.03022740
