10
Frame=0 idx=004300 GeodesicLength=0.0 rxn_smarts="[O:1]([c:2]1[n:3][c:4]([H:8])[c:5]([H:9])[n:6]1[H:10])[H:7]>>[O:1]([C:2]1=[N:3][C:4]([H:8])([H:9])[C-:5]=[N+:6]1[H:10])[H:7]"
O        2.12961710      -0.22687435      -0.03431310
C        0.80507986      -0.14994990      -0.06376352
N       -0.02630002      -1.13599711       0.01490240
C       -1.26304231      -0.49099538      -0.06593462
C       -1.17437739       0.92707659      -0.25236778
N        0.20212154       1.06291269      -0.16953556
H        2.36440208      -1.15811695       0.03966312
H       -2.17515726      -1.06299143      -0.16729174
H       -1.55304585       0.29440362       0.89233353
H        0.69070223       1.94053223      -0.19369273
10
Frame=1 idx=004300 GeodesicLength=0.040015970861551294 rxn_smarts="[O:1]([c:2]1[n:3][c:4]([H:8])[c:5]([H:9])[n:6]1[H:10])[H:7]>>[O:1]([C:2]1=[N:3][C:4]([H:8])([H:9])[C-:5]=[N+:6]1[H:10])[H:7]"
O        2.13253174      -0.22767855      -0.04294232
C        0.80726554      -0.15134904      -0.05420125
N       -0.02383133      -1.13556998       0.03549238
C       -1.26260639      -0.49290256      -0.05570075
C       -1.17009074       0.92255216      -0.25399904
N        0.20373084       1.06201024      -0.16864773
H        2.36828582      -1.15926460       0.02296914
H       -2.16996773      -1.06651127      -0.18643228
H       -1.57722937       0.30878068       0.89570098
H        0.69191162       1.93993293      -0.19223914
10
Frame=2 idx=004300 GeodesicLength=0.08000935979207482 rxn_smarts="[O:1]([c:2]1[n:3][c:4]([H:8])[c:5]([H:9])[n:6]1[H:10])[H:7]>>[O:1]([C:2]1=[N:3][C:4]([H:8])([H:9])[C-:5]=[N+:6]1[H:10])[H:7]"
O        2.13523373      -0.22858856      -0.05099047
C        0.80948208      -0.15275145      -0.04566908
N       -0.02133850      -1.13495540       0.05564339
C       -1.26221674      -0.49476377      -0.04519742
C       -1.16586092       0.91803659      -0.25499866
N        0.20532780       1.06110269      -0.16803959
H        2.37163017      -1.16055188       0.00650847
H       -2.16380965      -1.07011394      -0.20525118
H       -1.60152503       0.32323096       0.89871341
H        0.69307706       1.93935475      -0.19071887
10
Frame=3 idx=004300 GeodesicLength=0.11990761922218345 rxn_smarts="[O:1]([c:2]1[n:3][c:4]([H:8])[c:5]([H:9])[n:6]1[H:10])[H:7]>>[O:1]([C:2]1=[N:3][C:4]([H:8])([H:9])[C-:5]=[N+:6]1[H:10])[H:7]"
O        2.13772434      -0.22948859      -0.05773071
C        0.81162546      -0.15431936      -0.03988763
N       -0.01890247      -1.13430515       0.07372264
C       -1.26197703      -0.49652371      -0.03454809
C       -1.16184908       0.91372411      -0.25469362
N        0.20684474       1.06018269      -0.16817600
H        2.37454073      -1.16178540      -0.00812045
H       -2.15706396      -1.07351036      -0.22324941
H       -1.62511470       0.33725505       0.90208205
H        0.69417196       1.93877071      -0.18939878
10
Frame=4 idx=004300 GeodesicLength=0.15971624531960357 rxn_smarts="[O:1]([c:2]1[n:3][c:4]([H:8])[c:5]([H:9])[n:6]1[H:10])[H:7]>>[O:1]([C:2]1=[N:3][C:4]([H:8])([H:9])[C-:5]=[N+:6]1[H:10])[H:7]"
O        2.14004183      -0.23034791      -0.06403650
C        0.81360302      -0.15623349      -0.03833363
N       -0.01656948      -1.13380728       0.08816904
C       -1.26200861      -0.49813785      -0.02390979
C       -1.15823740       0.90982628      -0.25238701
N        0.20819848       1.05923742      -0.16932728
H        2.37733306      -1.16270152      -0.01823773
H       -2.15021194      -1.07629485      -0.24019406
H       -1.64732457       0.35032322       0.90662026
H        0.69517561       1.93813600      -0.18836330
10
Frame=5 idx=004300 GeodesicLength=0.199536091211888 rxn_smarts="[O:1]([c:2]1[n:3][c:4]([H:8])[c:5]([H:9])[n:6]1[H:10])[H:7]>>[O:1]([C:2]1=[N:3][C:4]([H:8])([H:9])[C-:5]=[N+:6]1[H:10])[H:7]"
O        2.14229228      -0.23119038      -0.06956660
C        0.81549155      -0.15834955      -0.03859645
N       -0.01424579      -1.13333538       0.10132849
C       -1.26216687      -0.49970181      -0.01319561
C       -1.15478933       0.90607760      -0.24921375
N        0.20948769       1.05824664      -0.17100534
H        2.38005301      -1.16357106      -0.02721722
H       -2.14290984      -1.07885016      -0.25647140
H       -1.66935704       0.36322603       0.91125060
H        0.69614434       1.93744808      -0.18731271
10
Frame=6 idx=004300 GeodesicLength=0.23936704875553114 rxn_smarts="[O:1]([c:2]1[n:3][c:4]([H:8])[c:5]([H:9])[n:6]1[H:10])[H:7]>>[O:1]([C:2]1=[N:3][C:4]([H:8])([H:9])[C-:5]=[N+:6]1[H:10])[H:7]"
O        2.14454251      -0.23219492      -0.07496616
C        0.81744625      -0.16039606      -0.03757059
N       -0.01181067      -1.13259600       0.11621728
C       -1.26225907      -0.50131475      -0.00225754
C       -1.15120745       0.90215444      -0.24641259
N        0.21083056       1.05721113      -0.17237193
H        2.38251274      -1.16476161      -0.03859022
H       -2.13443219      -1.08165853      -0.27269438
H       -1.69274485       0.37681972       0.91444097
H        0.69712218       1.93673657      -0.18579485
10
Frame=7 idx=004300 GeodesicLength=0.2791342480840839 rxn_smarts="[O:1]([c:2]1[n:3][c:4]([H:8])[c:5]([H:9])[n:6]1[H:10])[H:7]>>[O:1]([C:2]1=[N:3][C:4]([H:8])([H:9])[C-:5]=[N+:6]1[H:10])[H:7]"
O        2.14668817      -0.23305106      -0.07979439
C        0.81915043      -0.16290212      -0.04077409
N       -0.00945083      -1.13212479       0.12743458
C       -1.26258655      -0.50280287       0.00853151
C       -1.14799499       0.89865495      -0.24174196
N        0.21200430       1.05610414      -0.17484475
H        2.38521027      -1.16554144      -0.04550613
H       -2.12622592      -1.08373042      -0.28769140
H       -1.71482878       0.38950464       0.91886044
H        0.69803389       1.93588897      -0.18447381
10
Frame=8 idx=004300 GeodesicLength=0.31888201512011993 rxn_smarts="[O:1]([c:2]1[n:3][c:4]([H:8])[c:5]([H:9])[n:6]1[H:10])[H:7]>>[O:1]([C:2]1=[N:3][C:4]([H:8])([H:9])[C-:5]=[N+:6]1[H:10])[H:7]"
O        2.14876680      -0.23387789      -0.08477810
C        0.82071448      -0.16567732      -0.04602489
N       -0.00708663      -1.13174745       0.13710428
C       -1.26301742      -0.50426407       0.01926050
C       -1.14492458       0.89537538      -0.23603321
N        0.21309998       1.05494871      -0.17773438
H        2.38806284      -1.16615070      -0.05022422
H       -2.11785216      -1.08538545      -0.30198650
H       -1.73671658       0.40183609       0.92351575
H        0.69895327       1.93494271      -0.18309922
10
Frame=9 idx=004300 GeodesicLength=0.35862818665100976 rxn_smarts="[O:1]([c:2]1[n:3][c:4]([H:8])[c:5]([H:9])[n:6]1[H:10])[H:7]>>[O:1]([C:2]1=[N:3][C:4]([H:8])([H:9])[C-:5]=[N+:6]1[H:10])[H:7]"
O        2.15079095      -0.23478613      -0.09035458
C        0.82221968      -0.16856743      -0.05173973
N       -0.00464132      -1.13130881       0.14668498
C       -1.26343868      -0.50573763       0.02999090
C       -1.14184322       0.89216842      -0.22981586
N        0.21418466       1.05376626      -0.18055780
H        2.39093372      -1.16677157      -0.05441748
H       -2.10894103      -1.08687417      -0.31590000
H       -1.75918473       0.41419310       0.92762732
H        0.69991996       1.93391796      -0.18151775
10
Frame=10 idx=004300 GeodesicLength=0.39840307959914784 rxn_smarts="[O:1]([c:2]1[n:3][c:4]([H:8])[c:5]([H:9])[n:6]1[H:10])[H:7]>>[O:1]([C:2]1=[N:3][C:4]([H:8])([H:9])[C-:5]=[N+:6]1[H:10])[H:7]"
O        2.15276929      -0.23583090      -0.09672588
C        0.82371501      -0.17149779      -0.05722596
N       -0.00206583      -1.13070786       0.15685832
C       -1.26380293      -0.50723692       0.04076028
C       -1.13868168       0.88896714      -0.22334751
N        0.21530075       1.05257106      -0.18316284
H        2.39374400      -1.16750972      -0.05887741
H       -2.09933180      -1.08835637      -0.32950109
H       -1.78260223       0.42676142       0.93076005
H        0.70095541       1.93283994      -0.17953794
10
Frame=11 idx=004300 GeodesicLength=0.4382252372002421 rxn_smarts="[O:1]([c:2]1[n:3][c:4]([H:8])[c:5]([H:9])[n:6]1[H:10])[H:7]>>[O:1]([C:2]1=[N:3][C:4]([H:8])([H:9])[C-:5]=[N+:6]1[H:10])[H:7]"
O        2.15470522      -0.23709073      -0.10426410
C        0.82524040      -0.17440039      -0.06191744
N        0.00067421      -1.12984901       0.16817658
C       -1.26407354      -0.50875841       0.05160336
C       -1.13539642       0.88572891      -0.21678135
N        0.21647534       1.05138216      -0.18537957
H        2.39643839      -1.16846041      -0.06410372
H       -2.08884240      -1.08994353      -0.34285364
H       -1.80729646       0.43965753       0.93251767
H        0.70207526       1.93173391      -0.17699779
10
Frame=12 idx=004300 GeodesicLength=0.47802606368277983 rxn_smarts="[O:1]([c:2]1[n:3][c:4]([H:8])[c:5]([H:9])[n:6]1[H:10])[H:7]>>[O:1]([C:2]1=[N:3][C:4]([H:8])([H:9])[C-:5]=[N+:6]1[H:10])[H:7]"
O        2.15660921      -0.23861146      -0.11301333
C        0.82682991      -0.17723849      -0.06558853
N        0.00360262      -1.12867019       0.18086989
C       -1.26424318      -0.51029700       0.06255109
C       -1.13198409       0.88245899      -0.21016150
N        0.21772581       1.05022094      -0.18718492
H        2.39897056      -1.16969304      -0.07040788
H       -2.07740385      -1.09171530      -0.35590995
H       -1.83337490       0.45291580       0.93262903
H        0.70326789       1.93062975      -0.17378390
10
Frame=13 idx=004300 GeodesicLength=0.5178930271589199 rxn_smarts="[O:1]([c:2]1[n:3][c:4]([H:8])[c:5]([H:9])[n:6]1[H:10])[H:7]>>[O:1]([C:2]1=[N:3][C:4]([H:8])([H:9])[C-:5]=[N+:6]1[H:10])[H:7]"
O        2.15844777      -0.24039931      -0.12262610
C        0.82851166      -0.17993503      -0.06774960
N        0.00674756      -1.12706333       0.19542096
C       -1.26427092      -0.51185064       0.07370178
C       -1.12837892       0.87909543      -0.20362499
N        0.21908687       1.04910223      -0.18846496
H        2.40119087      -1.17131046      -0.07878636
H       -2.06480017      -1.09382395      -0.36866779
H       -1.86112263       0.46666431       0.93067721
H        0.70458790       1.92952076      -0.16988014
10
Frame=14 idx=004300 GeodesicLength=0.5577973937643138 rxn_smarts="[O:1]([c:2]1[n:3][c:4]([H:8])[c:5]([H:9])[n:6]1[H:10])[H:7]>>[O:1]([C:2]1=[N:3][C:4]([H:8])([H:9])[C-:5]=[N+:6]1[H:10])[H:7]"
O        2.16021537      -0.24238014      -0.13287151
C        0.83022674      -0.18260841      -0.06947892
N        0.01007678      -1.12519051       0.21061828
C       -1.26420518      -0.51340348       0.08494921
C       -1.12468675       0.87579759      -0.19662266
N        0.22050170       1.04801664      -0.18950398
H        2.40324336      -1.17314751      -0.08782884
H       -2.05142324      -1.09597454      -0.38089572
H       -1.88995701       0.48049714       0.92724670
H        0.70600824       1.92839321      -0.16561256
10
Frame=15 idx=004300 GeodesicLength=0.5977149356950048 rxn_smarts="[O:1]([c:2]1[n:3][c:4]([H:8])[c:5]([H:9])[n:6]1[H:10])[H:7]>>[O:1]([C:2]1=[N:3][C:4]([H:8])([H:9])[C-:5]=[N+:6]1[H:10])[H:7]"
O        2.16190949      -0.24449486      -0.14349768
C        0.83195453      -0.18529289      -0.07110457
N        0.01357782      -1.12313240       0.22597002
C       -1.26406273      -0.51495808       0.09627555
C       -1.12093198       0.87261144      -0.18891647
N        0.22195464       1.04694987      -0.19040895
H        2.40518267      -1.17512102      -0.09715367
H       -2.03746992      -1.09803475      -0.39249978
H       -1.91965295       0.49425585       0.92252100
H        0.70753842       1.92721684      -0.16118545
10
Frame=16 idx=004300 GeodesicLength=0.637640043186985 rxn_smarts="[O:1]([c:2]1[n:3][c:4]([H:8])[c:5]([H:9])[n:6]1[H:10])[H:7]>>[O:1]([C:2]1=[N:3][C:4]([H:8])([H:9])[C-:5]=[N+:6]1[H:10])[H:7]"
O        2.16352811      -0.24670167      -0.15433894
C        0.83368290      -0.18800285      -0.07276240
N        0.01724434      -1.12095544       0.24118517
C       -1.26384579      -0.51652514       0.10767686
C       -1.11711658       0.86956621      -0.18033314
N        0.22343496       1.04589376      -0.19122834
H        2.40704123      -1.17717920      -0.10657496
H       -2.02307361      -1.09990860      -0.40344167
H       -1.95008442       0.50783735       0.91658815
H        0.70918885       1.92597558      -0.15677073
