11
Frame=0 idx=001766 GeodesicLength=0.0 rxn_smarts="[N:1]([c:2]1[c:3]([H:9])[n:4]([H:10])[n:5][c:6]1[H:11])([H:7])[H:8]>>[N:1]([C+:2][C@@:6]1([H:11])[C:3]([H:9])[N:4]([H:10])[N-:5]1)([H:7])[H:8]"
N       -1.84294988      -0.35438386      -0.21269325
C       -0.58201341       0.06516480      -0.34918787
C        0.75721838      -0.65090195       0.11497145
N        1.82647258       0.07215384      -0.26542667
N        1.30900518       1.32200194      -0.28318722
C        0.13021240       0.89734939       0.48017006
H       -2.48973298       0.11082799       0.40466715
H       -2.24321193      -0.97902931      -0.88886977
H        0.74332163      -1.65963040       0.50292454
H        2.54074636      -0.20674050      -0.92205183
H       -0.14906838       1.38318805       1.41868339
11
Frame=1 idx=001766 GeodesicLength=0.03716771086368023 rxn_smarts="[N:1]([c:2]1[c:3]([H:9])[n:4]([H:10])[n:5][c:6]1[H:11])([H:7])[H:8]>>[N:1]([C+:2][C@@:6]1([H:11])[C:3]([H:9])[N:4]([H:10])[N-:5]1)([H:7])[H:8]"
N       -1.85036712      -0.34015430      -0.21795672
C       -0.58379289       0.06270796      -0.35923765
C        0.76100683      -0.65734048       0.11296621
N        1.82630637       0.07241363      -0.26372994
N        1.30998481       1.32074934      -0.27588286
C        0.12958375       0.89526470       0.47600747
H       -2.48532285       0.11969967       0.41553794
H       -2.25157659      -0.98870555      -0.87056157
H        0.75191221      -1.67236117       0.48348876
H        2.55465475      -0.20059928      -0.90689942
H       -0.16238928       1.38832548       1.40626779
11
Frame=2 idx=001766 GeodesicLength=0.07434430916523516 rxn_smarts="[N:1]([c:2]1[c:3]([H:9])[n:4]([H:10])[n:5][c:6]1[H:11])([H:7])[H:8]>>[N:1]([C+:2][C@@:6]1([H:11])[C:3]([H:9])[N:4]([H:10])[N-:5]1)([H:7])[H:8]"
N       -1.85800891      -0.32513950      -0.22432337
C       -0.58570893       0.06048418      -0.36941411
C        0.76458812      -0.66378093       0.11102893
N        1.82595510       0.07253437      -0.26214511
N        1.31096487       1.31941505      -0.26857744
C        0.12890417       0.89328197       0.47185355
H       -2.48033190       0.12737199       0.42691342
H       -2.25950183      -0.99824567      -0.85136479
H        0.76029254      -1.68495262       0.46354871
H        2.56846485      -0.19466294      -0.89108274
H       -0.17561808       1.39369411       1.39356294
11
Frame=3 idx=001766 GeodesicLength=0.11138994901245862 rxn_smarts="[N:1]([c:2]1[c:3]([H:9])[n:4]([H:10])[n:5][c:6]1[H:11])([H:7])[H:8]>>[N:1]([C+:2][C@@:6]1([H:11])[C:3]([H:9])[N:4]([H:10])[N-:5]1)([H:7])[H:8]"
N       -1.86572602      -0.30945215      -0.23155088
C       -0.58771526       0.05842162      -0.37954594
C        0.76800993      -0.67023199       0.10922374
N        1.82532587       0.07248602      -0.26074544
N        1.31178970       1.31794226      -0.26130083
C        0.12816113       0.89139293       0.46773073
H       -2.47476946       0.13375839       0.43856648
H       -2.26694108      -1.00731199      -0.83142023
H        0.76856722      -1.69735850       0.44317232
H        2.58205851      -0.18896540      -0.87465828
H       -0.18876054       1.39931883       1.38052833
11
Frame=4 idx=001766 GeodesicLength=0.14839420513330687 rxn_smarts="[N:1]([c:2]1[c:3]([H:9])[n:4]([H:10])[n:5][c:6]1[H:11])([H:7])[H:8]>>[N:1]([C+:2][C@@:6]1([H:11])[C:3]([H:9])[N:4]([H:10])[N-:5]1)([H:7])[H:8]"
N       -1.87345503      -0.29413451      -0.23877877
C       -0.58991112       0.05604545      -0.38936777
C        0.77149838      -0.67683576       0.10760287
N        1.82441244       0.07240679      -0.25968624
N        1.31215462       1.31634192      -0.25419598
C        0.12727438       0.88928185       0.46376418
H       -2.46888017       0.14019766       0.44936456
H       -2.27406289      -1.01527205      -0.81087973
H        0.77742179      -1.70962650       0.42266842
H        2.59532180      -0.18319989      -0.85785167
H       -0.20177420       1.40479504       1.36736012
11
Frame=5 idx=001766 GeodesicLength=0.18545004204406088 rxn_smarts="[N:1]([c:2]1[c:3]([H:9])[n:4]([H:10])[n:5][c:6]1[H:11])([H:7])[H:8]>>[N:1]([C+:2][C@@:6]1([H:11])[C:3]([H:9])[N:4]([H:10])[N-:5]1)([H:7])[H:8]"
N       -1.88117297      -0.27958114      -0.24559343
C       -0.59229279       0.05318668      -0.39875274
C        0.77517965      -0.68360408       0.10625041
N        1.82336574       0.07236008      -0.25908367
N        1.31215783       1.31465628      -0.24736442
C        0.12632283       0.88695391       0.46003709
H       -2.46308750       0.14689366       0.45915738
H       -2.28131463      -1.02200128      -0.79028547
H        0.78701707      -1.72172895       0.40222189
H        2.60838972      -0.17732224      -0.84080559
H       -0.21456496       1.41018710       1.35421855
11
Frame=6 idx=001766 GeodesicLength=0.2223761198523034 rxn_smarts="[N:1]([c:2]1[c:3]([H:9])[n:4]([H:10])[n:5][c:6]1[H:11])([H:7])[H:8]>>[N:1]([C+:2][C@@:6]1([H:11])[C:3]([H:9])[N:4]([H:10])[N-:5]1)([H:7])[H:8]"
N       -1.88861905      -0.26594867      -0.25161270
C       -0.59479285       0.04981118      -0.40748695
C        0.77911252      -0.69056534       0.10522185
N        1.82198428       0.07227091      -0.25902212
N        1.31155662       1.31280111      -0.24081917
C        0.12530154       0.88435873       0.45655181
H       -2.45737135       0.15400376       0.46783924
H       -2.28859968      -1.02723211      -0.77010930
H        0.79747224      -1.73364853       0.38209680
H        2.62105669      -0.17123915      -0.82366934
H       -0.22710097       1.41538811       1.34100988
11
Frame=7 idx=001766 GeodesicLength=0.2592975503604157 rxn_smarts="[N:1]([c:2]1[c:3]([H:9])[n:4]([H:10])[n:5][c:6]1[H:11])([H:7])[H:8]>>[N:1]([C+:2][C@@:6]1([H:11])[C:3]([H:9])[N:4]([H:10])[N-:5]1)([H:7])[H:8]"
N       -1.89595605      -0.25334790      -0.25693128
C       -0.59747157       0.04587013      -0.41572566
C        0.78332631      -0.69770950       0.10438770
N        1.82045425       0.07223438      -0.25953634
N        1.31053845       1.31084614      -0.23455310
C        0.12422348       0.88144136       0.45332329
H       -2.45201835       0.16198397       0.47539486
H       -2.29611178      -1.03134363      -0.75009395
H        0.80883698      -1.74530941       0.36209572
H        2.63353603      -0.16494835      -0.80626321
H       -0.23935776       1.42028281       1.32790196
11
Frame=8 idx=001766 GeodesicLength=0.29623383819292365 rxn_smarts="[N:1]([c:2]1[c:3]([H:9])[n:4]([H:10])[n:5][c:6]1[H:11])([H:7])[H:8]>>[N:1]([C+:2][C@@:6]1([H:11])[C:3]([H:9])[N:4]([H:10])[N-:5]1)([H:7])[H:8]"
N       -1.90317764      -0.24151859      -0.26157358
C       -0.60032781       0.04147859      -0.42350941
C        0.78776740      -0.70502487       0.10369674
N        1.81871000       0.07219511      -0.26066587
N        1.30910776       1.30877386      -0.22863866
C        0.12310890       0.87828315       0.45027792
H       -2.44687248       0.17044971       0.48223093
H       -2.30388265      -1.03440860      -0.73042785
H        0.82095637      -1.75677520       0.34216814
H        2.64592908      -0.15844902      -0.78832460
H       -0.25131894       1.42499585       1.31476625
11
Frame=9 idx=001766 GeodesicLength=0.33318276718090056 rxn_smarts="[N:1]([c:2]1[c:3]([H:9])[n:4]([H:10])[n:5][c:6]1[H:11])([H:7])[H:8]>>[N:1]([C+:2][C@@:6]1([H:11])[C:3]([H:9])[N:4]([H:10])[N-:5]1)([H:7])[H:8]"
N       -1.91033116      -0.23036824      -0.26563492
C       -0.60338468       0.03667996      -0.43090880
C        0.79241268      -0.71251312       0.10303130
N        1.81673770       0.07213308      -0.26247644
N        1.30728084       1.30657952      -0.22308417
C        0.12195678       0.87486678       0.44738144
H       -2.44194376       0.17948387       0.48841593
H       -2.31186619      -1.03662563      -0.71084843
H        0.83376245      -1.76800267       0.32208649
H        2.65835882      -0.15172881      -0.76955451
H       -0.26298349       1.42949526       1.30159210
11
Frame=10 idx=001766 GeodesicLength=0.37016816510227385 rxn_smarts="[N:1]([c:2]1[c:3]([H:9])[n:4]([H:10])[n:5][c:6]1[H:11])([H:7])[H:8]>>[N:1]([C+:2][C@@:6]1([H:11])[C:3]([H:9])[N:4]([H:10])[N-:5]1)([H:7])[H:8]"
N       -1.91747593      -0.21975535      -0.26918515
C       -0.60667113       0.03153810      -0.43799590
C        0.79723417      -0.72015802       0.10227389
N        1.81453412       0.07205429      -0.26506721
N        1.30510377       1.30426616      -0.21793068
C        0.12078477       0.87120820       0.44458887
H       -2.43722293       0.18906156       0.49405698
H       -2.32007040      -1.03820692      -0.69114259
H        0.84713450      -1.77902730       0.30164545
H        2.67097554      -0.14475631      -0.74959232
H       -0.27432647       1.43377559       1.28834865
11
Frame=11 idx=001766 GeodesicLength=0.40712795509916 rxn_smarts="[N:1]([c:2]1[c:3]([H:9])[n:4]([H:10])[n:5][c:6]1[H:11])([H:7])[H:8]>>[N:1]([C+:2][C@@:6]1([H:11])[C:3]([H:9])[N:4]([H:10])[N-:5]1)([H:7])[H:8]"
N       -1.92457575      -0.20962884      -0.27223444
C       -0.61018252       0.02608287      -0.44478925
C        0.80220542      -0.72795660       0.10138149
N        1.81202681       0.07192463      -0.26854084
N        1.30257192       1.30181962      -0.21323050
C        0.11960342       0.86731950       0.44184437
H       -2.43259394       0.19897329       0.49938247
H       -2.32850731      -1.03904085      -0.67150824
H        0.86109348      -1.78977711       0.28096896
H        2.68365343      -0.13754524      -0.72826311
H       -0.28529497       1.43782873       1.27498910
11
Frame=12 idx=001766 GeodesicLength=0.44408428714699266 rxn_smarts="[N:1]([c:2]1[c:3]([H:9])[n:4]([H:10])[n:5][c:6]1[H:11])([H:7])[H:8]>>[N:1]([C+:2][C@@:6]1([H:11])[C:3]([H:9])[N:4]([H:10])[N-:5]1)([H:7])[H:8]"
N       -1.93168015      -0.19992503      -0.27487415
C       -0.61391473       0.02035595      -0.45132860
C        0.80737251      -0.73588853       0.10030094
N        1.80931245       0.07173580      -0.27298678
N        1.29978282       1.29924822      -0.20893723
C        0.11844946       0.86321656       0.43916493
H       -2.42809546       0.20912465       0.50445475
H       -2.33713752      -1.03923155      -0.65202031
H        0.87547527      -1.80014881       0.26027843
H        2.69631054      -0.13010711      -0.70567881
H       -0.29587519       1.44161985       1.26162682
11
Frame=13 idx=001766 GeodesicLength=0.48104551643116444 rxn_smarts="[N:1]([c:2]1[c:3]([H:9])[n:4]([H:10])[n:5][c:6]1[H:11])([H:7])[H:8]>>[N:1]([C+:2][C@@:6]1([H:11])[C:3]([H:9])[N:4]([H:10])[N-:5]1)([H:7])[H:8]"
N       -1.93883142      -0.19058097      -0.27704001
C       -0.61792874       0.01437983      -0.45767174
C        0.81270355      -0.74396296       0.09885253
N        1.80630413       0.07147991      -0.27866366
N        1.29669097       1.29654113      -0.20526502
C        0.11732387       0.85889315       0.43643062
H       -2.42368935       0.21952862       0.50944221
H       -2.34602307      -1.03881756      -0.63245983
H        0.89031974      -1.81021485       0.23921782
H        2.70913949      -0.12237468      -0.68100785
H       -0.30600916       1.44512837       1.24816493
11
Frame=14 idx=001766 GeodesicLength=0.5180613992861762 rxn_smarts="[N:1]([c:2]1[c:3]([H:9])[n:4]([H:10])[n:5][c:6]1[H:11])([H:7])[H:8]>>[N:1]([C+:2][C@@:6]1([H:11])[C:3]([H:9])[N:4]([H:10])[N-:5]1)([H:7])[H:8]"
N       -1.94606974      -0.18155243      -0.27881542
C       -0.62225232       0.00815679      -0.46387104
C        0.81819335      -0.75218619       0.09684888
N        1.80301905       0.07116626      -0.28567531
N        1.29333659       1.29370659      -0.20217062
C        0.11626432       0.85431782       0.43363634
H       -2.41929845       0.23035683       0.51418534
H       -2.35520218      -1.03802914      -0.61248075
H        0.90558690      -1.82003436       0.21764456
H        2.72201167      -0.11421217      -0.65391356
H       -0.31558919       1.44831002       1.23461158
11
Frame=15 idx=001766 GeodesicLength=0.5550386441451411 rxn_smarts="[N:1]([c:2]1[c:3]([H:9])[n:4]([H:10])[n:5][c:6]1[H:11])([H:7])[H:8]>>[N:1]([C+:2][C@@:6]1([H:11])[C:3]([H:9])[N:4]([H:10])[N-:5]1)([H:7])[H:8]"
N       -1.95341502      -0.17282250      -0.27998882
C       -0.62694943       0.00169153      -0.46998804
C        0.82387971      -0.76054113       0.09405214
N        1.79939432       0.07078416      -0.29453467
N        1.28962801       1.29067663      -0.20014607
C        0.11530939       0.84944843       0.43057025
H       -2.41491725       0.24145190       0.51907383
H       -2.36467949      -1.03672333      -0.59194907
H        0.92121757      -1.82943886       0.19506312
H        2.73508962      -0.10563214      -0.62298831
H       -0.32455744       1.45110533       1.22083565
11
Frame=16 idx=001766 GeodesicLength=0.591881621411827 rxn_smarts="[N:1]([c:2]1[c:3]([H:9])[n:4]([H:10])[n:5][c:6]1[H:11])([H:7])[H:8]>>[N:1]([C+:2][C@@:6]1([H:11])[C:3]([H:9])[N:4]([H:10])[N-:5]1)([H:7])[H:8]"
N       -1.96053268      -0.16431976      -0.28104799
C       -0.63166797      -0.00494604      -0.47596164
C        0.82979797      -0.76895972       0.09101828
N        1.79578415       0.07029154      -0.30387885
N        1.28582498       1.28742553      -0.19827980
C        0.11446109       0.84438319       0.42760341
H       -2.41037648       0.25268711       0.52365077
H       -2.37391155      -1.03493173      -0.57166816
H        0.93714611      -1.83843131       0.17296535
H        2.74657577      -0.09676563      -0.59156887
H       -0.33310139       1.45356681       1.20716750
