10
Frame=0 idx=002463 GeodesicLength=0.0 rxn_smarts="[O:1]=[C:2]1[C:3]([H:6])([H:7])[C:4]([H:8])([H:9])[N:5]1[H:10]>>[O-:1][C:2](=[C+:3][H:6])[N:5]([C:4]([H:7])([H:8])[H:9])[H:10]"
O        2.37096898       0.32189884       0.14658093
C        1.16727698       0.26467961       0.02802289
C        0.28905582       1.41317280       0.28867656
C       -0.98453615      -0.41883961      -0.20031404
N        0.38709476      -0.76404727      -0.40563283
H        0.08648872       1.51584584       1.36393772
H       -0.99599055       0.74794474      -0.22112953
H       -1.41212276      -0.75471717       0.74526305
H       -1.63709179      -0.66722175      -1.03865008
H        0.72885600      -1.65871602      -0.70675467
10
Frame=1 idx=002463 GeodesicLength=0.05683789257848746 rxn_smarts="[O:1]=[C:2]1[C:3]([H:6])([H:7])[C:4]([H:8])([H:9])[N:5]1[H:10]>>[O-:1][C:2](=[C+:3][H:6])[N:5]([C:4]([H:7])([H:8])[H:9])[H:10]"
O        2.36866074       0.33875297       0.14053201
C        1.16582361       0.26069032       0.02211549
C        0.28680816       1.40355895       0.29704859
C       -0.98449857      -0.41515000      -0.19980009
N        0.38656322      -0.76928713      -0.40473152
H        0.09949225       1.51023541       1.37410097
H       -1.00202538       0.76619913      -0.23697449
H       -1.41615935      -0.75865124       0.74140244
H       -1.63433686      -0.66932373      -1.03870529
H        0.72967218      -1.66702467      -0.69498811
10
Frame=2 idx=002463 GeodesicLength=0.11366960750285825 rxn_smarts="[O:1]=[C:2]1[C:3]([H:6])([H:7])[C:4]([H:8])([H:9])[N:5]1[H:10]>>[O-:1][C:2](=[C+:3][H:6])[N:5]([C:4]([H:7])([H:8])[H:9])[H:10]"
O        2.36583089       0.35595902       0.13351810
C        1.16423484       0.25653261       0.01679557
C        0.28414906       1.39358070       0.30540811
C       -0.98453247      -0.41151844      -0.19903616
N        0.38602630      -0.77484861      -0.40304507
H        0.11272355       1.50502646       1.38388571
H       -1.00719871       0.78456394      -0.25257301
H       -1.42053356      -0.76349658       0.73707073
H       -1.63122760      -0.67050187      -1.03896188
H        0.73052771      -1.67529721      -0.68306209
10
Frame=3 idx=002463 GeodesicLength=0.17055756657009166 rxn_smarts="[O:1]=[C:2]1[C:3]([H:6])([H:7])[C:4]([H:8])([H:9])[N:5]1[H:10]>>[O-:1][C:2](=[C+:3][H:6])[N:5]([C:4]([H:7])([H:8])[H:9])[H:10]"
O        2.36274650       0.37338425       0.12604332
C        1.16264148       0.25229099       0.01166894
C        0.28142501       1.38340650       0.31380249
C       -0.98453129      -0.40803421      -0.19822805
N        0.38550460      -0.78058152      -0.40103954
H        0.12597841       1.49990925       1.39351882
H       -1.01211068       0.80303584      -0.26796250
H       -1.42508334      -0.76855656       0.73263909
H       -1.62798454      -0.67129254      -1.03944541
H        0.73141385      -1.68356201      -0.67099717
10
Frame=4 idx=002463 GeodesicLength=0.2274505993038435 rxn_smarts="[O:1]=[C:2]1[C:3]([H:6])([H:7])[C:4]([H:8])([H:9])[N:5]1[H:10]>>[O-:1][C:2](=[C+:3][H:6])[N:5]([C:4]([H:7])([H:8])[H:9])[H:10]"
O        2.35927198       0.39102688       0.11800471
C        1.16099834       0.24790286       0.00693217
C        0.27854420       1.37299460       0.32218827
C       -0.98452875      -0.40470523      -0.19729828
N        0.38499160      -0.78652040      -0.39861523
H        0.13931776       1.49507940       1.40285791
H       -1.01655775       0.82162049      -0.28305263
H       -1.42983282      -0.77407710       0.72799072
H       -1.62454979      -0.67153540      -1.04013770
H        0.73234524      -1.69178610      -0.65886994
10
Frame=5 idx=002463 GeodesicLength=0.2843525226880511 rxn_smarts="[O:1]=[C:2]1[C:3]([H:6])([H:7])[C:4]([H:8])([H:9])[N:5]1[H:10]>>[O-:1][C:2](=[C+:3][H:6])[N:5]([C:4]([H:7])([H:8])[H:9])[H:10]"
O        2.35538733       0.40887165       0.10940436
C        1.15930602       0.24335778       0.00260364
C        0.27551383       1.36235242       0.33057367
C       -0.98452465      -0.40155050      -0.19624344
N        0.38448717      -0.79265226      -0.39580069
H        0.15272988       1.49056282       1.41189244
H       -1.02053003       0.84034146      -0.29782360
H       -1.43477180      -0.78005705       0.72312200
H       -1.62092517      -0.67124596      -1.04103714
H        0.73332742      -1.69998037      -0.64669123
10
Frame=6 idx=002463 GeodesicLength=0.3412443664660463 rxn_smarts="[O:1]=[C:2]1[C:3]([H:6])([H:7])[C:4]([H:8])([H:9])[N:5]1[H:10]>>[O-:1][C:2](=[C+:3][H:6])[N:5]([C:4]([H:7])([H:8])[H:9])[H:10]"
O        2.35108978       0.42691809       0.10017725
C        1.15756644       0.23864029      -0.00127382
C        0.27233237       1.35148810       0.33898310
C       -0.98451841      -0.39858256      -0.19506651
N        0.38399354      -0.79896927      -0.39260843
H        0.16619313       1.48636890       1.42063889
H       -1.02401168       0.85922237      -0.31227039
H       -1.43990516      -0.78648564       0.71801733
H       -1.61710087      -0.67043735      -1.04215378
H        0.73436086      -1.70816293      -0.63444365
10
Frame=7 idx=002463 GeodesicLength=0.3981597715099766 rxn_smarts="[O:1]=[C:2]1[C:3]([H:6])([H:7])[C:4]([H:8])([H:9])[N:5]1[H:10]>>[O-:1][C:2](=[C+:3][H:6])[N:5]([C:4]([H:7])([H:8])[H:9])[H:10]"
O        2.34629469       0.44508192       0.09056966
C        1.15578512       0.23375566      -0.00474822
C        0.26902581       1.34040411       0.34736284
C       -0.98450627      -0.39583196      -0.19373388
N        0.38350991      -0.80545992      -0.38909733
H        0.17971951       1.48257763       1.42897904
H       -1.02700560       0.87827892      -0.32635087
H       -1.44516774      -0.79337836       0.71272938
H       -1.61311357      -0.66914728      -1.04342430
H        0.73545814      -1.71628071      -0.62228632
10
Frame=8 idx=002463 GeodesicLength=0.4550607143237638 rxn_smarts="[O:1]=[C:2]1[C:3]([H:6])([H:7])[C:4]([H:8])([H:9])[N:5]1[H:10]>>[O-:1][C:2](=[C+:3][H:6])[N:5]([C:4]([H:7])([H:8])[H:9])[H:10]"
O        2.34102481       0.46338224       0.08043420
C        1.15396598       0.22869176      -0.00777406
C        0.26558120       1.32911279       0.35576106
C       -0.98448900      -0.39330399      -0.19226003
N        0.38303990      -0.81211676      -0.38526782
H        0.19327389       1.47917422       1.43697540
H       -1.02949230       0.89753970      -0.34007107
H       -1.45058260      -0.80071797       0.70722190
H       -1.60893794      -0.66737942      -1.04487587
H        0.73661607      -1.72438259      -0.61014371
10
Frame=9 idx=002463 GeodesicLength=0.5119491803418158 rxn_smarts="[O:1]=[C:2]1[C:3]([H:6])([H:7])[C:4]([H:8])([H:9])[N:5]1[H:10]>>[O-:1][C:2](=[C+:3][H:6])[N:5]([C:4]([H:7])([H:8])[H:9])[H:10]"
O        2.33523607       0.48177390       0.06987009
C        1.15211195       0.22345173      -0.01036468
C        0.26200829       1.31762035       0.36415454
C       -0.98446621      -0.39101973      -0.19063271
N        0.38258413      -0.81892689      -0.38116423
H        0.20685005       1.47620201       1.44457154
H       -1.03145936       0.91702746      -0.35339231
H       -1.45611697      -0.80851673       0.70150845
H       -1.60459119      -0.66515007      -1.04647962
H        0.73784323      -1.73246202      -0.59807107
10
Frame=10 idx=002463 GeodesicLength=0.5688604545762214 rxn_smarts="[O:1]=[C:2]1[C:3]([H:6])([H:7])[C:4]([H:8])([H:9])[N:5]1[H:10]>>[O-:1][C:2](=[C+:3][H:6])[N:5]([C:4]([H:7])([H:8])[H:9])[H:10]"
O        2.32887818       0.50019375       0.05901495
C        1.15023070       0.21804108      -0.01255776
C        0.25832402       1.30593087       0.37252979
C       -0.98443342      -0.38899761      -0.18883032
N        0.38214621      -0.82588271      -0.37682741
H        0.22043794       1.47370163       1.45170531
H       -1.03290869       0.93677334      -0.36631311
H       -1.46172697      -0.81677507       0.69562177
H       -1.60009370      -0.66249574      -1.04818932
H        0.73914572      -1.74048953      -0.58615390
10
Frame=11 idx=002463 GeodesicLength=0.6257827392801769 rxn_smarts="[O:1]=[C:2]1[C:3]([H:6])([H:7])[C:4]([H:8])([H:9])[N:5]1[H:10]>>[O-:1][C:2](=[C+:3][H:6])[N:5]([C:4]([H:7])([H:8])[H:9])[H:10]"
O        2.32193683       0.51860286       0.04792278
C        1.14832708       0.21246299      -0.01436638
C        0.25452930       1.29405317       0.38088049
C       -0.98438991      -0.38725333      -0.18684351
N        0.38172890      -0.83297743      -0.37228172
H        0.23401593       1.47170411       1.45834327
H       -1.03383210       0.95680180      -0.37881041
H       -1.46739302      -0.82549462       0.68956941
H       -1.59545044      -0.65943132      -1.04998353
H        0.74052743      -1.74846824      -0.57443039
10
Frame=12 idx=002463 GeodesicLength=0.6826926968853377 rxn_smarts="[O:1]=[C:2]1[C:3]([H:6])([H:7])[C:4]([H:8])([H:9])[N:5]1[H:10]>>[O-:1][C:2](=[C+:3][H:6])[N:5]([C:4]([H:7])([H:8])[H:9])[H:10]"
O        2.31442917       0.53700615       0.03647992
C        1.14640454       0.20671530      -0.01576063
C        0.25060982       1.28199420       0.38925024
C       -0.98433758      -0.38579193      -0.18468059
N        0.38133605      -0.84020791      -0.36752059
H        0.24755119       1.47019644       1.46452878
H       -1.03420806       0.97714862      -0.39089413
H       -1.47313387      -0.83466367       0.68332362
H       -1.59063919      -0.65596677      -1.05187427
H        0.74198794      -1.75643043      -0.56285234
10
Frame=13 idx=002463 GeodesicLength=0.7396199993125715 rxn_smarts="[O:1]=[C:2]1[C:3]([H:6])([H:7])[C:4]([H:8])([H:9])[N:5]1[H:10]>>[O-:1][C:2](=[C+:3][H:6])[N:5]([C:4]([H:7])([H:8])[H:9])[H:10]"
O        2.30630495       0.55529475       0.02496851
C        1.14446762       0.20081878      -0.01682628
C        0.24658678       1.26976536       0.39757564
C       -0.98427306      -0.38463776      -0.18230678
N        0.38096961      -0.84755949      -0.36261219
H        0.26103026       1.46925306       1.47013467
H       -1.03404603       0.99783923      -0.40253046
H       -1.47887413      -0.84430015       0.67694423
H       -1.58570647      -0.65213560      -1.05378051
H        0.74354047      -1.76433818      -0.55156684
10
Frame=14 idx=002463 GeodesicLength=0.7965422889203665 rxn_smarts="[O:1]=[C:2]1[C:3]([H:6])([H:7])[C:4]([H:8])([H:9])[N:5]1[H:10]>>[O-:1][C:2](=[C+:3][H:6])[N:5]([C:4]([H:7])([H:8])[H:9])[H:10]"
O        2.29758008       0.57347627       0.01327570
C        1.14251964       0.19477200      -0.01753842
C        0.24244741       1.25737157       0.40589699
C       -0.98419822      -0.38379581      -0.17973071
N        0.38063431      -0.85503065      -0.35755267
H        0.27441740       1.46885608       1.47520037
H       -1.03332072       1.01891271      -0.41372344
H       -1.48463091      -0.85439775       0.67040143
H       -1.58063373      -0.64794215      -1.05571370
H        0.74518474      -1.77222227      -0.54051554
10
Frame=15 idx=002463 GeodesicLength=0.8534817991821235 rxn_smarts="[O:1]=[C:2]1[C:3]([H:6])([H:7])[C:4]([H:8])([H:9])[N:5]1[H:10]>>[O-:1][C:2](=[C+:3][H:6])[N:5]([C:4]([H:7])([H:8])[H:9])[H:10]"
O        2.28823670       0.59143233       0.00168600
C        1.14056264       0.18860403      -0.01799879
C        0.23820810       1.24483085       0.41414980
C       -0.98411094      -0.38328786      -0.17691781
N        0.38033332      -0.86260581      -0.35240821
H        0.28768559       1.46907077       1.47960641
H       -1.03204688       1.04039736      -0.42444989
H       -1.49032943      -0.86497162       0.66375757
H       -1.57547113      -0.64342339      -1.05758790
H        0.74693202      -1.78004667      -0.52983718
10
Frame=16 idx=002463 GeodesicLength=0.9104206909696526 rxn_smarts="[O:1]=[C:2]1[C:3]([H:6])([H:7])[C:4]([H:8])([H:9])[N:5]1[H:10]>>[O-:1][C:2](=[C+:3][H:6])[N:5]([C:4]([H:7])([H:8])[H:9])[H:10]"
O        2.27828829       0.60918333      -0.00993405
C        1.13859825       0.18230901      -0.01816987
C        0.23385422       1.23214568       0.42237692
C       -0.98401400      -0.38311861      -0.17387564
N        0.38007022      -0.87028835      -0.34716043
H        0.30079904       1.46987084       1.48339340
H       -1.03018998       1.06233638      -0.43471917
H       -1.49599590      -0.87601448       0.65698034
H       -1.57019443      -0.63858076      -1.05941490
H        0.74878429      -1.78784304      -0.51947662
