14
Frame=0 idx=006623 GeodesicLength=0.0 rxn_smarts="[O:1]=[C:2]([C@@:3]1([H:9])[C@@:4]2([H:10])[C:5]([H:11])([H:12])[C:6]([H:13])([H:14])[N:7]12)[H:8]>>[O:1]([C@:2]1([H:8])[C@@:3]2([H:9])[C@@:4]3([H:10])[C:5]([H:11])([H:12])[C@:6]1([H:14])[N:7]23)[H:13]"
O        0.39850212       1.52330849       1.82165604
C        0.98129139       1.13573527       0.68848000
C        0.44563993       0.86393928      -0.60982118
C        0.04048925      -0.47580443      -1.20098815
C       -0.24747235      -1.56022734      -0.19627275
C       -0.95890889      -0.45590298       0.54046543
N       -0.97782118       0.40561122      -0.63460997
H        1.99960554       1.52613067       0.67062583
H        0.80062770       1.52577773      -1.40479646
H        0.18795751      -0.57496167      -2.26889269
H        0.56342516      -2.11652716       0.27197339
H       -0.94212182      -2.25813466      -0.67664668
H       -0.42962926       1.01653997       1.86071597
H       -1.86158510      -0.55548437       1.13811118
14
Frame=1 idx=006623 GeodesicLength=0.10057493042359598 rxn_smarts="[O:1]=[C:2]([C@@:3]1([H:9])[C@@:4]2([H:10])[C:5]([H:11])([H:12])[C:6]([H:13])([H:14])[N:7]12)[H:8]>>[O:1]([C@:2]1([H:8])[C@@:3]2([H:9])[C@@:4]3([H:10])[C:5]([H:11])([H:12])[C@:6]1([H:14])[N:7]23)[H:13]"
O        0.39438110       1.51972034       1.81230305
C        0.98012122       1.11734865       0.68760104
C        0.44178799       0.86972043      -0.61848668
C        0.03719719      -0.46992145      -1.20467314
C       -0.23825023      -1.54863534      -0.18947492
C       -0.95036455      -0.44178473       0.54691476
N       -0.98135281       0.41316580      -0.63789118
H        2.01035603       1.47728240       0.67904664
H        0.79091852       1.54087471      -1.40689541
H        0.17796192      -0.57638101      -2.27277464
H        0.58066886      -2.09231403       0.27988799
H       -0.93134287      -2.25719407      -0.65523393
H       -0.45168615       1.00523015       1.84896196
H       -1.86039622      -0.55711184       1.13071448
14
Frame=2 idx=006623 GeodesicLength=0.20117543826941875 rxn_smarts="[O:1]=[C:2]([C@@:3]1([H:9])[C@@:4]2([H:10])[C:5]([H:11])([H:12])[C:6]([H:13])([H:14])[N:7]12)[H:8]>>[O:1]([C@:2]1([H:8])[C@@:3]2([H:9])[C@@:4]3([H:10])[C:5]([H:11])([H:12])[C@:6]1([H:14])[N:7]23)[H:13]"
O        0.39115913       1.51641430       1.80319161
C        0.97884044       1.09924033       0.68672260
C        0.43819638       0.87522313      -0.62675484
C        0.03408815      -0.46419754      -1.20816944
C       -0.22923131      -1.53729512      -0.18297531
C       -0.94200960      -0.42799013       0.55317575
N       -0.98466413       0.42062812      -0.64099912
H        2.01989036       1.42891322       0.68687852
H        0.78136192       1.55571968      -1.40845260
H        0.16823147      -0.57787068      -2.27638065
H        0.59734261      -2.06866827       0.28731491
H       -0.92058272      -2.25608637      -0.63435061
H       -0.47400773       0.99483188       1.83721020
H       -1.85861496      -0.55886256       1.12358898
14
Frame=3 idx=006623 GeodesicLength=0.3017554314475238 rxn_smarts="[O:1]=[C:2]([C@@:3]1([H:9])[C@@:4]2([H:10])[C:5]([H:11])([H:12])[C:6]([H:13])([H:14])[N:7]12)[H:8]>>[O:1]([C@:2]1([H:8])[C@@:3]2([H:9])[C@@:4]3([H:10])[C:5]([H:11])([H:12])[C@:6]1([H:14])[N:7]23)[H:13]"
O        0.38880726       1.51340058       1.79430075
C        0.97745872       1.08141929       0.68584549
C        0.43485015       0.88047127      -0.63465444
C        0.03115612      -0.45862050      -1.21148731
C       -0.22039691      -1.52619931      -0.17675691
C       -0.93381179      -0.41450714       0.55927023
N       -0.98776393       0.42800239      -0.64393895
H        2.02821884       1.38098455       0.69416628
H        0.77195003       1.57032370      -1.40949549
H        0.15874747      -0.57942425      -2.27972469
H        0.61348369      -2.04558338       0.29427944
H       -0.90984203      -2.25482424      -0.61396705
H       -0.49658311       0.98527274       1.82544194
H       -1.85627451      -0.56071571       1.11672071
14
Frame=4 idx=006623 GeodesicLength=0.4023280001191714 rxn_smarts="[O:1]=[C:2]([C@@:3]1([H:9])[C@@:4]2([H:10])[C:5]([H:11])([H:12])[C:6]([H:13])([H:14])[N:7]12)[H:8]>>[O:1]([C@:2]1([H:8])[C@@:3]2([H:9])[C@@:4]3([H:10])[C:5]([H:11])([H:12])[C@:6]1([H:14])[N:7]23)[H:13]"
O        0.38730945       1.51067111       1.78562009
C        0.97599314       1.06387498       0.68497450
C        0.43173744       0.88548098      -0.64220822
C        0.02839481      -0.45318263      -1.21463589
C       -0.21173620      -1.51534538      -0.17080496
C       -0.92574460      -0.40132756       0.56521886
N       -0.99065963       0.43529128      -0.64671340
H        2.03539076       1.33352792       0.70093698
H        0.76267737       1.58469296      -1.41004363
H        0.14949133      -0.58103701      -2.28281921
H        0.62911899      -2.02306157       0.30080360
H       -0.89912978      -2.25341926      -0.59405860
H       -0.51943024       0.97649198       1.81363731
H       -1.85341284      -0.56265781       1.11009256
14
Frame=5 idx=006623 GeodesicLength=0.5028602032196974 rxn_smarts="[O:1]=[C:2]([C@@:3]1([H:9])[C@@:4]2([H:10])[C:5]([H:11])([H:12])[C:6]([H:13])([H:14])[N:7]12)[H:8]>>[O:1]([C@:2]1([H:8])[C@@:3]2([H:9])[C@@:4]3([H:10])[C:5]([H:11])([H:12])[C@:6]1([H:14])[N:7]23)[H:13]"
O        0.38664925       1.50822309       1.77713185
C        0.97445791       1.04660570       0.68411033
C        0.42884903       0.89026992      -0.64943886
C        0.02579753      -0.44787546      -1.21762179
C       -0.20324064      -1.50472683      -0.16510369
C       -0.91778517      -0.38843775       0.57104017
N       -0.99335763       0.44250110      -0.64932674
H        2.04141336       1.28656434       0.70722587
H        0.75354607       1.59882840      -1.41012335
H        0.14044705      -0.58270727      -2.28567368
H        0.64427360      -2.00109747       0.30691187
H       -0.88845234      -2.25188143      -0.57460143
H       -0.54253231       0.96840424       1.80178351
H       -1.85006570      -0.56467057       1.10368595
14
Frame=6 idx=006623 GeodesicLength=0.6034095396550805 rxn_smarts="[O:1]=[C:2]([C@@:3]1([H:9])[C@@:4]2([H:10])[C:5]([H:11])([H:12])[C:6]([H:13])([H:14])[N:7]12)[H:8]>>[O:1]([C@:2]1([H:8])[C@@:3]2([H:9])[C@@:4]3([H:10])[C:5]([H:11])([H:12])[C@:6]1([H:14])[N:7]23)[H:13]"
O        0.38681675       1.50604305       1.76883434
C        0.97286009       1.02959101       0.68326274
C        0.42616829       0.89485125      -0.65636114
C        0.02335770      -0.44269275      -1.22045218
C       -0.19490376      -1.49434348      -0.15964007
C       -0.90991972      -0.37583423       0.57674942
N       -0.99586848       0.44963099      -0.65178211
H        2.04640435       1.24014310       0.71303152
H        0.74454792       1.61273718      -1.40974360
H        0.13159984      -0.58442889      -2.28829795
H        0.65896836      -1.97969281       0.31262569
H       -0.87781711      -2.25022390      -0.55557597
H       -0.56594623       0.96097267       1.78986926
H       -1.84626800      -0.56675319       1.09748005
14
Frame=7 idx=006623 GeodesicLength=0.7039791283283028 rxn_smarts="[O:1]=[C:2]([C@@:3]1([H:9])[C@@:4]2([H:10])[C:5]([H:11])([H:12])[C:6]([H:13])([H:14])[N:7]12)[H:8]>>[O:1]([C@:2]1([H:8])[C@@:3]2([H:9])[C@@:4]3([H:10])[C:5]([H:11])([H:12])[C@:6]1([H:14])[N:7]23)[H:13]"
O        0.38780242       1.50412956       1.76071398
C        0.97121076       1.01283274       0.68242920
C        0.42368142       0.89924571      -0.66299594
C        0.02106894      -0.43762327      -1.22313372
C       -0.18671238      -1.48418656      -0.15439742
C       -0.90212867      -0.36350327       0.58236472
N       -0.99820179       0.45668629      -0.65408238
H        2.05039508       1.19424268       0.71838157
H        0.73567719       1.62642639      -1.40892711
H        0.12293346      -0.58619616      -2.29070118
H        0.67323230      -1.95883774       0.31796763
H       -0.86722073      -2.24845544      -0.53695561
H       -0.58968990       0.95413973       1.77787791
H       -1.84204810      -0.56890066       1.09145834
14
Frame=8 idx=006623 GeodesicLength=0.8045859726576768 rxn_smarts="[O:1]=[C:2]([C@@:3]1([H:9])[C@@:4]2([H:10])[C:5]([H:11])([H:12])[C:6]([H:13])([H:14])[N:7]12)[H:8]>>[O:1]([C@:2]1([H:8])[C@@:3]2([H:9])[C@@:4]3([H:10])[C:5]([H:11])([H:12])[C@:6]1([H:14])[N:7]23)[H:13]"
O        0.38960684       1.50246606       1.75276838
C        0.96952040       0.99631176       0.68161683
C        0.42137760       0.90346329      -0.66935358
C        0.01892545      -0.43266204      -1.22567041
C       -0.17866536      -1.47425538      -0.14936291
C       -0.89440404      -0.35143895       0.58790024
N       -1.00036519       0.46366911      -0.65622972
H        2.05347038       1.14892672       0.72327278
H        0.72693399       1.63989750      -1.40768271
H        0.11443666      -0.58800505      -2.29288948
H        0.68707837      -1.93853305       0.32295837
H       -0.85667149      -2.24658619      -0.51872435
H       -0.61380342       0.94785830       1.76579582
H       -1.83744019      -0.57111209       1.08560073
14
Frame=9 idx=006623 GeodesicLength=0.9054336853578099 rxn_smarts="[O:1]=[C:2]([C@@:3]1([H:9])[C@@:4]2([H:10])[C:5]([H:11])([H:12])[C:6]([H:13])([H:14])[N:7]12)[H:8]>>[O:1]([C@:2]1([H:8])[C@@:3]2([H:9])[C@@:4]3([H:10])[C:5]([H:11])([H:12])[C@:6]1([H:14])[N:7]23)[H:13]"
O        0.39222406       1.50110784       1.74496667
C        0.96778875       0.98002035       0.68083445
C        0.41923867       0.90751757      -0.67543773
C        0.01692399      -0.42780241      -1.22806062
C       -0.17075968      -1.46454515      -0.14452540
C       -0.88673034      -0.33963771       0.59337181
N       -1.00236798       0.47057380      -0.65822026
H        2.05579425       1.10419899       0.72769885
H        0.71830701       1.65315483      -1.40602915
H        0.10610019      -0.58984878      -2.29486371
H        0.70052102      -1.91877626       0.32760729
H       -0.84618163      -2.24461818      -0.50086991
H       -0.63838833       0.94205904       1.75364949
H       -1.83246997      -0.57340394       1.07987822
14
Frame=10 idx=006623 GeodesicLength=1.0063293554473662 rxn_smarts="[O:1]=[C:2]([C@@:3]1([H:9])[C@@:4]2([H:10])[C:5]([H:11])([H:12])[C:6]([H:13])([H:14])[N:7]12)[H:8]>>[O:1]([C@:2]1([H:8])[C@@:3]2([H:9])[C@@:4]3([H:10])[C:5]([H:11])([H:12])[C@:6]1([H:14])[N:7]23)[H:13]"
O        0.39566538       1.49998395       1.73731899
C        0.96603514       0.96396118       0.68007129
C        0.41725947       0.91142716      -0.68127385
C        0.01505714      -0.42303425      -1.23031317
C       -0.16298457      -1.45504334      -0.13986575
C       -0.87909611      -0.32807424       0.59879395
N       -1.00421626       0.47741548      -0.66006266
H        2.05729145       1.06006785       0.73168930
H        0.70980379       1.66619972      -1.40398402
H        0.09790987      -0.59172621      -2.29663218
H        0.71358545      -1.89955288       0.33194913
H       -0.83574206      -2.24255995      -0.48336066
H       -0.66341038       0.93668969       1.74138611
H       -1.82715831      -0.57575417       1.07428352
14
Frame=11 idx=006623 GeodesicLength=1.107275658508044 rxn_smarts="[O:1]=[C:2]([C@@:3]1([H:9])[C@@:4]2([H:10])[C:5]([H:11])([H:12])[C:6]([H:13])([H:14])[N:7]12)[H:8]>>[O:1]([C@:2]1([H:8])[C@@:3]2([H:9])[C@@:4]3([H:10])[C:5]([H:11])([H:12])[C@:6]1([H:14])[N:7]23)[H:13]"
O        0.39993050       1.49908608       1.72981288
C        0.96426914       0.94813229       0.67932583
C        0.41542965       0.91520578      -0.68687445
C        0.01331888      -0.41835011      -1.23242935
C       -0.15533529      -1.44573967      -0.13536914
C       -0.87148779      -0.31673217       0.60418084
N       -1.00591658       0.48419952      -0.66175829
H        2.05800822       1.01654347       0.73525369
H        0.70142563       1.67903367      -1.40156596
H        0.08985392      -0.59363550      -2.29819720
H        0.72628887      -1.88085225       0.33600491
H       -0.82535678      -2.24041352      -0.46617639
H       -0.68890550       0.93167931       1.72899263
H       -1.82152288      -0.57815690       1.06879999
14
Frame=12 idx=006623 GeodesicLength=1.2082882114998608 rxn_smarts="[O:1]=[C:2]([C@@:3]1([H:9])[C@@:4]2([H:10])[C:5]([H:11])([H:12])[C:6]([H:13])([H:14])[N:7]12)[H:8]>>[O:1]([C@:2]1([H:8])[C@@:3]2([H:9])[C@@:4]3([H:10])[C:5]([H:11])([H:12])[C@:6]1([H:14])[N:7]23)[H:13]"
O        0.40503132       1.49840530       1.72243986
C        0.96250091       0.93252427       0.67859889
C        0.41373891       0.91886559      -0.69224844
C        0.01170390      -0.41374335      -1.23441020
C       -0.14780961      -1.43662619      -0.13102063
C       -0.86389825      -0.30559739       0.60954646
N       -1.00747548       0.49093038      -0.66330852
H        2.05801102       0.97365156       0.73838703
H        0.69317404       1.69165767      -1.39878874
H        0.08192317      -0.59557307      -2.29956048
H        0.73864313      -1.86266722       0.33979649
H       -0.81502979      -2.23818147      -0.44929862
H       -0.71492801       0.92696821       1.71646172
H       -1.81558527      -0.58061427       1.06340519
14
Frame=13 idx=006623 GeodesicLength=1.3093572503550006 rxn_smarts="[O:1]=[C:2]([C@@:3]1([H:9])[C@@:4]2([H:10])[C:5]([H:11])([H:12])[C:6]([H:13])([H:14])[N:7]12)[H:8]>>[O:1]([C@:2]1([H:8])[C@@:3]2([H:9])[C@@:4]3([H:10])[C:5]([H:11])([H:12])[C@:6]1([H:14])[N:7]23)[H:13]"
O        0.41097580       1.49793691       1.71518693
C        0.96074258       0.91713632       0.67788755
C        0.41217862       0.92242040      -0.69740621
C        0.01020649      -0.40920645      -1.23625523
C       -0.14040496      -1.42769064      -0.12680410
C       -0.85631803      -0.29465086       0.61490620
N       -1.00889899       0.49761543      -0.66471350
H        2.05733990       0.93139891       0.74109633
H        0.68505182       1.70407314      -1.39567293
H        0.07410754      -0.59753732      -2.30072185
H        0.75066162      -1.84498560       0.34334514
H       -0.80476366      -2.23586346      -0.43270728
H       -0.74151633       0.92247732       1.70377816
H       -1.80936240      -0.58312411       1.05808079
14
Frame=14 idx=006623 GeodesicLength=1.4104522504161099 rxn_smarts="[O:1]=[C:2]([C@@:3]1([H:9])[C@@:4]2([H:10])[C:5]([H:11])([H:12])[C:6]([H:13])([H:14])[N:7]12)[H:8]>>[O:1]([C@:2]1([H:8])[C@@:3]2([H:9])[C@@:4]3([H:10])[C:5]([H:11])([H:12])[C@:6]1([H:14])[N:7]23)[H:13]"
O        0.41777815       1.49766581       1.70804849
C        0.95900279       0.90195909       0.67719282
C        0.41073916       0.92588148      -0.70235460
C        0.00882136      -0.40473260      -1.23796487
C       -0.13312118      -1.41892520      -0.12270430
C       -0.84874339      -0.28387750       0.62027402
N       -1.01019357       0.50425979      -0.66597396
H        2.05606741       0.88981153       0.74337315
H        0.67706077       1.71628090      -1.39222771
H        0.06639784      -0.59952389      -2.30168182
H        0.76235307      -1.82780052       0.34667221
H       -0.79456304      -2.23346103      -0.41638278
H       -0.76872907       0.91815472       1.69092422
H       -1.80287029      -0.58569260       1.05280514
14
Frame=15 idx=006623 GeodesicLength=1.5115571779900558 rxn_smarts="[O:1]=[C:2]([C@@:3]1([H:9])[C@@:4]2([H:10])[C:5]([H:11])([H:12])[C:6]([H:13])([H:14])[N:7]12)[H:8]>>[O:1]([C@:2]1([H:8])[C@@:3]2([H:9])[C@@:4]3([H:10])[C:5]([H:11])([H:12])[C@:6]1([H:14])[N:7]23)[H:13]"
O        0.42545425       1.49758409       1.70101419
C        0.95729265       0.88698767       0.67651360
C        0.40941251       0.92926093      -0.70710021
C        0.00754241      -0.40031458      -1.23953683
C       -0.12595908      -1.41031737      -0.11870342
C       -0.84117097      -0.27325646       0.62566521
N       -1.01136485       0.51087174      -0.66709012
H        2.05425482       0.84890889       0.74521059
H        0.66920603       1.72828165      -1.38846981
H        0.05878461      -0.60153086      -2.30243803
H        0.77372510      -1.81109941       0.34980214
H       -0.78443220      -2.23097224      -0.40030434
H       -0.79661905       0.91391798       1.67788406
H       -1.79612624      -0.58832202       1.04755297
14
Frame=16 idx=006623 GeodesicLength=1.6126295457925703 rxn_smarts="[O:1]=[C:2]([C@@:3]1([H:9])[C@@:4]2([H:10])[C:5]([H:11])([H:12])[C:6]([H:13])([H:14])[N:7]12)[H:8]>>[O:1]([C@:2]1([H:8])[C@@:3]2([H:9])[C@@:4]3([H:10])[C:5]([H:11])([H:12])[C@:6]1([H:14])[N:7]23)[H:13]"
O        0.43402195       1.49768391       1.69407346
C        0.95562299       0.87221892       0.67584807
C        0.40819115       0.93257078      -0.71164948
C        0.00636342      -0.39594466      -1.24096905
C       -0.11891837      -1.40185414      -0.11478367
C       -0.83359683      -0.26276648       0.63109588
N       -1.01241812       0.51745994      -0.66806112
H        2.05195227       0.80869788       0.74660485
H        0.66149186       1.74007754      -1.38441507
H        0.05125750      -0.60355528      -2.30298815
H        0.78478642      -1.79486944       0.35275800
H       -0.77437340      -2.22839452      -0.38445060
H       -0.82523839       0.90969150       1.66463541
H       -1.78914243      -0.59101596       1.04230147
