12
Frame=0 idx=011938 GeodesicLength=0.0 rxn_smarts="[N:1]([c:2]1[c:3]([H:10])[n:4]([H:11])[c:5]([O:6][H:12])[n:7]1)([H:8])[H:9]>>[N+:1]([c:2]1[c-:3][n:4]([H:11])[c:5]([O:6][H:12])[n:7]1)([H:8])([H:9])[H:10]"
N        2.09962379       0.18638061       0.01024704
C        0.65715631       0.13842167       0.01564823
C        0.30932127      -1.15145239      -0.16180843
N       -1.08204069      -1.04062527      -0.13579452
C       -1.39070976       0.26937020       0.04909707
O       -2.67775771       0.64634449       0.11091434
N       -0.35356177       1.05660358       0.15115737
H        2.54257779       0.45116411       0.88366242
H        2.52849063       0.67846688      -0.76630351
H        1.81269845      -1.06229896      -0.16107416
H       -1.76232971      -1.77152202      -0.23533538
H       -2.68346860       1.59914714       0.23958957
12
Frame=1 idx=011938 GeodesicLength=0.04438400653151074 rxn_smarts="[N:1]([c:2]1[c:3]([H:10])[n:4]([H:11])[c:5]([O:6][H:12])[n:7]1)([H:8])[H:9]>>[N+:1]([c:2]1[c-:3][n:4]([H:11])[c:5]([O:6][H:12])[n:7]1)([H:8])([H:9])[H:10]"
N        2.09943873       0.18708749       0.00600499
C        0.65884269       0.13131145       0.05660079
C        0.30924001      -1.15824696      -0.13072335
N       -1.08194143      -1.03863293      -0.14678644
C       -1.38948507       0.27181719       0.03108760
O       -2.67582621       0.64893620       0.10586155
N       -0.35109083       1.05512795       0.14881429
H        2.56156786       0.44201557       0.87231451
H        2.49737090       0.70613052      -0.76943374
H        1.81407544      -1.07656164      -0.17040379
H       -1.76211124      -1.77051055      -0.23942832
H       -2.68008087       1.60152571       0.23609192
12
Frame=2 idx=011938 GeodesicLength=0.08861926473255435 rxn_smarts="[N:1]([c:2]1[c:3]([H:10])[n:4]([H:11])[c:5]([O:6][H:12])[n:7]1)([H:8])[H:9]>>[N+:1]([c:2]1[c-:3][n:4]([H:11])[c:5]([O:6][H:12])[n:7]1)([H:8])([H:9])[H:10]"
N        2.09819946       0.18827454       0.00157058
C        0.66036851       0.12513284       0.09234914
C        0.30902286      -1.16421363      -0.10393742
N       -1.08117338      -1.03747673      -0.15253519
C       -1.38761982       0.27317469       0.01990022
O       -2.67332934       0.65192572       0.09759828
N       -0.34796791       1.05351722       0.14510260
H        2.57737664       0.43218655       0.86166362
H        2.46812346       0.73356098      -0.76965806
H        1.81431092      -1.09041937      -0.18100893
H       -1.76134230      -1.76957270      -0.24319751
H       -2.67596909       1.60390990       0.23215267
12
Frame=3 idx=011938 GeodesicLength=0.1328292171600858 rxn_smarts="[N:1]([c:2]1[c:3]([H:10])[n:4]([H:11])[c:5]([O:6][H:12])[n:7]1)([H:8])[H:9]>>[N+:1]([c:2]1[c-:3][n:4]([H:11])[c:5]([O:6][H:12])[n:7]1)([H:8])([H:9])[H:10]"
N        2.09634333       0.18989451      -0.00310792
C        0.66188360       0.11971351       0.12343748
C        0.30882778      -1.16955539      -0.08101982
N       -1.08009930      -1.03687748      -0.15492717
C       -1.38544554       0.27379685       0.01323913
O       -2.67056598       0.65506981       0.08833188
N       -0.34445597       1.05150297       0.14262829
H        2.59081856       0.42154021       0.85160872
H        2.44073449       0.76115167      -0.76729706
H        1.81375527      -1.10393788      -0.19315770
H       -1.76028534      -1.76895021      -0.24541459
H       -2.67151090       1.60665142       0.22567876
12
Frame=4 idx=011938 GeodesicLength=0.17686013979203868 rxn_smarts="[N:1]([c:2]1[c:3]([H:10])[n:4]([H:11])[c:5]([O:6][H:12])[n:7]1)([H:8])[H:9]>>[N+:1]([c:2]1[c-:3][n:4]([H:11])[c:5]([O:6][H:12])[n:7]1)([H:8])([H:9])[H:10]"
N        2.09421461       0.19183408      -0.00743663
C        0.66334815       0.11509919       0.14935823
C        0.30872435      -1.17415372      -0.06281039
N       -1.07900466      -1.03663098      -0.15545081
C       -1.38322803       0.27406956       0.00812289
O       -2.66770580       0.65808632       0.07998030
N       -0.34077905       1.04946906       0.13848570
H        2.60145777       0.41023540       0.84316432
H        2.41627310       0.78861042      -0.76173604
H        1.81278398      -1.11721357      -0.20617216
H       -1.75921247      -1.76886024      -0.24427324
H       -2.66687196       1.60945448       0.21876782
12
Frame=5 idx=011938 GeodesicLength=0.2209137637349165 rxn_smarts="[N:1]([c:2]1[c:3]([H:10])[n:4]([H:11])[c:5]([O:6][H:12])[n:7]1)([H:8])[H:9]>>[N+:1]([c:2]1[c-:3][n:4]([H:11])[c:5]([O:6][H:12])[n:7]1)([H:8])([H:9])[H:10]"
N        2.09184015       0.19411394      -0.01212116
C        0.66489666       0.11092250       0.17268598
C        0.30873666      -1.17846044      -0.04637628
N       -1.07783250      -1.03661657      -0.15445249
C       -1.38094554       0.27400318       0.00530808
O       -2.66479755       0.66120843       0.07054370
N       -0.33703348       1.04714629       0.13612112
H        2.61106615       0.39878745       0.83455871
H        2.39292536       0.81585833      -0.75479740
H        1.81136819      -1.13044772      -0.21972000
H       -1.75802971      -1.76892688      -0.24235503
H       -2.66219438       1.61241150       0.21060475
12
Frame=6 idx=011938 GeodesicLength=0.26495760071083185 rxn_smarts="[N:1]([c:2]1[c:3]([H:10])[n:4]([H:11])[c:5]([O:6][H:12])[n:7]1)([H:8])[H:9]>>[N+:1]([c:2]1[c-:3][n:4]([H:11])[c:5]([O:6][H:12])[n:7]1)([H:8])([H:9])[H:10]"
N        2.08924170       0.19681768      -0.01729569
C        0.66667324       0.10672066       0.19465768
C        0.30896952      -1.18256236      -0.03247825
N       -1.07665617      -1.03683115      -0.15187069
C       -1.37863648       0.27345256       0.00611206
O       -2.66181723       0.66414783       0.06232347
N       -0.33328715       1.04423791       0.13803749
H        2.62046215       0.38596368       0.82545869
H        2.36992507       0.84423665      -0.74587054
H        1.80948735      -1.14322413      -0.23593340
H       -1.75684385      -1.76922853      -0.23882336
H       -2.65751815       1.61626920       0.19568253
12
Frame=7 idx=011938 GeodesicLength=0.3089749537753929 rxn_smarts="[N:1]([c:2]1[c:3]([H:10])[n:4]([H:11])[c:5]([O:6][H:12])[n:7]1)([H:8])[H:9]>>[N+:1]([c:2]1[c-:3][n:4]([H:11])[c:5]([O:6][H:12])[n:7]1)([H:8])([H:9])[H:10]"
N        2.08642029       0.19996729      -0.02291063
C        0.66868808       0.10239871       0.21552045
C        0.30943309      -1.18652669      -0.02082187
N       -1.07550805      -1.03723586      -0.14798625
C       -1.37636433       0.27245332       0.01018422
O       -2.65880561       0.66699541       0.05470493
N       -0.32961192       1.04085088       0.14356985
H        2.62968832       0.37198229       0.81573364
H        2.34724629       0.87357724      -0.73491640
H        1.80714319      -1.15552810      -0.25456302
H       -1.75568231      -1.76976245      -0.23362814
H       -2.65264704       1.62082796       0.17511323
12
Frame=8 idx=011938 GeodesicLength=0.35297333395303415 rxn_smarts="[N:1]([c:2]1[c:3]([H:10])[n:4]([H:11])[c:5]([O:6][H:12])[n:7]1)([H:8])[H:9]>>[N+:1]([c:2]1[c-:3][n:4]([H:11])[c:5]([O:6][H:12])[n:7]1)([H:8])([H:9])[H:10]"
N        2.08348228       0.20326867      -0.02846305
C        0.67063717       0.09883370       0.23408629
C        0.30985400      -1.19021773      -0.00867353
N       -1.07428535      -1.03753426      -0.14440984
C       -1.37415923       0.27167499       0.01280165
O       -2.65576590       0.66967532       0.04748846
N       -0.32597957       1.03793818       0.14595410
H        2.63762730       0.35963409       0.80603597
H        2.32618887       0.90082407      -0.72361257
H        1.80451463      -1.16851302      -0.27033634
H       -1.75434224      -1.77014158      -0.22992165
H       -2.64777198       1.62455758       0.15905051
12
Frame=9 idx=011938 GeodesicLength=0.39695829421899037 rxn_smarts="[N:1]([c:2]1[c:3]([H:10])[n:4]([H:11])[c:5]([O:6][H:12])[n:7]1)([H:8])[H:9]>>[N+:1]([c:2]1[c-:3][n:4]([H:11])[c:5]([O:6][H:12])[n:7]1)([H:8])([H:9])[H:10]"
N        2.08043960       0.20676281      -0.03404495
C        0.67256691       0.09582436       0.25100572
C        0.31028956      -1.19365292       0.00347032
N       -1.07299972      -1.03776969      -0.14092968
C       -1.37198587       0.27104650       0.01443650
O       -2.65277678       0.67213331       0.04112824
N       -0.32240543       1.03529425       0.14679280
H        2.64472247       0.34811512       0.79624803
H        2.30633034       0.92683720      -0.71168260
H        1.80162833      -1.18199271      -0.28453027
H       -1.75285722      -1.77046413      -0.22688324
H       -2.64295218       1.62786592       0.14498913
12
Frame=10 idx=011938 GeodesicLength=0.44095182119925497 rxn_smarts="[N:1]([c:2]1[c:3]([H:10])[n:4]([H:11])[c:5]([O:6][H:12])[n:7]1)([H:8])[H:9]>>[N+:1]([c:2]1[c-:3][n:4]([H:11])[c:5]([O:6][H:12])[n:7]1)([H:8])([H:9])[H:10]"
N        2.07724957       0.21055545      -0.03983622
C        0.67457020       0.09307931       0.26694975
C        0.31081310      -1.19690398       0.01508414
N       -1.07168861      -1.03802901      -0.13707134
C       -1.36984478       0.27038186       0.01640238
O       -2.64976668       0.67455975       0.03438211
N       -0.31890959       1.03266464       0.14802570
H        2.65145813       0.33661124       0.78603058
H        2.28713683       0.95255297      -0.69872615
H        1.79840435      -1.19564474      -0.29872594
H       -1.75130305      -1.77085846      -0.22341176
H       -2.63811948       1.63103098       0.13089676
12
Frame=11 idx=011938 GeodesicLength=0.4849759466887792 rxn_smarts="[N:1]([c:2]1[c:3]([H:10])[n:4]([H:11])[c:5]([O:6][H:12])[n:7]1)([H:8])[H:9]>>[N+:1]([c:2]1[c-:3][n:4]([H:11])[c:5]([O:6][H:12])[n:7]1)([H:8])([H:9])[H:10]"
N        2.07379164       0.21479163      -0.04608915
C        0.67679985       0.09020527       0.28274154
C        0.31151612      -1.20010062       0.02574554
N       -1.07036970      -1.03836646      -0.13230891
C       -1.36775165       0.26944576       0.02079217
O       -2.64666694       0.67699690       0.02726029
N       -0.31552177       1.02974907       0.15212134
H        2.65840243       0.32438521       0.77474419
H        2.26785675       0.97885463      -0.68431530
H        1.79466295      -1.20907712      -0.31458798
H       -1.74970568      -1.77134561      -0.21914668
H       -2.63301401       1.63446135       0.11304296
12
Frame=12 idx=011938 GeodesicLength=0.5290549184142204 rxn_smarts="[N:1]([c:2]1[c:3]([H:10])[n:4]([H:11])[c:5]([O:6][H:12])[n:7]1)([H:8])[H:9]>>[N+:1]([c:2]1[c-:3][n:4]([H:11])[c:5]([O:6][H:12])[n:7]1)([H:8])([H:9])[H:10]"
N        2.07000523       0.21962236      -0.05290772
C        0.67935171       0.08696145       0.29875535
C        0.31244734      -1.20333141       0.03514697
N       -1.06913121      -1.03886164      -0.12622084
C       -1.36579616       0.26808539       0.02871782
O       -2.64335669       0.67965236       0.01812642
N       -0.31228473       1.02639585       0.16015731
H        2.66584275       0.31103421       0.76201903
H        2.24821892       1.00625773      -0.66799156
H        1.79024863      -1.22194891      -0.33321860
H       -1.74819787      -1.77204036      -0.21323301
H       -2.62734792       1.63817297       0.09064883
12
Frame=13 idx=011938 GeodesicLength=0.5731440838080553 rxn_smarts="[N:1]([c:2]1[c:3]([H:10])[n:4]([H:11])[c:5]([O:6][H:12])[n:7]1)([H:8])[H:9]>>[N+:1]([c:2]1[c-:3][n:4]([H:11])[c:5]([O:6][H:12])[n:7]1)([H:8])([H:9])[H:10]"
N        2.06572211       0.22513326      -0.06016961
C        0.68217521       0.08325740       0.31492962
C        0.31362646      -1.20656442       0.04285688
N       -1.06795338      -1.03948603      -0.11882724
C       -1.36396259       0.26631241       0.04020013
O       -2.63966269       0.68240148       0.00825806
N       -0.30923011       1.02256958       0.17205064
H        2.67348681       0.29635531       0.74784685
H        2.22822397       1.03486782      -0.64908592
H        1.78498305      -1.23397924      -0.35521914
H       -1.74674849      -1.77293985      -0.20515790
H       -2.62066035       1.64207228       0.06231763
12
Frame=14 idx=011938 GeodesicLength=0.6173000112608445 rxn_smarts="[N:1]([c:2]1[c:3]([H:10])[n:4]([H:11])[c:5]([O:6][H:12])[n:7]1)([H:8])[H:9]>>[N+:1]([c:2]1[c-:3][n:4]([H:11])[c:5]([O:6][H:12])[n:7]1)([H:8])([H:9])[H:10]"
N        2.06095750       0.23136632      -0.06782630
C        0.68524003       0.07920401       0.33122644
C        0.31494541      -1.20981313       0.04947971
N       -1.06692626      -1.04026173      -0.11021140
C       -1.36235562       0.26419684       0.05440001
O       -2.63545462       0.68535048      -0.00392176
N       -0.30638121       1.01836726       0.18700867
H        2.68131683       0.28105821       0.73213090
H        2.20800580       1.06410239      -0.62810025
H        1.77883627      -1.24533580      -0.37957300
H       -1.74544543      -1.77405946      -0.19543265
H       -2.61273868       1.64582461       0.03081964
12
Frame=15 idx=011938 GeodesicLength=0.6614946342254125 rxn_smarts="[N:1]([c:2]1[c:3]([H:10])[n:4]([H:11])[c:5]([O:6][H:12])[n:7]1)([H:8])[H:9]>>[N+:1]([c:2]1[c-:3][n:4]([H:11])[c:5]([O:6][H:12])[n:7]1)([H:8])([H:9])[H:10]"
N        2.05574512       0.23827082      -0.07558064
C        0.68840460       0.07500637       0.34719350
C        0.31633553      -1.21296038       0.05504986
N       -1.06603363      -1.04111498      -0.10091944
C       -1.36091473       0.26197676       0.06940785
O       -2.63079349       0.68826294      -0.01622787
N       -0.30371856       1.01398621       0.20340627
H        2.68886624       0.26550265       0.71535304
H        2.18808301       1.09343451      -0.60497695
H        1.77187818      -1.25616333      -0.40545633
H       -1.74428084      -1.77534775      -0.18420898
H       -2.60357143       1.64914618      -0.00304030
12
Frame=16 idx=011938 GeodesicLength=0.7057198204786482 rxn_smarts="[N:1]([c:2]1[c:3]([H:10])[n:4]([H:11])[c:5]([O:6][H:12])[n:7]1)([H:8])[H:9]>>[N+:1]([c:2]1[c-:3][n:4]([H:11])[c:5]([O:6][H:12])[n:7]1)([H:8])([H:9])[H:10]"
N        2.05010510       0.24584879      -0.08330818
C        0.69161927       0.07074223       0.36270071
C        0.31775489      -1.21595185       0.05960596
N       -1.06527875      -1.04202218      -0.09114290
C       -1.35960238       0.25974987       0.08448196
O       -2.62574287       0.69110407      -0.02796386
N       -0.30121991       1.00950358       0.22066771
H        2.69599157       0.24986943       0.69764828
H        2.16866078       1.12260735      -0.57972399
H        1.76411813      -1.26650618      -0.43252995
H       -1.74326743      -1.77677713      -0.17156577
H       -2.59313840       1.65183203      -0.03886997
