15
Frame=0 idx=007219 GeodesicLength=0.0 rxn_smarts="[O:1]([C:2]([C@@:3]1([H:11])[C:4]([H:12])([H:13])[C:5]([H:14])([H:15])[C:6]1=[O:7])([H:9])[H:10])[H:8]>>[O:1]([C:4]([C:5]([C:6]([C:3](=[C:2]([H:9])[H:10])[H:11])=[O:7])([H:14])[H:15])([H:12])[H:13])[H:8]"
O        1.44602674       0.45969755      -0.42973062
C        1.43975826      -0.84344654       0.44541065
C        0.06103937      -0.98224177       0.83876788
C       -0.36965988       1.28204047      -0.08862245
C       -1.59873577       0.41888667      -0.19029547
C       -0.81582593      -0.89349367      -0.28966650
O       -0.66029042      -1.44735159      -1.37049974
H        1.36910767       0.14717903      -1.34066366
H        2.14029509      -0.64106623       1.25048513
H        1.84165294      -1.59039519      -0.23771280
H       -0.26136788      -0.61437842       1.80453181
H       -0.10460729       1.70092756       0.87019527
H       -0.10243744       1.90033987      -0.93711093
H       -2.21707377       0.61978179      -1.06353269
H       -2.16788170       0.48352053       0.73844413
15
Frame=1 idx=007219 GeodesicLength=0.1109217667397169 rxn_smarts="[O:1]([C:2]([C@@:3]1([H:11])[C:4]([H:12])([H:13])[C:5]([H:14])([H:15])[C:6]1=[O:7])([H:9])[H:10])[H:8]>>[O:1]([C:4]([C:5]([C:6]([C:3](=[C:2]([H:9])[H:10])[H:11])=[O:7])([H:14])[H:15])([H:12])[H:13])[H:8]"
O        1.45939125       0.48398759      -0.41631074
C        1.44586421      -0.85997521       0.44732154
C        0.06497370      -0.96756529       0.83424780
C       -0.36949937       1.27779608      -0.09322220
C       -1.60305794       0.41677109      -0.18657921
C       -0.82390006      -0.89691892      -0.29014697
O       -0.67577393      -1.46160347      -1.36466698
H        1.41998857       0.19320102      -1.33636650
H        2.14824195      -0.69296088       1.25908615
H        1.82984458      -1.60717004      -0.24600186
H       -0.24875545      -0.60582763       1.80514400
H       -0.12704817       1.73312719       0.85553365
H       -0.12272853       1.88756484      -0.95490124
H       -2.22706524       0.61604581      -1.05615282
H       -2.17047559       0.48352781       0.74301539
15
Frame=2 idx=007219 GeodesicLength=0.22171335268936931 rxn_smarts="[O:1]([C:2]([C@@:3]1([H:11])[C:4]([H:12])([H:13])[C:5]([H:14])([H:15])[C:6]1=[O:7])([H:9])[H:10])[H:8]>>[O:1]([C:4]([C:5]([C:6]([C:3](=[C:2]([H:9])[H:10])[H:11])=[O:7])([H:14])[H:15])([H:12])[H:13])[H:8]"
O        1.47305465       0.50958439      -0.40117799
C        1.45175303      -0.87700585       0.44856180
C        0.06939055      -0.95278179       0.82935373
C       -0.36930710       1.27344406      -0.09839965
C       -1.60746767       0.41460815      -0.18255958
C       -0.83240534      -0.90058570      -0.28994405
O       -0.69288405      -1.47701645      -1.35761126
H        1.47395365       0.24263177      -1.32882058
H        2.15491292      -0.74694589       1.26660068
H        1.81745745      -1.62329166      -0.25577981
H       -0.23536560      -0.59727975       1.80540828
H       -0.15057531       1.76595958       0.83816911
H       -0.14236945       1.87275662      -0.97371383
H       -2.23747138       0.61200569      -1.04823362
H       -2.17267635       0.48391685       0.74814673
15
Frame=3 idx=007219 GeodesicLength=0.33234392688820324 rxn_smarts="[O:1]([C:2]([C@@:3]1([H:11])[C:4]([H:12])([H:13])[C:5]([H:14])([H:15])[C:6]1=[O:7])([H:9])[H:10])[H:8]>>[O:1]([C:4]([C:5]([C:6]([C:3](=[C:2]([H:9])[H:10])[H:11])=[O:7])([H:14])[H:15])([H:12])[H:13])[H:8]"
O        1.48698903       0.53658538      -0.38414395
C        1.45739401      -0.89451394       0.44900325
C        0.07431381      -0.93792707       0.82404051
C       -0.36906838       1.26894829      -0.10421929
C       -1.61195780       0.41239875      -0.17821812
C       -0.84141061      -0.90453926      -0.28896719
O       -0.71182581      -1.49374322      -1.34912856
H        1.53107736       0.29581144      -1.31741036
H        2.16017999      -0.80307975       1.27279216
H        1.80448205      -1.63858400      -0.26725260
H       -0.22113816      -0.58875923       1.80527802
H       -0.17514539       1.79936468       0.81778687
H       -0.16116707       1.85562503      -0.99369107
H       -2.24829336       0.60765054      -1.03974176
H       -2.17442968       0.48476235       0.75387209
15
Frame=4 idx=007219 GeodesicLength=0.44277375328630997 rxn_smarts="[O:1]([C:2]([C@@:3]1([H:11])[C:4]([H:12])([H:13])[C:5]([H:14])([H:15])[C:6]1=[O:7])([H:9])[H:10])[H:8]>>[O:1]([C:4]([C:5]([C:6]([C:3](=[C:2]([H:9])[H:10])[H:11])=[O:7])([H:14])[H:15])([H:12])[H:13])[H:8]"
O        1.50114942       0.56509142      -0.36500988
C        1.46275873      -0.91245983       0.44849631
C        0.07976737      -0.92304558       0.81825592
C       -0.36875824       1.26426486      -0.11075261
C       -1.61651378       0.41014810      -0.17354124
C       -0.85099280      -0.90883071      -0.28711236
O       -0.73282166      -1.51195152      -1.33897551
H        1.59136523       0.35308526      -1.30142502
H        2.16391000      -0.86139529       1.27738018
H        1.79091271      -1.65284097      -0.28064842
H       -0.20600480      -0.58029867       1.80470108
H       -0.20069196       1.83326080       0.79404055
H       -0.17888758       1.83583839      -1.01497575
H       -2.25952035       0.60297633      -1.03065157
H       -2.17567228       0.48615741       0.76021833
15
Frame=5 idx=007219 GeodesicLength=0.552958178445589 rxn_smarts="[O:1]([C:2]([C@@:3]1([H:11])[C:4]([H:12])([H:13])[C:5]([H:14])([H:15])[C:6]1=[O:7])([H:9])[H:10])[H:8]>>[O:1]([C:4]([C:5]([C:6]([C:3](=[C:2]([H:9])[H:10])[H:11])=[O:7])([H:14])[H:15])([H:12])[H:13])[H:8]"
O        1.51548061       0.59519618      -0.34355665
C        1.46781830      -0.93079372       0.44686767
C        0.08577250      -0.90819126       0.81194469
C       -0.36833809       1.25933769      -0.11807253
C       -1.62110705       0.40786202      -0.16852116
C       -0.86123562      -0.91351838      -0.28425816
O       -0.75611025      -1.53182057      -1.32686058
H        1.65472827       0.41481293      -1.28005811
H        2.16597521      -0.92190436       1.28002455
H        1.77673511      -1.66582788      -0.29621625
H       -0.18988828      -0.57193352       1.80362043
H       -0.22713300       1.86756488       0.76653384
H       -0.19525667       1.81302276      -1.03769728
H       -2.27111470       0.59798109      -1.02094877
H       -2.17632633       0.48821214       0.76719831
15
Frame=6 idx=007219 GeodesicLength=0.6628553032055969 rxn_smarts="[O:1]([C:2]([C@@:3]1([H:11])[C:4]([H:12])([H:13])[C:5]([H:14])([H:15])[C:6]1=[O:7])([H:9])[H:10])[H:8]>>[O:1]([C:4]([C:5]([C:6]([C:3](=[C:2]([H:9])[H:10])[H:11])=[O:7])([H:14])[H:15])([H:12])[H:13])[H:8]"
O        1.52989466       0.62700611      -0.31955819
C        1.47254791      -0.94944411       0.44391823
C        0.09235054      -0.89342924       0.80504471
C       -0.36775677       1.25410320      -0.12625853
C       -1.62569629       0.40555708      -0.16316021
C       -0.87222704      -0.91866382      -0.28026233
O       -0.78193728      -1.55354263      -1.31243269
H        1.72095406       0.48132417      -1.25239873
H        2.16625460      -0.98458019       1.28032910
H        1.76193394      -1.67727213      -0.31423267
H       -0.17269925      -0.56370983       1.80197249
H       -0.25435576       1.90215329       0.73483114
H       -0.20994528       1.78675232      -1.06196265
H       -2.28301403       0.59267850      -1.01063678
H       -2.17630401       0.49106729       0.77480712
15
Frame=7 idx=007219 GeodesicLength=0.7724109452305525 rxn_smarts="[O:1]([C:2]([C@@:3]1([H:11])[C:4]([H:12])([H:13])[C:5]([H:14])([H:15])[C:6]1=[O:7])([H:9])[H:10])[H:8]>>[O:1]([C:4]([C:5]([C:6]([C:3](=[C:2]([H:9])[H:10])[H:11])=[O:7])([H:14])[H:15])([H:12])[H:13])[H:8]"
O        1.54427460       0.66061112      -0.29278823
C        1.47692987      -0.96832050       0.43942295
C        0.09952027      -0.87883616       0.79749285
C       -0.36693860       1.24848903      -0.13538295
C       -1.63021711       0.40325712      -0.15747712
C       -0.88405441      -0.92432922      -0.27496121
O       -0.81054766      -1.57731147      -1.29527405
H        1.78964343       0.55290597      -1.21746287
H        2.16464723      -1.04934357       1.27783195
H        1.74648516      -1.68687114      -0.33498206
H       -0.15433934      -0.55568268       1.79969223
H       -0.28222094       1.93687482       0.69845879
H       -0.22256742       1.75657479      -1.08782655
H       -2.29510975       0.58709338      -0.99975222
H       -2.17550532       0.49488849       0.78300848
15
Frame=8 idx=007219 GeodesicLength=0.8815660829093488 rxn_smarts="[O:1]([C:2]([C@@:3]1([H:11])[C:4]([H:12])([H:13])[C:5]([H:14])([H:15])[C:6]1=[O:7])([H:9])[H:10])[H:8]>>[O:1]([C:4]([C:5]([C:6]([C:3](=[C:2]([H:9])[H:10])[H:11])=[O:7])([H:14])[H:15])([H:12])[H:13])[H:8]"
O        1.55845932       0.69608705      -0.26305569
C        1.48095899      -0.98730310       0.43313806
C        0.10729708      -0.86449932       0.78922401
C       -0.36578100       1.24241985      -0.14550327
C       -1.63458242       0.40099889      -0.15151408
C       -0.89679846      -0.93056864      -0.26817458
O       -0.84216345      -1.60330203      -1.27490328
H        1.86016186       0.62973604      -1.17424496
H        2.16107987      -1.11602192       1.27202440
H        1.73035919      -1.69430582      -0.35873080
H       -0.13470454      -0.54792335       1.79671281
H       -0.31053157       1.97150779       0.65693471
H       -0.23268096       1.72203920      -1.11525288
H       -2.30724583       0.58127017      -0.98837819
H       -2.17382809       0.49986521       0.79172373
15
Frame=9 idx=007219 GeodesicLength=0.9902702699580668 rxn_smarts="[O:1]([C:2]([C@@:3]1([H:11])[C:4]([H:12])([H:13])[C:5]([H:14])([H:15])[C:6]1=[O:7])([H:9])[H:10])[H:8]>>[O:1]([C:4]([C:5]([C:6]([C:3](=[C:2]([H:9])[H:10])[H:11])=[O:7])([H:14])[H:15])([H:12])[H:13])[H:8]"
O        1.57224677       0.73347293      -0.23021269
C        1.48464244      -1.00625470       0.42481083
C        0.11569522      -0.85051907       0.78017993
C       -0.36415928       1.23582505      -0.15665436
C       -1.63867997       0.39883185      -0.14533781
C       -0.91052132      -0.93741971      -0.25971029
O       -0.87695718      -1.63163621      -1.25078744
H        1.93162344       0.71186528      -1.12178060
H        2.15551451      -1.18434844       1.26236653
H        1.71351021      -1.69926792      -0.38569891
H       -0.11368082      -0.54052382       1.79297450
H       -0.33902912       2.00576788       0.60976563
H       -0.23982349       1.68273142      -1.14409367
H       -2.31921707       0.57527372      -0.97665022
H       -2.17116434       0.50620174       0.80082857
15
Frame=10 idx=007219 GeodesicLength=1.0984776828368557 rxn_smarts="[O:1]([C:2]([C@@:3]1([H:11])[C:4]([H:12])([H:13])[C:5]([H:14])([H:15])[C:6]1=[O:7])([H:9])[H:10])[H:8]>>[O:1]([C:4]([C:5]([C:6]([C:3](=[C:2]([H:9])[H:10])[H:11])=[O:7])([H:14])[H:15])([H:12])[H:13])[H:8]"
O        1.58538284       0.77276423      -0.19416000
C        1.48797831      -1.02503243       0.41418057
C        0.12471467      -0.83700281       0.77031229
C       -0.36192594       1.22864573      -0.16882969
C       -1.64234249       0.39681635      -0.13903888
C       -0.92523329      -0.94489702      -0.24936175
O       -0.91500129      -1.66238106      -1.22232202
H        2.00286162       0.79920193      -1.05921786
H        2.14797411      -1.25397565       1.24826188
H        1.69582097      -1.70149252      -0.41603986
H       -0.09117038      -0.53357605       1.78840956
H       -0.36744321       2.03932459       0.55646721
H       -0.24352453       1.63830659      -1.17403903
H       -2.33070530       0.56917269      -0.96475205
H       -2.16738610       0.51412542       0.81012962
15
Frame=11 idx=007219 GeodesicLength=1.2061716241341411 rxn_smarts="[O:1]([C:2]([C@@:3]1([H:11])[C:4]([H:12])([H:13])[C:5]([H:14])([H:15])[C:6]1=[O:7])([H:9])[H:10])[H:8]>>[O:1]([C:4]([C:5]([C:6]([C:3](=[C:2]([H:9])[H:10])[H:11])=[O:7])([H:14])[H:15])([H:12])[H:13])[H:8]"
O        1.59755917       0.81390134      -0.15495919
C        1.49099478      -1.04348022       0.40101689
C        0.13435591      -0.82405514       0.75958399
C       -0.35891927       1.22085415      -0.18198092
C       -1.64539950       0.39503061      -0.13274500
C       -0.94090274      -0.95296017      -0.23694888
O       -0.95624327      -1.69545473      -1.18892228
H        2.07245423       0.89137003      -0.98596750
H        2.13854367      -1.32438514       1.22919604
H        1.67717395      -1.70082430      -0.44976379
H       -0.06707713      -0.52719924       1.78296726
H       -0.39539121       2.07169144       0.49668932
H       -0.24336204       1.58860782      -1.20460071
H       -2.34138324       0.56305951      -0.95294354
H       -2.16240332       0.52384405       0.81937831
15
Frame=12 idx=007219 GeodesicLength=1.31339605316202 rxn_smarts="[O:1]([C:2]([C@@:3]1([H:11])[C:4]([H:12])([H:13])[C:5]([H:14])([H:15])[C:6]1=[O:7])([H:9])[H:10])[H:8]>>[O:1]([C:4]([C:5]([C:6]([C:3](=[C:2]([H:9])[H:10])[H:11])=[O:7])([H:14])[H:15])([H:12])[H:13])[H:8]"
O        1.60844300       0.85675988      -0.11284421
C        1.49374649      -1.06146331       0.38513824
C        0.14461292      -0.81176560       0.74798407
C       -0.35496707       1.21248053      -0.19601200
C       -1.64767431       0.39356026      -0.12661340
C       -0.95743254      -0.96151247      -0.22233258
O       -1.00047613      -1.73063639      -1.15004712
H        2.13878266       0.98776962      -0.90181379
H        2.12738385      -1.39499128       1.20476831
H        1.65743013      -1.69727278      -0.48671804
H       -0.04133221      -0.52150861       1.77662465
H       -0.42243947       2.10228933       0.43026412
H       -0.23899923       1.53374364      -1.23512798
H       -2.35090223       0.55701787      -0.94154911
H       -2.15617587       0.53552930       0.82827884
15
Frame=13 idx=007219 GeodesicLength=1.420109507277372 rxn_smarts="[O:1]([C:2]([C@@:3]1([H:11])[C:4]([H:12])([H:13])[C:5]([H:14])([H:15])[C:6]1=[O:7])([H:9])[H:10])[H:8]>>[O:1]([C:4]([C:5]([C:6]([C:3](=[C:2]([H:9])[H:10])[H:11])=[O:7])([H:14])[H:15])([H:12])[H:13])[H:8]"
O        1.61762595       0.90114421      -0.06832756
C        1.49626019      -1.07886062       0.36644325
C        0.15547829      -0.80017386       0.73547032
C       -0.34992530       1.20359134      -0.21076701
C       -1.64896059       0.39247625      -0.12082406
C       -0.97463711      -0.97036649      -0.20548990
O       -1.04728337      -1.76742904      -1.10536118
H        2.20013354       1.08733944      -0.80700551
H        2.11465109      -1.46489073       1.17483663
H        1.63643235      -1.69111338      -0.52649796
H       -0.01387230      -0.51659752       1.76931001
H       -0.44800332       2.13035094       0.35739056
H       -0.23036800       1.47418873      -1.26476072
H       -2.35889774       0.55109640      -0.93090275
H       -2.14863367       0.54924432       0.83648586
15
Frame=14 idx=007219 GeodesicLength=1.5264998269617294 rxn_smarts="[O:1]([C:2]([C@@:3]1([H:11])[C:4]([H:12])([H:13])[C:5]([H:14])([H:15])[C:6]1=[O:7])([H:9])[H:10])[H:8]>>[O:1]([C:4]([C:5]([C:6]([C:3](=[C:2]([H:9])[H:10])[H:11])=[O:7])([H:14])[H:15])([H:12])[H:13])[H:8]"
O        1.62484324       0.94679507      -0.02196222
C        1.49856979      -1.09570176       0.34488584
C        0.16694288      -0.78933754       0.72205565
C       -0.34368165       1.19432383      -0.22611253
C       -1.64908999       0.39186210      -0.11551086
C       -0.99224175      -0.97931126      -0.18641847
O       -1.09609089      -1.80525882      -1.05458332
H        2.25495690       1.18940119      -0.70203955
H        2.10059653      -1.53354796       1.13935412
H        1.61394452      -1.68292049      -0.56859538
H        0.01531428      -0.51253210       1.76098448
H       -0.47166556       2.15526777       0.27826448
H       -0.21755748       1.41056718      -1.29276936
H       -2.36506817       0.54534184      -0.92126668
H       -2.13977265       0.56505095       0.84371379
15
Frame=15 idx=007219 GeodesicLength=1.632638161537874 rxn_smarts="[O:1]([C:2]([C@@:3]1([H:11])[C:4]([H:12])([H:13])[C:5]([H:14])([H:15])[C:6]1=[O:7])([H:9])[H:10])[H:8]>>[O:1]([C:4]([C:5]([C:6]([C:3](=[C:2]([H:9])[H:10])[H:11])=[O:7])([H:14])[H:15])([H:12])[H:13])[H:8]"
O        1.62982473       0.99346889       0.02542395
C        1.50071028      -1.11205986       0.32050908
C        0.17902420      -0.77922328       0.70770178
C       -0.33616390       1.18484811      -0.24191880
C       -1.64792576       0.39177463      -0.11082714
C       -1.00993555      -0.98805636      -0.16525809
O       -1.14622790      -1.84334289      -0.99770580
H        2.30181099       1.29284048      -0.58777428
H        2.08543698      -1.60022070       1.09866374
H        1.58982607      -1.67350836      -0.61236316
H        0.04627352      -0.50930281       1.75156176
H       -0.49289448       2.17627064       0.19360610
H       -0.20093944       1.34389484      -1.31841037
H       -2.36921869       0.53974309      -0.91288788
H       -2.12960107       0.58287358       0.84967912
15
Frame=16 idx=007219 GeodesicLength=1.7386040349337228 rxn_smarts="[O:1]([C:2]([C@@:3]1([H:11])[C:4]([H:12])([H:13])[C:5]([H:14])([H:15])[C:6]1=[O:7])([H:9])[H:10])[H:8]>>[O:1]([C:4]([C:5]([C:6]([C:3](=[C:2]([H:9])[H:10])[H:11])=[O:7])([H:14])[H:15])([H:12])[H:13])[H:8]"
O        1.63241804       1.04095956       0.07301127
C        1.50268555      -1.12810515       0.29339650
C        0.19177289      -0.76975267       0.69236970
C       -0.32732694       1.17533656      -0.25813569
C       -1.64533501       0.39225725      -0.10689171
C       -1.02735083      -0.99628683      -0.14217483
O       -1.19698623      -1.88087451      -0.93475729
H        2.33942284       1.39679511      -0.46507277
H        2.06928313      -1.66453802       1.05323351
H        1.56392909      -1.66376520      -0.65721170
H        0.07908591      -0.50680727       1.74092982
H       -0.51126566       2.19270327       0.10425543
H       -0.18103556       1.27522525      -1.34119037
H       -2.37121111       0.53424335      -0.90591789
H       -2.11808614       0.60260932       0.85415602
