13
Frame=0 idx=000946 GeodesicLength=0.0 rxn_smarts="[C:1]1([H:6])([H:7])[C:2]([H:8])([H:9])[C:3]([H:10])=[C:4]([H:11])[C:5]1([H:12])[H:13]>>[C:1]([C:2]([C:3](=[C:4])[H:10])([H:8])[H:9])([C:5]([H:11])([H:12])[H:13])([H:6])[H:7]"
C       -0.10058400      -0.60984298       0.82061494
C       -1.17839267      -0.16633815      -0.15681747
C       -0.60290492       1.06378756      -0.80796370
C        0.67857082       1.37041048      -0.80631742
C        1.22525627      -0.36176761       0.16036468
H       -0.20247329      -1.66443923       1.09389708
H       -0.16758907      -0.02304057       1.73944551
H       -1.36627045      -0.93588286      -0.91450044
H       -2.13419345       0.03382858       0.33228809
H       -1.26215145       1.74855830      -1.33435740
H        1.59859931       0.89876577      -0.26421406
H        1.43052130      -0.99511590      -0.70158315
H        2.08161165      -0.35892339       0.83914337
13
Frame=1 idx=000946 GeodesicLength=0.052825127002375113 rxn_smarts="[C:1]1([H:6])([H:7])[C:2]([H:8])([H:9])[C:3]([H:10])=[C:4]([H:11])[C:5]1([H:12])[H:13]>>[C:1]([C:2]([C:3](=[C:4])[H:10])([H:8])[H:9])([C:5]([H:11])([H:12])[H:13])([H:6])[H:7]"
C       -0.10034050      -0.61075220       0.81986842
C       -1.18041277      -0.16641024      -0.15605199
C       -0.60857672       1.06300828      -0.81091927
C        0.66981927       1.37636866      -0.79901974
C        1.22731315      -0.35704649       0.16094617
H       -0.20228901      -1.66604198       1.08977469
H       -0.16954987      -0.02763724       1.74090338
H       -1.37022493      -0.93599236      -0.91312237
H       -2.13470637       0.03432202       0.33563811
H       -1.26295095       1.75138950      -1.33946681
H        1.61741223       0.89943473      -0.27888806
H        1.43527172      -0.99827892      -0.69501809
H        2.07923475      -0.36236375       0.84535556
13
Frame=2 idx=000946 GeodesicLength=0.10570153465307253 rxn_smarts="[C:1]1([H:6])([H:7])[C:2]([H:8])([H:9])[C:3]([H:10])=[C:4]([H:11])[C:5]1([H:12])[H:13]>>[C:1]([C:2]([C:3](=[C:4])[H:10])([H:8])[H:9])([C:5]([H:11])([H:12])[H:13])([H:6])[H:7]"
C       -0.10011778      -0.61173218       0.81911720
C       -1.18242460      -0.16644736      -0.15528257
C       -0.61420028       1.06228689      -0.81379997
C        0.66103465       1.38239332      -0.79126400
C        1.22938984      -0.35222961       0.16164746
H       -0.20209272      -1.66774331       1.08550090
H       -0.17159776      -0.03245676       1.74242203
H       -1.37415208      -0.93601665      -0.91179144
H       -2.13521206       0.03483871       0.33897405
H       -1.26359506       1.75431304      -1.34451286
H        1.63605856       0.89958042      -0.29457414
H        1.44013314      -1.00149111      -0.68809322
H        2.07677615      -0.36529540       0.85165657
13
Frame=3 idx=000946 GeodesicLength=0.1585962774342689 rxn_smarts="[C:1]1([H:6])([H:7])[C:2]([H:8])([H:9])[C:3]([H:10])=[C:4]([H:11])[C:5]1([H:12])[H:13]>>[C:1]([C:2]([C:3](=[C:4])[H:10])([H:8])[H:9])([C:5]([H:11])([H:12])[H:13])([H:6])[H:7]"
C       -0.09991065      -0.61278617       0.81835551
C       -1.18442343      -0.16644525      -0.15451133
C       -0.61977007       1.06164437      -0.81657987
C        0.65223628       1.38841938      -0.78315545
C        1.23149140      -0.34732015       0.16246473
H       -0.20188138      -1.66954540       1.08106664
H       -0.17372507      -0.03750432       1.74399428
H       -1.37804796      -0.93594241      -0.91051874
H       -2.13570591       0.03537582       0.34229688
H       -1.26407697       1.75735235      -1.34946480
H        1.65444580       0.89921851      -0.31121106
H        1.44512591      -1.00476445      -0.68079060
H        2.07424205      -0.36770226       0.85805383
13
Frame=4 idx=000946 GeodesicLength=0.21149247281142014 rxn_smarts="[C:1]1([H:6])([H:7])[C:2]([H:8])([H:9])[C:3]([H:10])=[C:4]([H:11])[C:5]1([H:12])[H:13]>>[C:1]([C:2]([C:3](=[C:4])[H:10])([H:8])[H:9])([C:5]([H:11])([H:12])[H:13])([H:6])[H:7]"
C       -0.09971327      -0.61391400       0.81757717
C       -1.18640579      -0.16640121      -0.15374024
C       -0.62528559       1.06109991      -0.81923522
C        0.64344255       1.39438235      -0.77481086
C        1.23362222      -0.34232294       0.16338994
H       -0.20165175      -1.67144576       1.07646745
H       -0.17592066      -0.04277692       1.74560987
H       -1.38191007      -0.93575975      -0.90931330
H       -2.13618409       0.03592812       0.34560890
H       -1.26439545       1.76052656      -1.35429563
H        1.67249731       0.89837682      -0.32870729
H        1.45026741      -1.00810489      -0.67310163
H        2.07163717      -0.36958829       0.86455084
13
Frame=5 idx=000946 GeodesicLength=0.2643201053929068 rxn_smarts="[C:1]1([H:6])([H:7])[C:2]([H:8])([H:9])[C:3]([H:10])=[C:4]([H:11])[C:5]1([H:12])[H:13]>>[C:1]([C:2]([C:3](=[C:4])[H:10])([H:8])[H:9])([C:5]([H:11])([H:12])[H:13])([H:6])[H:7]"
C       -0.09951963      -0.61511523       0.81677583
C       -1.18836863      -0.16631265      -0.15297056
C       -0.63074626       1.06067174      -0.82174341
C        0.63467187       1.40021574      -0.76634735
C        1.23578625      -0.33724389       0.16441362
H       -0.20140110      -1.67344099       1.07170006
H       -0.17817204      -0.04827063       1.74725783
H       -1.38573728      -0.93545941      -0.90818243
H       -2.13664271       0.03649144       0.34891363
H       -1.26454950       1.76385264      -1.35898153
H        1.69013894       0.89708808      -0.34696373
H        1.45557444      -1.01151523      -0.66502119
H        2.06896563      -0.37096160       0.87114922
13
Frame=6 idx=000946 GeodesicLength=0.31711712635434547 rxn_smarts="[C:1]1([H:6])([H:7])[C:2]([H:8])([H:9])[C:3]([H:10])=[C:4]([H:11])[C:5]1([H:12])[H:13]>>[C:1]([C:2]([C:3](=[C:4])[H:10])([H:8])[H:9])([C:5]([H:11])([H:12])[H:13])([H:6])[H:7]"
C       -0.09932378      -0.61638267       0.81594648
C       -1.19031197      -0.16618031      -0.15220279
C       -0.63616231       1.06037014      -0.82409262
C        0.62593720       1.40588151      -0.75786952
C        1.23798480      -0.33208897       0.16552170
H       -0.20112597      -1.67551984       1.06677002
H       -0.18046456      -0.05396791       1.74892488
H       -1.38953076      -0.93504076      -0.90712790
H       -2.13708066       0.03705777       0.35221590
H       -1.26455293       1.76733161      -1.36351461
H        1.70735048       0.89538774      -0.36585162
H        1.46105178      -1.01498248      -0.65656311
H        2.06622869      -0.37186581       0.87784318
13
Frame=7 idx=000946 GeodesicLength=0.36989727169606046 rxn_smarts="[C:1]1([H:6])([H:7])[C:2]([H:8])([H:9])[C:3]([H:10])=[C:4]([H:11])[C:5]1([H:12])[H:13]>>[C:1]([C:2]([C:3](=[C:4])[H:10])([H:8])[H:9])([C:5]([H:11])([H:12])[H:13])([H:6])[H:7]"
C       -0.09912072      -0.61770931       0.81508483
C       -1.19223685      -0.16600515      -0.15143630
C       -0.64154450       1.06020205      -0.82627510
C        0.61724794       1.41135185      -0.74946155
C        1.24021786      -0.32686415       0.16670039
H       -0.20082364      -1.67767080       1.06168406
H       -0.18278398      -0.05985182       1.75059911
H       -1.39329377      -0.93450484      -0.90614816
H       -2.13749752       0.03762082       0.35552172
H       -1.26441995       1.77095754      -1.36789690
H        1.72412875       0.89330880      -0.38524982
H        1.46670012      -1.01848882      -0.64774707
H        2.06342625      -0.37234616       0.88462479
13
Frame=8 idx=000946 GeodesicLength=0.4226430986824301 rxn_smarts="[C:1]1([H:6])([H:7])[C:2]([H:8])([H:9])[C:3]([H:10])=[C:4]([H:11])[C:5]1([H:12])[H:13]>>[C:1]([C:2]([C:3](=[C:4])[H:10])([H:8])[H:9])([C:5]([H:11])([H:12])[H:13])([H:6])[H:7]"
C       -0.09890582      -0.61908756       0.81418752
C       -1.19414448      -0.16578843      -0.15067041
C       -0.64690359       1.06017213      -0.82828615
C        0.60860981       1.41661165      -0.74118585
C        1.24248556      -0.32157349       0.16793815
H       -0.20049096      -1.67988282       1.05644848
H       -0.18511817      -0.06590586       1.75227043
H       -1.39702858      -0.93385379      -0.90524130
H       -2.13789312       0.03817442       0.35883640
H       -1.26416448       1.77472221      -1.37213385
H        1.74047867       0.89087262      -0.40505959
H        1.47251873      -1.02201377      -0.63859157
H        2.06055644      -0.37244732       0.89148773
13
Frame=9 idx=000946 GeodesicLength=0.4751807124916512 rxn_smarts="[C:1]1([H:6])([H:7])[C:2]([H:8])([H:9])[C:3]([H:10])=[C:4]([H:11])[C:5]1([H:12])[H:13]>>[C:1]([C:2]([C:3](=[C:4])[H:10])([H:8])[H:9])([C:5]([H:11])([H:12])[H:13])([H:6])[H:7]"
C       -0.09867590      -0.62051961       0.81325044
C       -1.19603248      -0.16552519      -0.14990468
C       -0.65222798       1.06028881      -0.83011701
C        0.60001907       1.42160541      -0.73310455
C        1.24478759      -0.31623149       0.16922681
H       -0.20013215      -1.68216093       1.05105856
H       -0.18745898      -0.07213177       1.75393703
H       -1.40074478      -0.93308037      -0.90440144
H       -2.13826171       0.03872764       0.36216604
H       -1.26377790       1.77862898      -1.37622551
H        1.75635748       0.88811742      -0.42520298
H        1.47852180      -1.02555872      -0.62910906
H        2.05762595      -0.37216017       0.89842635
13
Frame=10 idx=000946 GeodesicLength=0.5277389245615568 rxn_smarts="[C:1]1([H:6])([H:7])[C:2]([H:8])([H:9])[C:3]([H:10])=[C:4]([H:11])[C:5]1([H:12])[H:13]>>[C:1]([C:2]([C:3](=[C:4])[H:10])([H:8])[H:9])([C:5]([H:11])([H:12])[H:13])([H:6])[H:7]"
C       -0.09842997      -0.62198558       0.81227359
C       -1.19791059      -0.16522995      -0.14913751
C       -0.65755660       1.06052859      -0.83180104
C        0.59147328       1.42641311      -0.72517977
C        1.24711707      -0.31082978       0.17055341
H       -0.19974280      -1.68447729       1.04555058
H       -0.18979229      -0.07848295       1.75558790
H       -1.40443858      -0.93221233      -0.90363022
H       -2.13861673       0.03925364       0.36550817
H       -1.26329324       1.78265500      -1.38019150
H        1.77188780       0.88502840      -0.44562083
H        1.48467913      -1.02907490      -0.61934248
H        2.05462353      -0.37158596       0.90542971
13
Frame=11 idx=000946 GeodesicLength=0.5800039682306997 rxn_smarts="[C:1]1([H:6])([H:7])[C:2]([H:8])([H:9])[C:3]([H:10])=[C:4]([H:11])[C:5]1([H:12])[H:13]>>[C:1]([C:2]([C:3](=[C:4])[H:10])([H:8])[H:9])([C:5]([H:11])([H:12])[H:13])([H:6])[H:7]"
C       -0.09816600      -0.62347525       0.81126203
C       -1.19976649      -0.16491937      -0.14839196
C       -0.66287217       1.06089701      -0.83330944
C        0.58300327       1.43106328      -0.71743221
C        1.24948723      -0.30535585       0.17192444
H       -0.19929784      -1.68679533       1.03992096
H       -0.19214727      -0.08493922       1.75718839
H       -1.40805741      -0.93125995      -0.90295997
H       -2.13896032       0.03971959       0.36882764
H       -1.26274320       1.78686379      -1.38391844
H        1.78698609       0.88156612      -0.46646085
H        1.49099925      -1.03260580      -0.60919429
H        2.05153486      -0.37075903       0.91254372
13
Frame=12 idx=000946 GeodesicLength=0.6327237283907999 rxn_smarts="[C:1]1([H:6])([H:7])[C:2]([H:8])([H:9])[C:3]([H:10])=[C:4]([H:11])[C:5]1([H:12])[H:13]>>[C:1]([C:2]([C:3](=[C:4])[H:10])([H:8])[H:9])([C:5]([H:11])([H:12])[H:13])([H:6])[H:7]"
C       -0.09788484      -0.62500100       0.81020494
C       -1.20163315      -0.16455551      -0.14761166
C       -0.66823580       1.06139508      -0.83466689
C        0.57452326       1.43558007      -0.70980895
C        1.25187170      -0.29980677       0.17331187
H       -0.19881995      -1.68917140       1.03412841
H       -0.19447458      -0.09156675       1.75879311
H       -1.41172192      -0.93019293      -0.90229406
H       -2.13928549       0.04019851       0.37222378
H       -1.26210127       1.79103995      -1.38772614
H        1.80196360       0.87772635      -0.48736871
H        1.49743488      -1.03598659      -0.59886506
H        2.04836354      -0.36965900       0.91967934
13
Frame=13 idx=000946 GeodesicLength=0.6854255066342634 rxn_smarts="[C:1]1([H:6])([H:7])[C:2]([H:8])([H:9])[C:3]([H:10])=[C:4]([H:11])[C:5]1([H:12])[H:13]>>[C:1]([C:2]([C:3](=[C:4])[H:10])([H:8])[H:9])([C:5]([H:11])([H:12])[H:13])([H:6])[H:7]"
C       -0.09758270      -0.62655494       0.80910314
C       -1.20349618      -0.16415620      -0.14682168
C       -0.67361961       1.06202199      -0.83586963
C        0.56606505       1.43997375      -0.70231234
C        1.25427837      -0.29418551       0.17472988
H       -0.19829549      -1.69157401       1.02819094
H       -0.19678787      -0.09833774       1.76036911
H       -1.41538206      -0.92902889      -0.90167829
H       -2.13959613       0.04065383       0.37565732
H       -1.26137731       1.79527566      -1.39148134
H        1.81668264       0.87349952      -0.50850409
H        1.50400712      -1.03928615      -0.58826256
H        2.04510417      -0.36830131       0.92687952
13
Frame=14 idx=000946 GeodesicLength=0.7381564653812188 rxn_smarts="[C:1]1([H:6])([H:7])[C:2]([H:8])([H:9])[C:3]([H:10])=[C:4]([H:11])[C:5]1([H:12])[H:13]>>[C:1]([C:2]([C:3](=[C:4])[H:10])([H:8])[H:9])([C:5]([H:11])([H:12])[H:13])([H:6])[H:7]"
C       -0.09726015      -0.62813196       0.80795737
C       -1.20535840      -0.16372319      -0.14602082
C       -0.67903263       1.06277399      -0.83692045
C        0.55761331       1.44426659      -0.69491571
C        1.25670563      -0.28848797       0.17617390
H       -0.19772250      -1.69399912       1.02211067
H       -0.19908859      -0.10524454       1.76191863
H       -1.41903744      -0.92777081      -0.90110881
H       -2.13989518       0.04108103       0.37912772
H       -1.26057889       1.79955601      -1.39520159
H        1.83119482       0.86886839      -0.52985840
H        1.51070656      -1.04248550      -0.57740285
H        2.04175348      -0.36670292       0.93414034
13
Frame=15 idx=000946 GeodesicLength=0.7908828548178877 rxn_smarts="[C:1]1([H:6])([H:7])[C:2]([H:8])([H:9])[C:3]([H:10])=[C:4]([H:11])[C:5]1([H:12])[H:13]>>[C:1]([C:2]([C:3](=[C:4])[H:10])([H:8])[H:9])([C:5]([H:11])([H:12])[H:13])([H:6])[H:7]"
C       -0.09691427      -0.62972961       0.80676434
C       -1.20722133      -0.16325577      -0.14520711
C       -0.68448057       1.06365120      -0.83782140
C        0.54915904       1.44848052      -0.68760357
C        1.25915239      -0.28271098       0.17763591
H       -0.19709617      -1.69644457       1.01588344
H       -0.20137132      -0.11228685       1.76343893
H       -1.42269137      -0.92641796      -0.90058259
H       -2.14018243       0.04147930       0.38264042
H       -1.25970925       1.80386747      -1.39890493
H        1.84551744       0.86379659      -0.55140964
H        1.51753081      -1.04556375      -0.56629157
H        2.03830702      -0.36486559       0.94145777
13
Frame=16 idx=000946 GeodesicLength=0.8435754270372333 rxn_smarts="[C:1]1([H:6])([H:7])[C:2]([H:8])([H:9])[C:3]([H:10])=[C:4]([H:11])[C:5]1([H:12])[H:13]>>[C:1]([C:2]([C:3](=[C:4])[H:10])([H:8])[H:9])([C:5]([H:11])([H:12])[H:13])([H:6])[H:7]"
C       -0.09653661      -0.63135010       0.80550420
C       -1.20909153      -0.16274053      -0.14436787
C       -0.68999405       1.06470005      -0.83851143
C        0.54068698       1.45261693      -0.68036843
C        1.26161959      -0.27681359       0.17912321
H       -0.19639417      -1.69890624       1.00944479
H       -0.20362076      -0.11952434       1.76491248
H       -1.42635257      -0.92493628      -0.90010419
H       -2.14045560       0.04183444       0.38622294
H       -1.25874345       1.80818430      -1.40263328
H        1.85965161       0.85809360      -0.57321000
H        1.52450945      -1.04844179      -0.55485957
H        2.03472110      -0.36271646       0.94884714
