15
Frame=0 idx=009219 GeodesicLength=0.0 rxn_smarts="[C:1]([C:2]#[C:3][C:4]([C@@:5]1([H:13])[C:6]([H:14])([H:15])[O:7]1)([H:11])[H:12])([H:8])([H:9])[H:10]>>[C:1]([C-:2]=[C:3]([C+:4]([H:11])[H:12])[C@@:5]1([H:13])[C:6]([H:14])([H:15])[O:7]1)([H:8])([H:9])[H:10]"
C        1.62695534      -0.95271922      -1.05938445
C        1.54549622       0.17686306      -0.12216072
C        0.58577909       0.86701730       0.36753133
C       -0.05959144       2.01873255       0.78863903
C       -0.98933828       0.28854089       0.07813586
C       -1.25498765      -1.05847400       0.60134574
O       -1.95229281       0.10001658       1.05284649
H        2.44580582      -1.63438120      -0.82573586
H        0.69242462      -1.53266499      -1.11086175
H        1.81035322      -0.56325702      -2.06573524
H        0.04039724       2.94670279       0.23389290
H       -0.74469087       2.00005499       1.62292595
H       -1.32989154       0.58517051      -0.90654105
H       -1.85944123      -1.75873762       0.03131061
H       -0.55697773      -1.48286462       1.31379122
15
Frame=1 idx=009219 GeodesicLength=0.09432059656109215 rxn_smarts="[C:1]([C:2]#[C:3][C:4]([C@@:5]1([H:13])[C:6]([H:14])([H:15])[O:7]1)([H:11])[H:12])([H:8])([H:9])[H:10]>>[C:1]([C-:2]=[C:3]([C+:4]([H:11])[H:12])[C@@:5]1([H:13])[C:6]([H:14])([H:15])[O:7]1)([H:8])([H:9])[H:10]"
C        1.65367875      -0.94337312      -1.07626491
C        1.55818743       0.17522062      -0.12777414
C        0.59108011       0.84549840       0.37665941
C       -0.06170327       1.99635182       0.78768640
C       -0.99882856       0.28658713       0.07705694
C       -1.29098732      -1.04649027       0.62043028
O       -1.99246340       0.12488988       1.02831567
H        2.51119034      -1.58747846      -0.87718469
H        0.74577937      -1.56585207      -1.08704474
H        1.77600800      -0.54556637      -2.08860168
H        0.06426432       2.92552776       0.24064291
H       -0.73233962       1.98951961       1.63402261
H       -1.31761396       0.56201573      -0.92145469
H       -1.88566101      -1.75439622       0.04954200
H       -0.62059119      -1.46245445       1.36396863
15
Frame=2 idx=009219 GeodesicLength=0.18624801041753747 rxn_smarts="[C:1]([C:2]#[C:3][C:4]([C@@:5]1([H:13])[C:6]([H:14])([H:15])[O:7]1)([H:11])[H:12])([H:8])([H:9])[H:10]>>[C:1]([C-:2]=[C:3]([C+:4]([H:11])[H:12])[C@@:5]1([H:13])[C:6]([H:14])([H:15])[O:7]1)([H:8])([H:9])[H:10]"
C        1.68038205      -0.93380448      -1.09314240
C        1.57099526       0.17440730      -0.13446744
C        0.59623914       0.82342528       0.38486920
C       -0.06348638       1.97321997       0.78711772
C       -1.00852147       0.28440665       0.07588158
C       -1.32733040      -1.03373380       0.63936985
O       -2.03124385       0.14996830       1.00314759
H        2.57346318      -1.53816391      -0.92851993
H        0.80279651      -1.59752622      -1.06438429
H        1.74180580      -0.53175723      -2.10935142
H        0.08751143       2.90351230       0.24865782
H       -0.71945556       1.97770399       1.64513145
H       -1.30609516       0.53782951      -0.93539865
H       -1.91246790      -1.74964589       0.06862396
H       -0.68459265      -1.43984177       1.41246497
15
Frame=3 idx=009219 GeodesicLength=0.276283701674058 rxn_smarts="[C:1]([C:2]#[C:3][C:4]([C@@:5]1([H:13])[C:6]([H:14])([H:15])[O:7]1)([H:11])[H:12])([H:8])([H:9])[H:10]>>[C:1]([C-:2]=[C:3]([C+:4]([H:11])[H:12])[C@@:5]1([H:13])[C:6]([H:14])([H:15])[O:7]1)([H:8])([H:9])[H:10]"
C        1.70723113      -0.92392906      -1.11011999
C        1.58388509       0.17410077      -0.14185439
C        0.60125523       0.80056413       0.39231808
C       -0.06488777       1.94924183       0.78688054
C       -1.01844220       0.28191463       0.07467377
C       -1.36425542      -1.02013844       0.65833076
O       -2.06875589       0.17538538       0.97739605
H        2.63282846      -1.48640933      -0.98012704
H        0.86369894      -1.62755552      -1.04317806
H        1.70799991      -0.52142361      -2.12801333
H        0.11023872       2.88047147       0.25766135
H       -0.70612564       1.96469469       1.65611511
H       -1.29528771       0.51245035      -0.94836359
H       -1.94020648      -1.74437423       0.08878036
H       -0.74917638      -1.41499307       1.45950037
15
Frame=4 idx=009219 GeodesicLength=0.36480970493150516 rxn_smarts="[C:1]([C:2]#[C:3][C:4]([C@@:5]1([H:13])[C:6]([H:14])([H:15])[O:7]1)([H:11])[H:12])([H:8])([H:9])[H:10]>>[C:1]([C-:2]=[C:3]([C+:4]([H:11])[H:12])[C@@:5]1([H:13])[C:6]([H:14])([H:15])[O:7]1)([H:8])([H:9])[H:10]"
C        1.73439136      -0.91364590      -1.12731044
C        1.59681385       0.17394755      -0.14956778
C        0.60610330       0.77667360       0.39911893
C       -0.06585937       1.92431530       0.78689604
C       -1.02864041       0.27900514       0.07351039
C       -1.40199480      -1.00564043       0.67750004
O       -2.10509276       0.20125641       0.95114440
H        2.68938937      -1.43222403      -1.03222764
H        0.92862956      -1.65572046      -1.02394747
H        1.67508833      -0.51410873      -2.14459428
H        0.13253920       2.85622068       0.26734464
H       -0.69239890       1.95057507       1.66684633
H       -1.28521656       0.48567473      -0.96030558
H       -1.96924581      -1.73848256       0.11028703
H       -0.81450635      -1.38784636       1.50530538
15
Frame=5 idx=009219 GeodesicLength=0.45218306927222923 rxn_smarts="[C:1]([C:2]#[C:3][C:4]([C@@:5]1([H:13])[C:6]([H:14])([H:15])[O:7]1)([H:11])[H:12])([H:8])([H:9])[H:10]>>[C:1]([C-:2]=[C:3]([C+:4]([H:11])[H:12])[C@@:5]1([H:13])[C:6]([H:14])([H:15])[O:7]1)([H:8])([H:9])[H:10]"
C        1.76204857      -0.90281040      -1.14484727
C        1.60978244       0.17356681      -0.15718962
C        0.61077525       0.75150183       0.40539618
C       -0.06633347       1.89830763       0.78708047
C       -1.03916326       0.27555670       0.07246797
C       -1.44081549      -0.99015642       0.69708532
O       -2.14033975       0.22771920       0.92444203
H        2.74335957      -1.37548558      -1.08482522
H        0.99766287      -1.68195517      -1.00728706
H        1.64350386      -0.50926164      -2.15930825
H        0.15449559       2.83053159       0.27736062
H       -0.67827090       1.93539907       1.67721719
H       -1.27589586       0.45725929      -0.97118470
H       -2.00001297      -1.73185214       0.13344355
H       -0.88079645      -1.35832078       1.55014879
15
Frame=6 idx=009219 GeodesicLength=0.5386269158352381 rxn_smarts="[C:1]([C:2]#[C:3][C:4]([C@@:5]1([H:13])[C:6]([H:14])([H:15])[O:7]1)([H:11])[H:12])([H:8])([H:9])[H:10]>>[C:1]([C-:2]=[C:3]([C+:4]([H:11])[H:12])[C@@:5]1([H:13])[C:6]([H:14])([H:15])[O:7]1)([H:8])([H:9])[H:10]"
C        1.79036553      -0.89129259      -1.16283748
C        1.62276843       0.17248992      -0.16431089
C        0.61521699       0.72472110       0.41127282
C       -0.06627357       1.87104936       0.78733452
C       -1.05005438       0.27141267       0.07161983
C       -1.48095310      -0.97356275       0.71728310
O       -2.17456999       0.25491755       0.89727074
H        2.79482887      -1.31605600      -1.13811760
H        1.07098017      -1.70606388      -0.99381241
H        1.61372697      -0.50631477      -2.17213833
H        0.17623714       2.80314431       0.28738571
H       -0.66378399       1.91922484       1.68707711
H       -1.26732995       0.42686082      -0.98092332
H       -2.03288729      -1.72433751       0.15858112
H       -0.94827183      -1.32619305       1.59431507
15
Frame=7 idx=009219 GeodesicLength=0.6243346586237561 rxn_smarts="[C:1]([C:2]#[C:3][C:4]([C@@:5]1([H:13])[C:6]([H:14])([H:15])[O:7]1)([H:11])[H:12])([H:8])([H:9])[H:10]>>[C:1]([C-:2]=[C:3]([C+:4]([H:11])[H:12])[C@@:5]1([H:13])[C:6]([H:14])([H:15])[O:7]1)([H:8])([H:9])[H:10]"
C        1.81951275      -0.87894183      -1.18138246
C        1.63576966       0.17025249      -0.17055215
C        0.61937532       0.69600236       0.41684233
C       -0.06563813       1.84234333       0.78757072
C       -1.06136142       0.26640692       0.07102784
C       -1.52264653      -0.95570520       0.73827051
O       -2.20782741       0.28298329       0.86957808
H        2.84390131      -1.25365335      -1.19211590
H        1.14877409      -1.72789654      -0.98412360
H        1.58615857      -0.50480236      -2.18319540
H        0.19787739       2.77378099       0.29712433
H       -0.64892196       1.90205926       1.69632274
H       -1.25954865       0.39411362      -0.98943457
H       -2.06827209      -1.71575428       0.18601929
H       -1.01715290      -1.29118870       1.63804823
15
Frame=8 idx=009219 GeodesicLength=0.7094542981951607 rxn_smarts="[C:1]([C:2]#[C:3][C:4]([C@@:5]1([H:13])[C:6]([H:14])([H:15])[O:7]1)([H:11])[H:12])([H:8])([H:9])[H:10]>>[C:1]([C-:2]=[C:3]([C+:4]([H:11])[H:12])[C@@:5]1([H:13])[C:6]([H:14])([H:15])[O:7]1)([H:8])([H:9])[H:10]"
C        1.84964074      -0.86560472      -1.20056093
C        1.64880348       0.16639268      -0.17556933
C        0.62319858       0.66501347       0.42217621
C       -0.06438333       1.81197482       0.78771415
C       -1.07313103       0.26036993       0.07074645
C       -1.56611485      -0.93640272       0.76018697
O       -2.24011481       0.31203263       0.84128089
H        2.89068359      -1.18788754      -1.24672390
H        1.23125000      -1.74735220      -0.97874436
H        1.56110046      -0.50433214      -2.19265576
H        0.21951726       2.74215885       0.30630581
H       -0.63364012       1.88387275       1.70487399
H       -1.25260607       0.35863575      -0.99661041
H       -2.10657039      -1.70587811       0.21604430
H       -1.08763351      -1.25299344       1.68153591
15
Frame=9 idx=009219 GeodesicLength=0.7940522753237477 rxn_smarts="[C:1]([C:2]#[C:3][C:4]([C@@:5]1([H:13])[C:6]([H:14])([H:15])[O:7]1)([H:11])[H:12])([H:8])([H:9])[H:10]>>[C:1]([C-:2]=[C:3]([C+:4]([H:11])[H:12])[C@@:5]1([H:13])[C:6]([H:14])([H:15])[O:7]1)([H:8])([H:9])[H:10]"
C        1.88086521      -0.85112572      -1.22041679
C        1.66182857       0.16048003      -0.17917266
C        0.62659827       0.63143874       0.42724078
C       -0.06247426       1.77971253       0.78768351
C       -1.08543797       0.25314188       0.07082670
C       -1.61151513      -0.91545531       0.78311846
O       -2.27137091       0.34214083       0.81234227
H        2.93520333      -1.11842330      -1.30161663
H        1.31862236      -1.76427053      -0.97818029
H        1.53890735      -0.50457608      -2.20064147
H        0.24121978       2.70800390       0.31468631
H       -0.61782710       1.86456609       1.71267042
H       -1.24668340       0.32007493      -1.00229530
H       -2.14817134      -1.69442667       0.24890525
H       -1.15976476      -1.21128133       1.72484944
15
Frame=10 idx=009219 GeodesicLength=0.8782055418052789 rxn_smarts="[C:1]([C:2]#[C:3][C:4]([C@@:5]1([H:13])[C:6]([H:14])([H:15])[O:7]1)([H:11])[H:12])([H:8])([H:9])[H:10]>>[C:1]([C-:2]=[C:3]([C+:4]([H:11])[H:12])[C@@:5]1([H:13])[C:6]([H:14])([H:15])[O:7]1)([H:8])([H:9])[H:10]"
C        1.91325678      -0.83538463      -1.24093261
C        1.67489587       0.15203802      -0.18106344
C        0.62953348       0.59494400       0.43207523
C       -0.05987446       1.74530399       0.78744244
C       -1.09830472       0.24455634       0.07129841
C       -1.65897030      -0.89261762       0.80708984
O       -2.30150349       0.37337137       0.78259026
H        2.97741119      -1.04460965      -1.35661467
H        1.41119859      -1.77853855      -0.98271090
H        1.51959068      -0.50543275      -2.20737612
H        0.26306707       2.67101779       0.32207792
H       -0.60141420       1.84402581       1.71967152
H       -1.24185672       0.27803069      -1.00634100
H       -2.19339660      -1.68106417       0.28476804
H       -1.23363316      -1.16564063       1.76802508
15
Frame=11 idx=009219 GeodesicLength=0.9618537119000207 rxn_smarts="[C:1]([C:2]#[C:3][C:4]([C@@:5]1([H:13])[C:6]([H:14])([H:15])[O:7]1)([H:11])[H:12])([H:8])([H:9])[H:10]>>[C:1]([C-:2]=[C:3]([C+:4]([H:11])[H:12])[C@@:5]1([H:13])[C:6]([H:14])([H:15])[O:7]1)([H:8])([H:9])[H:10]"
C        1.94685061      -0.81832429      -1.26200882
C        1.68789367       0.14077714      -0.18142459
C        0.63188199       0.55531439       0.43641010
C       -0.05659528       1.70853180       0.78697352
C       -1.11185312       0.23453616       0.07217978
C       -1.70845279      -0.86766905       0.83198550
O       -2.33034059       0.40566693       0.75209130
H        3.01705684      -0.96612228      -1.41117949
H        1.50925097      -1.78966274      -0.99235827
H        1.50346240      -0.50726783      -2.21294666
H        0.28500953       2.63103299       0.32843310
H       -0.58418505       1.82199134       1.72596914
H       -1.23856269       0.23238651      -1.00852806
H       -2.24249760      -1.66537503       0.32362900
H       -1.30891887      -1.11581603       1.81077445
15
Frame=12 idx=009219 GeodesicLength=1.044966366364569 rxn_smarts="[C:1]([C:2]#[C:3][C:4]([C@@:5]1([H:13])[C:6]([H:14])([H:15])[O:7]1)([H:11])[H:12])([H:8])([H:9])[H:10]>>[C:1]([C-:2]=[C:3]([C+:4]([H:11])[H:12])[C@@:5]1([H:13])[C:6]([H:14])([H:15])[O:7]1)([H:8])([H:9])[H:10]"
C        1.98161054      -0.79992880      -1.28351773
C        1.70075791       0.12645005      -0.18035583
C        0.63355957       0.51240174       0.44002961
C       -0.05265599       1.66920378       0.78629363
C       -1.12616304       0.22305010       0.07347888
C       -1.75985571      -0.84038427       0.85762859
O       -2.35768202       0.43896153       0.72087346
H        3.05383033      -0.88247193      -1.46475263
H        1.61304879      -1.79731423      -1.00693648
H        1.49053361      -0.51062704      -2.21762121
H        0.30698814       2.58790316       0.33374540
H       -0.56595910       1.79819312       1.73166172
H       -1.23717362       0.18309963      -1.00866286
H       -2.29560862      -1.64690879       0.36535964
H       -1.38523081      -1.06162807       1.85277582
15
Frame=13 idx=009219 GeodesicLength=1.1274712122143586 rxn_smarts="[C:1]([C:2]#[C:3][C:4]([C@@:5]1([H:13])[C:6]([H:14])([H:15])[O:7]1)([H:11])[H:12])([H:8])([H:9])[H:10]>>[C:1]([C-:2]=[C:3]([C+:4]([H:11])[H:12])[C@@:5]1([H:13])[C:6]([H:14])([H:15])[O:7]1)([H:8])([H:9])[H:10]"
C        2.01742759      -0.78019980      -1.30525463
C        1.71332314       0.10877685      -0.17811036
C        0.63442798       0.46608263       0.44257795
C       -0.04809922       1.62714101       0.78535988
C       -1.14135316       0.21008766       0.07519737
C       -1.81294088      -0.81057806       0.88381142
O       -2.38329939       0.47313565       0.68908793
H        3.08716722      -0.79353705      -1.51655393
H        1.72281510      -1.80087443      -1.02627281
H        1.48104678      -0.51591571      -2.22149584
H        0.32892453       2.54150963       0.33796957
H       -0.54651702       1.77232048       1.73680269
H       -1.23824169       0.13023169      -1.00653586
H       -2.35274462      -1.62519683       0.40976980
H       -1.46193635      -1.00298371       1.89364680
15
Frame=14 idx=009219 GeodesicLength=1.20932883334057 rxn_smarts="[C:1]([C:2]#[C:3][C:4]([C@@:5]1([H:13])[C:6]([H:14])([H:15])[O:7]1)([H:11])[H:12])([H:8])([H:9])[H:10]>>[C:1]([C-:2]=[C:3]([C+:4]([H:11])[H:12])[C@@:5]1([H:13])[C:6]([H:14])([H:15])[O:7]1)([H:8])([H:9])[H:10]"
C        2.05418029      -0.75925537      -1.32700518
C        1.72546426       0.08766129      -0.17502648
C        0.63436986       0.41638976       0.44365371
C       -0.04301774       1.58225058       0.78421366
C       -1.15754776       0.19576089       0.07732234
C       -1.86737006      -0.77810589       0.91023512
O       -2.40699573       0.50801736       0.65696741
H        3.11643083      -0.69916610      -1.56589557
H        1.83862075      -1.79962094      -1.04972389
H        1.47519871      -0.52419493      -2.22492315
H        0.35067117       2.49186647       0.34122979
H       -0.52567085       1.74403316       1.74157330
H       -1.24234511       0.07415718      -1.00198380
H       -2.41374862      -1.59977130       0.45647178
H       -1.53823998      -0.94002216       1.93289094
15
Frame=15 idx=009219 GeodesicLength=1.2905419635473057 rxn_smarts="[C:1]([C:2]#[C:3][C:4]([C@@:5]1([H:13])[C:6]([H:14])([H:15])[O:7]1)([H:11])[H:12])([H:8])([H:9])[H:10]>>[C:1]([C-:2]=[C:3]([C+:4]([H:11])[H:12])[C@@:5]1([H:13])[C:6]([H:14])([H:15])[O:7]1)([H:8])([H:9])[H:10]"
C        2.09170246      -0.73718315      -1.34852894
C        1.73698974       0.06286675      -0.17141560
C        0.63322084       0.36331979       0.44282007
C       -0.03751241       1.53442885       0.78279443
C       -1.17487972       0.18015636       0.07984085
C       -1.92273800      -0.74286431       0.93667355
O       -2.42859462       0.54344574       0.62477668
H        3.14080235      -0.59956002      -1.61193479
H        1.96042066      -1.79263489      -1.07681497
H        1.47346489      -0.53605276      -2.22817359
H        0.37212249       2.43894218       0.34352116
H       -0.50324584       1.71300244       1.74601897
H       -1.25011167       0.01523871      -0.99486674
H       -2.47834641      -1.57020295       0.50513749
H       -1.61329477      -0.87290273       1.97015143
15
Frame=16 idx=009219 GeodesicLength=1.3711502026510092 rxn_smarts="[C:1]([C:2]#[C:3][C:4]([C@@:5]1([H:13])[C:6]([H:14])([H:15])[O:7]1)([H:11])[H:12])([H:8])([H:9])[H:10]>>[C:1]([C-:2]=[C:3]([C+:4]([H:11])[H:12])[C@@:5]1([H:13])[C:6]([H:14])([H:15])[O:7]1)([H:8])([H:9])[H:10]"
C        2.12980539      -0.71416600      -1.36956870
C        1.74769395       0.03430808      -0.16771681
C        0.63080397       0.30699397       0.43955399
C       -0.03170976       1.48363904       0.78108084
C       -1.19349430       0.16349154       0.08270905
C       -1.97855011      -0.70481276       0.96283966
O       -2.44796589       0.57925980       0.59288113
H        3.15933254      -0.49500616      -1.65397391
H        2.08812158      -1.77886172      -1.10660251
H        1.47630771      -0.55253881      -2.23158734
H        0.39315044       2.38281068       0.34496369
H       -0.47907611       1.67884522       1.75025589
H       -1.26220024      -0.04581609      -0.98514094
H       -2.54610742      -1.53609455       0.55528896
H       -1.68611177      -0.80205222       2.00501701
