13
Frame=0 idx=009063 GeodesicLength=0.0 rxn_smarts="[O:1]=[C:2]1[C:3]([H:8])([H:9])[C:4]([H:10])([H:11])[C:5](=[O:6])[C:7]1([H:12])[H:13]>>[O:1]=[C:2]1[C:3]([H:8])([H:9])[C:4]([H:10])([H:11])[C:5]([O:6][H:13])=[C:7]1[H:12]"
O        0.49969344      -2.45516407      -0.54173603
C        0.30648011      -1.29281946      -0.29867847
C       -1.09822258      -0.66596976      -0.17039658
C       -0.90380939       0.74975369       0.41751536
C        0.55329986       0.96358589       0.18594368
O        1.17860063       2.02303698      -0.11879602
C        1.28901054      -0.22584110      -0.04418978
H       -1.72959718      -1.30865441       0.44137558
H       -1.54456952      -0.62617550      -1.16657509
H       -1.08896723       0.75292149       1.49503105
H       -1.51322825       1.52716784      -0.03970692
H        2.22042556      -0.42311418       0.47698859
H        1.83088407       0.98127257      -0.63677537
13
Frame=1 idx=009063 GeodesicLength=0.039259551771620216 rxn_smarts="[O:1]=[C:2]1[C:3]([H:8])([H:9])[C:4]([H:10])([H:11])[C:5](=[O:6])[C:7]1([H:12])[H:13]>>[O:1]=[C:2]1[C:3]([H:8])([H:9])[C:4]([H:10])([H:11])[C:5]([O:6][H:13])=[C:7]1[H:12]"
O        0.50135197      -2.45135127      -0.55176132
C        0.30538853      -1.29093961      -0.30185036
C       -1.09902119      -0.66738291      -0.16722736
C       -0.90461657       0.74897199       0.41618563
C        0.55495788       0.96388530       0.19756193
O        1.17641827       2.02335731      -0.11639039
C        1.28979857      -0.22476648      -0.04557843
H       -1.72568473      -1.31064555       0.44884304
H       -1.55041406      -0.63091523      -1.16126024
H       -1.09661025       0.75962938       1.49243602
H       -1.50986845       1.52563605      -0.04805266
H        2.21738329      -0.42944968       0.47974057
H        1.84091673       0.98397069      -0.64264643
13
Frame=2 idx=009063 GeodesicLength=0.07852851900081845 rxn_smarts="[O:1]=[C:2]1[C:3]([H:8])([H:9])[C:4]([H:10])([H:11])[C:5](=[O:6])[C:7]1([H:12])[H:13]>>[O:1]=[C:2]1[C:3]([H:8])([H:9])[C:4]([H:10])([H:11])[C:5]([O:6][H:13])=[C:7]1[H:12]"
O        0.50300711      -2.44736590      -0.56207196
C        0.30429160      -1.28895759      -0.30521835
C       -1.09983049      -0.66882826      -0.16397929
C       -0.90541680       0.74819756       0.41482461
C        0.55654604       0.96415404       0.20922313
O        1.17418496       2.02353936      -0.11407290
C        1.29054743      -0.22361475      -0.04688902
H       -1.72157207      -1.31268337       0.45652048
H       -1.55644584      -0.63576315      -1.15574797
H       -1.10432543       0.76645163       1.48969724
H       -1.50642600       1.52403632      -0.05650858
H        2.21417017      -0.43583706       0.48259696
H        1.85126932       0.98667116      -0.64837434
13
Frame=3 idx=009063 GeodesicLength=0.11781504887174674 rxn_smarts="[O:1]=[C:2]1[C:3]([H:8])([H:9])[C:4]([H:10])([H:11])[C:5](=[O:6])[C:7]1([H:12])[H:13]>>[O:1]=[C:2]1[C:3]([H:8])([H:9])[C:4]([H:10])([H:11])[C:5]([O:6][H:13])=[C:7]1[H:12]"
O        0.50465754      -2.44318228      -0.57274816
C        0.30318501      -1.28686262      -0.30880724
C       -1.10064755      -0.67031411      -0.16062896
C       -0.90621461       0.74743717       0.41341493
C        0.55806328       0.96439492       0.22092775
O        1.17190876       2.02357236      -0.11181692
C        1.29125363      -0.22238535      -0.04811614
H       -1.71721220      -1.31477741       0.46446093
H       -1.56269941      -0.64075114      -1.14998899
H       -1.11213451       0.77342308       1.48678917
H       -1.50289209       1.52236269      -0.06512441
H        2.21076478      -0.44228937       0.48557687
H        1.86196737       0.98937205      -0.65393882
13
Frame=4 idx=009063 GeodesicLength=0.1570986701590059 rxn_smarts="[O:1]=[C:2]1[C:3]([H:8])([H:9])[C:4]([H:10])([H:11])[C:5](=[O:6])[C:7]1([H:12])[H:13]>>[O:1]=[C:2]1[C:3]([H:8])([H:9])[C:4]([H:10])([H:11])[C:5]([O:6][H:13])=[C:7]1[H:12]"
O        0.50629878      -2.43881596      -0.58369054
C        0.30206664      -1.28465465      -0.31259866
C       -1.10147439      -0.67183170      -0.15720173
C       -0.90701186       0.74668001       0.41197904
C        0.55949068       0.96460940       0.23265925
O        1.16958012       2.02345984      -0.10967393
C        1.29191553      -0.22107344      -0.04927178
H       -1.71264169      -1.31691673       0.47259845
H       -1.56913091      -0.64584712      -1.14402637
H       -1.12000066       0.78049839       1.48373398
H       -1.49928628       1.52061533      -0.07382767
H        2.20717073      -0.44879416       0.48865229
H        1.87302331       0.99207080      -0.65933231
13
Frame=5 idx=009063 GeodesicLength=0.19640180235752802 rxn_smarts="[O:1]=[C:2]1[C:3]([H:8])([H:9])[C:4]([H:10])([H:11])[C:5](=[O:6])[C:7]1([H:12])[H:13]>>[O:1]=[C:2]1[C:3]([H:8])([H:9])[C:4]([H:10])([H:11])[C:5]([O:6][H:13])=[C:7]1[H:12]"
O        0.50792857      -2.43424193      -0.59497436
C        0.30093275      -1.28232202      -0.31661751
C       -1.10231348      -0.67338992      -0.15367754
C       -0.90781539       0.74593114       0.41050263
C        0.56082994       0.96480356       0.24441175
O        1.16721040       2.02319230      -0.10762966
C        1.29253387      -0.21967721      -0.05035159
H       -1.70782410      -1.31911186       0.48098447
H       -1.57578068      -0.65108197      -1.13781948
H       -1.12794302       0.78770437       1.48051515
H       -1.49560816       1.51878589      -0.08266032
H        2.20337013      -0.45535940       0.49184818
H        1.88447915       0.99476706      -0.66453173
13
Frame=6 idx=009063 GeodesicLength=0.23573572006620183 rxn_smarts="[O:1]=[C:2]1[C:3]([H:8])([H:9])[C:4]([H:10])([H:11])[C:5](=[O:6])[C:7]1([H:12])[H:13]>>[O:1]=[C:2]1[C:3]([H:8])([H:9])[C:4]([H:10])([H:11])[C:5]([O:6][H:13])=[C:7]1[H:12]"
O        0.50954557      -2.42943269      -0.60667083
C        0.29978007      -1.27985342      -0.32088792
C       -1.10316345      -0.67499736      -0.15003395
C       -0.90863075       0.74519639       0.40896937
C        0.56207508       0.96497428       0.25619352
O        1.16481426       2.02276902      -0.10565280
C        1.29310597      -0.21819711      -0.05134981
H       -1.70271595      -1.32136986       0.48967031
H       -1.58268224      -0.65649009      -1.13132184
H       -1.13598724       0.79507821       1.47710512
H       -1.49184761       1.51686622      -0.09167433
H        2.19935115      -0.46199897       0.49516608
H        1.89635512       0.99745537      -0.66951293
13
Frame=7 idx=009063 GeodesicLength=0.275085788237394 rxn_smarts="[O:1]=[C:2]1[C:3]([H:8])([H:9])[C:4]([H:10])([H:11])[C:5](=[O:6])[C:7]1([H:12])[H:13]>>[O:1]=[C:2]1[C:3]([H:8])([H:9])[C:4]([H:10])([H:11])[C:5]([O:6][H:13])=[C:7]1[H:12]"
O        0.51115134      -2.42434808      -0.61889748
C        0.29860612      -1.27723081      -0.32545180
C       -1.10402534      -0.67666542      -0.14624037
C       -0.90946554       0.74448306       0.40735751
C        0.56321370       0.96513036       0.26799802
O        1.16241115       2.02217210      -0.10374846
C        1.29362851      -0.21663080      -0.05225723
H       -1.69725718      -1.32370154       0.49873482
H       -1.58989413      -0.66211480      -1.12446956
H       -1.14415289       0.80265896       1.47346767
H       -1.48799823       1.51484236      -0.10092344
H        2.19508160      -0.46873052       0.49864303
H        1.90870090       1.00013512      -0.67421272
13
Frame=8 idx=009063 GeodesicLength=0.31450194142234683 rxn_smarts="[O:1]=[C:2]1[C:3]([H:8])([H:9])[C:4]([H:10])([H:11])[C:5](=[O:6])[C:7]1([H:12])[H:13]>>[O:1]=[C:2]1[C:3]([H:8])([H:9])[C:4]([H:10])([H:11])[C:5]([O:6][H:13])=[C:7]1[H:12]"
O        0.51273378      -2.41896257      -0.63172348
C        0.29740297      -1.27444833      -0.33032250
C       -1.10489632      -0.67840335      -0.14227231
C       -0.91032538       0.74379692       0.40564870
C        0.56424833       0.96526901       0.27983859
O        1.16001111       2.02140118      -0.10185944
C        1.29410185      -0.21497818      -0.05307071
H       -1.69140435      -1.32611066       0.50822335
H       -1.59744063      -0.66799196      -1.11721162
H       -1.15247403       0.81048491       1.46957287
H       -1.48404823       1.51270280      -0.11046707
H        2.19055626      -0.47556583       0.50227485
H        1.92153465       1.00280607      -0.67863124
13
Frame=9 idx=009063 GeodesicLength=0.3539527195035483 rxn_smarts="[O:1]=[C:2]1[C:3]([H:8])([H:9])[C:4]([H:10])([H:11])[C:5](=[O:6])[C:7]1([H:12])[H:13]>>[O:1]=[C:2]1[C:3]([H:8])([H:9])[C:4]([H:10])([H:11])[C:5]([O:6][H:13])=[C:7]1[H:12]"
O        0.51429853      -2.41321548      -0.64525641
C        0.29617257      -1.27147307      -0.33555178
C       -1.10577910      -0.68022456      -0.13809966
C       -0.91121910       0.74314335       0.40382309
C        0.56515889       0.96538842       0.29171114
O        1.15763687       2.02044667      -0.10000325
C        1.29452180      -0.21323671      -0.05378612
H       -1.68509072      -1.32861706       0.51821478
H       -1.60538792      -0.67417025      -1.10948225
H       -1.16096858       0.81860157       1.46538239
H       -1.47998745       1.51043360      -0.12035732
H        2.18573420      -0.48252881       0.50608679
H        1.93491000       1.00545234      -0.68268139
13
Frame=10 idx=009063 GeodesicLength=0.39341951492089383 rxn_smarts="[O:1]=[C:2]1[C:3]([H:8])([H:9])[C:4]([H:10])([H:11])[C:5](=[O:6])[C:7]1([H:12])[H:13]>>[O:1]=[C:2]1[C:3]([H:8])([H:9])[C:4]([H:10])([H:11])[C:5]([O:6][H:13])=[C:7]1[H:12]"
O        0.51581523      -2.40704839      -0.65961943
C        0.29489011      -1.26827151      -0.34117909
C       -1.10666277      -0.68214305      -0.13367968
C       -0.91216056       0.74253137       0.40185448
C        0.56594244       0.96549891       0.30363557
O        1.15529511       2.01927534      -0.09820006
C        1.29487995      -0.21140558      -0.05440859
H       -1.67821689      -1.33122302       0.52877888
H       -1.61377042      -0.68070603      -1.10117864
H       -1.16968293       0.82705194       1.46085317
H       -1.47581258       1.50800834      -0.13067569
H        2.18058451      -0.48964823       0.51007175
H        1.94889881       1.00807992      -0.68625267
13
Frame=11 idx=009063 GeodesicLength=0.432935239197556 rxn_smarts="[O:1]=[C:2]1[C:3]([H:8])([H:9])[C:4]([H:10])([H:11])[C:5](=[O:6])[C:7]1([H:12])[H:13]>>[O:1]=[C:2]1[C:3]([H:8])([H:9])[C:4]([H:10])([H:11])[C:5]([O:6][H:13])=[C:7]1[H:12]"
O        0.51727952      -2.40049841      -0.67467037
C        0.29356144      -1.26486538      -0.34716006
C       -1.10755011      -0.68414765      -0.12904600
C       -0.91314432       0.74194965       0.39975899
C        0.56659229       0.96559108       0.31560700
O        1.15299593       2.01791026      -0.09637305
C        1.29517965      -0.20948371      -0.05494409
H       -1.67084299      -1.33390986       0.53984224
H       -1.62253316      -0.68756320      -1.09236467
H       -1.17859451       0.83579469       1.45599274
H       -1.47151491       1.50542987      -0.14136752
H        2.17514187      -0.49690020       0.51417415
H        1.96342928       1.01069288      -0.68944935
13
Frame=12 idx=009063 GeodesicLength=0.47249683496349637 rxn_smarts="[O:1]=[C:2]1[C:3]([H:8])([H:9])[C:4]([H:10])([H:11])[C:5](=[O:6])[C:7]1([H:12])[H:13]>>[O:1]=[C:2]1[C:3]([H:8])([H:9])[C:4]([H:10])([H:11])[C:5]([O:6][H:13])=[C:7]1[H:12]"
O        0.51867641      -2.39358293      -0.69028829
C        0.29217954      -1.26125784      -0.35344913
C       -1.10843776      -0.68622789      -0.12422508
C       -0.91417176       0.74138892       0.39755635
C        0.56710195       0.96566333       0.32762982
O        1.15073893       2.01634873      -0.09451682
C        1.29541856      -0.20746869      -0.05540412
H       -1.66300679      -1.33666028       0.55132243
H       -1.63160814      -0.69470870      -1.08308390
H       -1.18768616       0.84478291       1.45081774
H       -1.46710072       1.50269800      -0.15237726
H        2.16942937      -0.50426401       0.51833351
H        1.97846658       1.01328844      -0.69231526
13
Frame=13 idx=009063 GeodesicLength=0.5120957190712372 rxn_smarts="[O:1]=[C:2]1[C:3]([H:8])([H:9])[C:4]([H:10])([H:11])[C:5](=[O:6])[C:7]1([H:12])[H:13]>>[O:1]=[C:2]1[C:3]([H:8])([H:9])[C:4]([H:10])([H:11])[C:5]([O:6][H:13])=[C:7]1[H:12]"
O        0.51999399      -2.38632131      -0.70635990
C        0.29073910      -1.25745568      -0.35999550
C       -1.10932290      -0.68837335      -0.11924286
C       -0.91524404       0.74084047       0.39526621
C        0.56746478       0.96571423       0.33970566
O        1.14852650       2.01458816      -0.09262559
C        1.29559429      -0.20535890      -0.05579786
H       -1.65475065      -1.33945594       0.56313904
H       -1.64092681      -0.70210899      -1.07338324
H       -1.19693880       0.85397035       1.44534618
H       -1.46257650       1.49981408      -0.16364903
H        2.16347119      -0.51171702       0.52249523
H        1.99396984       1.01586390      -0.69489834
13
Frame=14 idx=009063 GeodesicLength=0.5517259022980413 rxn_smarts="[O:1]=[C:2]1[C:3]([H:8])([H:9])[C:4]([H:10])([H:11])[C:5](=[O:6])[C:7]1([H:12])[H:13]>>[O:1]=[C:2]1[C:3]([H:8])([H:9])[C:4]([H:10])([H:11])[C:5]([O:6][H:13])=[C:7]1[H:12]"
O        0.52122283      -2.37874030      -0.72276098
C        0.28923636      -1.25347071      -0.36673900
C       -1.11020307      -0.69057186      -0.11412954
C       -0.91636128       0.74029521       0.39291143
C        0.56767585       0.96574199       0.35183500
O        1.14635996       2.01262772      -0.09069103
C        1.29570552      -0.20315330      -0.05613348
H       -1.64612886      -1.34227776       0.57520165
H       -1.65041254      -0.70972300      -1.06332150
H       -1.20632902       0.86330570       1.43960263
H       -1.45795035       1.49678276      -0.17511888
H        2.15729662      -0.51923149       0.52660625
H        2.00988799       1.01841504      -0.69726256
13
Frame=15 idx=009063 GeodesicLength=0.591379264780175 rxn_smarts="[O:1]=[C:2]1[C:3]([H:8])([H:9])[C:4]([H:10])([H:11])[C:5](=[O:6])[C:7]1([H:12])[H:13]>>[O:1]=[C:2]1[C:3]([H:8])([H:9])[C:4]([H:10])([H:11])[C:5]([O:6][H:13])=[C:7]1[H:12]"
O        0.52235681      -2.37086845      -0.73937513
C        0.28766939      -1.24931803      -0.37361641
C       -1.11107641      -0.69281137      -0.10891508
C       -0.91752312       0.73974469       0.39051484
C        0.56773086       0.96574511       0.36401564
O        1.14424197       2.01046734      -0.08870481
C        1.29575156      -0.20085176      -0.05641611
H       -1.63720004      -1.34510721       0.58742208
H       -1.65998971      -0.71750874      -1.05296100
H       -1.21583136       0.87273878       1.43361403
H       -1.45323113       1.49361076      -0.18672250
H        2.15093559      -0.52677791       0.53062218
H        2.02616558       1.02093679      -0.69947774
13
Frame=16 idx=009063 GeodesicLength=0.631048079493294 rxn_smarts="[O:1]=[C:2]1[C:3]([H:8])([H:9])[C:4]([H:10])([H:11])[C:5](=[O:6])[C:7]1([H:12])[H:13]>>[O:1]=[C:2]1[C:3]([H:8])([H:9])[C:4]([H:10])([H:11])[C:5]([O:6][H:13])=[C:7]1[H:12]"
O        0.52339309      -2.36273864      -0.75608568
C        0.28603826      -1.24501681      -0.38055963
C       -1.11194169      -0.69507920      -0.10363123
C       -0.91872844       0.73918073       0.38810062
C        0.56762702       0.96572211       0.37624405
O        1.14217499       2.00810862      -0.08665765
C        1.29573274      -0.19845505      -0.05664848
H       -1.62803049      -1.34792622       0.59970959
H       -1.66958065      -0.72542042      -1.04237150
H       -1.22541774       0.88221804       1.42741176
H       -1.44842877       1.49030771      -0.19839227
H        2.14442086      -0.53432401       0.53450471
H        2.04274083       1.02342313      -0.70162431
