16
Frame=0 idx=009648 GeodesicLength=0.0 rxn_smarts="[C:1]([C@@:2]1([H:11])[N:3]([H:12])[C@:4]1([C@@:5]1([H:14])[C:6]([H:15])([H:16])[O:7]1)[H:13])([H:8])([H:9])[H:10]>>[C:1]([N+:3]1([H:12])[C-:2]([H:11])[C@@:4]1([C@@:5]1([H:14])[C:6]([H:15])([H:16])[O:7]1)[H:13])([H:8])([H:9])[H:10]"
C       -2.05069463      -0.62888593       0.47779213
C       -1.21347196       0.99674553      -0.29409626
N       -0.42425890      -0.04704748       1.02073103
C        0.19419159       0.91651039       0.13067416
C        1.18745844       0.36289891      -0.86208301
C        2.34142220      -0.41991753      -0.43484670
O        1.20111698      -1.04885751      -1.01108910
H       -2.94968173      -0.02466941       0.50174318
H       -2.05924461      -1.25102973       1.37320459
H       -2.01516559      -1.23675076      -0.41858654
H       -1.70295406       1.71662502       0.37624647
H       -0.07553262      -0.94124882       0.66839919
H        0.59436768       1.75971229       0.69318936
H        1.24448478       0.90792456      -1.80111139
H        3.23890395      -0.44620577      -1.04456136
H        2.48905851      -0.61580379       0.62439420
16
Frame=1 idx=009648 GeodesicLength=0.05973867997608245 rxn_smarts="[C:1]([C@@:2]1([H:11])[N:3]([H:12])[C@:4]1([C@@:5]1([H:14])[C:6]([H:15])([H:16])[O:7]1)[H:13])([H:8])([H:9])[H:10]>>[C:1]([N+:3]1([H:12])[C-:2]([H:11])[C@@:4]1([C@@:5]1([H:14])[C:6]([H:15])([H:16])[O:7]1)[H:13])([H:8])([H:9])[H:10]"
C       -2.06403039      -0.62703954       0.48421786
C       -1.20897807       0.98328952      -0.28435659
N       -0.42774401      -0.05098804       1.00544247
C        0.20168426       0.91616185       0.12902805
C        1.19473544       0.36596845      -0.86446419
C        2.34961572      -0.41642805      -0.43823546
O        1.21154341      -1.04496363      -1.01903952
H       -2.96453896      -0.02395855       0.49992595
H       -2.08261529      -1.24003073       1.38608311
H       -2.02799714      -1.24775865      -0.40381614
H       -1.70188128       1.71553261       0.36864468
H       -0.07600607      -0.94727288       0.66385698
H        0.59774089       1.75631761       0.69867587
H        1.25447553       0.91561138      -1.80069402
H        3.24864745      -0.43829564      -1.04582834
H        2.49534851      -0.61614572       0.62055929
16
Frame=2 idx=009648 GeodesicLength=0.11927319931985339 rxn_smarts="[C:1]([C@@:2]1([H:11])[N:3]([H:12])[C@:4]1([C@@:5]1([H:14])[C:6]([H:15])([H:16])[O:7]1)[H:13])([H:8])([H:9])[H:10]>>[C:1]([N+:3]1([H:12])[C-:2]([H:11])[C@@:4]1([C@@:5]1([H:14])[C:6]([H:15])([H:16])[O:7]1)[H:13])([H:8])([H:9])[H:10]"
C       -2.07720862      -0.62496844       0.49074131
C       -1.20445740       0.96985756      -0.27484056
N       -0.43106817      -0.05537503       0.99019402
C        0.20894083       0.91551563       0.12755084
C        1.20190926       0.36908210      -0.86674914
C        2.35779223      -0.41286347      -0.44170653
O        1.22199427      -1.04096686      -1.02714047
H       -2.97919800      -0.02306876       0.49779088
H       -2.10609998      -1.22832302       1.39912517
H       -2.04072080      -1.25872847      -0.38855406
H       -1.70082000       1.71417993       0.36041330
H       -0.07634728      -0.95360321       0.65931811
H        0.60087295       1.75243801       0.70449341
H        1.26436898       0.92353027      -1.80003156
H        3.25834006      -0.43014347      -1.04718903
H        2.50170169      -0.61656277       0.61658432
16
Frame=3 idx=009648 GeodesicLength=0.1785860365851581 rxn_smarts="[C:1]([C@@:2]1([H:11])[N:3]([H:12])[C@:4]1([C@@:5]1([H:14])[C:6]([H:15])([H:16])[O:7]1)[H:13])([H:8])([H:9])[H:10]>>[C:1]([N+:3]1([H:12])[C-:2]([H:11])[C@@:4]1([C@@:5]1([H:14])[C:6]([H:15])([H:16])[O:7]1)[H:13])([H:8])([H:9])[H:10]"
C       -2.09019710      -0.62268047       0.49732927
C       -1.19992151       0.95647937      -0.26552344
N       -0.43424259      -0.06016311       0.97500876
C        0.21596807       0.91459442       0.12625281
C        1.20895984       0.37223340      -0.86893276
C        2.36592597      -0.40923847      -0.44525785
O        1.23242638      -1.03687217      -1.03536434
H       -2.99364337      -0.02205022       0.49531514
H       -2.12964724      -1.21593817       1.41225739
H       -2.05327247      -1.26963713      -0.37283483
H       -1.69977411       1.71257224       0.35159127
H       -0.07654247      -0.96019870       0.65484092
H        0.60378346       1.74809868       0.71062810
H        1.27412773       0.93165131      -1.79912903
H        3.26794551      -0.42179679      -1.04865237
H        2.50810389      -0.61705420       0.61247096
16
Frame=4 idx=009648 GeodesicLength=0.23765935857208587 rxn_smarts="[C:1]([C@@:2]1([H:11])[N:3]([H:12])[C@:4]1([C@@:5]1([H:14])[C:6]([H:15])([H:16])[O:7]1)[H:13])([H:8])([H:9])[H:10]>>[C:1]([N+:3]1([H:12])[C-:2]([H:11])[C@@:4]1([C@@:5]1([H:14])[C:6]([H:15])([H:16])[O:7]1)[H:13])([H:8])([H:9])[H:10]"
C       -2.10296302      -0.62018553       0.50394546
C       -1.19538151       0.94318886      -0.25637602
N       -0.43727818      -0.06530075       0.95991433
C        0.22277374       0.91342442       0.12514483
C        1.21586561       0.37541416      -0.87101066
C        2.37399005      -0.40556919      -0.44888755
O        1.24279351      -1.03268821      -1.04367879
H       -3.00785847      -0.02095564       0.49247800
H       -2.15320680      -1.20292322       1.42539664
H       -2.06558353      -1.28045650      -0.35670214
H       -1.69874782       1.71071821       0.34222248
H       -0.07657701      -0.96701185       0.65049429
H        0.60649512       1.74333105       0.71706397
H        1.28371111       0.93993867      -1.79799625
H        3.27742549      -0.41330851      -1.05023075
H        2.51454171      -0.61761596       0.60822218
16
Frame=5 idx=009648 GeodesicLength=0.2964724135713373 rxn_smarts="[C:1]([C@@:2]1([H:11])[N:3]([H:12])[C@:4]1([C@@:5]1([H:14])[C:6]([H:15])([H:16])[O:7]1)[H:13])([H:8])([H:9])[H:10]>>[C:1]([N+:3]1([H:12])[C-:2]([H:11])[C@@:4]1([C@@:5]1([H:14])[C:6]([H:15])([H:16])[O:7]1)[H:13])([H:8])([H:9])[H:10]"
C       -2.11547259      -0.61749628       0.51055079
C       -1.19084734       0.93002429      -0.24736643
N       -0.44018572      -0.07072832       0.94494450
C        0.22936595       0.91203701       0.12423887
C        1.22260296       0.37861507      -0.87297946
C        2.38195645      -0.40187443      -0.45259390
O        1.25304546      -1.02842737      -1.05204755
H       -3.02182408      -0.01984296       0.48926095
H       -2.17672844      -1.18934029       1.43844661
H       -2.07758267      -1.29115381      -0.34020692
H       -1.69774502       1.70862812       0.33235534
H       -0.07643610      -0.97398585       0.64635836
H        0.60903368       1.73817412       0.72378478
H        1.29307465       0.94835219      -1.79664886
H        3.28673974      -0.40473867      -1.05194026
H        2.52100307      -0.61824281       0.60384317
16
Frame=6 idx=009648 GeodesicLength=0.3550002225473422 rxn_smarts="[C:1]([C@@:2]1([H:11])[N:3]([H:12])[C@:4]1([C@@:5]1([H:14])[C:6]([H:15])([H:16])[O:7]1)[H:13])([H:8])([H:9])[H:10]>>[C:1]([N+:3]1([H:12])[C-:2]([H:11])[C@@:4]1([C@@:5]1([H:14])[C:6]([H:15])([H:16])[O:7]1)[H:13])([H:8])([H:9])[H:10]"
C       -2.12769106      -0.61462869       0.51709692
C       -1.18632882       0.91703139      -0.23845531
N       -0.44297410      -0.07637814       0.93014331
C        0.23575545       0.91047164       0.12355128
C        1.22914507       0.38182493      -0.87483741
C        2.38979406      -0.39817700      -0.45637729
O        1.26312674      -1.02411235      -1.06042661
H       -3.03552529      -0.01877596       0.48563506
H       -2.20016581      -1.17526503       1.45130247
H       -2.08918255      -1.30169253      -0.32341782
H       -1.69677402       1.70631798       0.32205285
H       -0.07609539      -0.98105816       0.64253684
H        0.61143021       1.73268088       0.73077666
H        1.30216714       0.95684481      -1.79511377
H        3.29584141      -0.39615795      -1.05380785
H        2.52747695      -0.61892581       0.59934067
16
Frame=7 idx=009648 GeodesicLength=0.4131858406876593 rxn_smarts="[C:1]([C@@:2]1([H:11])[N:3]([H:12])[C@:4]1([C@@:5]1([H:14])[C:6]([H:15])([H:16])[O:7]1)[H:13])([H:8])([H:9])[H:10]>>[C:1]([N+:3]1([H:12])[C-:2]([H:11])[C@@:4]1([C@@:5]1([H:14])[C:6]([H:15])([H:16])[O:7]1)[H:13])([H:8])([H:9])[H:10]"
C       -2.13959176      -0.61159428       0.52353575
C       -1.18183372       0.90426878      -0.22960550
N       -0.44564742      -0.08220581       0.91552640
C        0.24193761       0.90873150       0.12305090
C        1.23546090       0.38500720      -0.87657961
C        2.39746497      -0.39447418      -0.46021377
O        1.27298507      -1.01976688      -1.06874110
H       -3.04892919      -0.01776326       0.48165260
H       -2.22342282      -1.16085011       1.46385445
H       -2.10032453      -1.31200437      -0.30647755
H       -1.69581998       1.70385997       0.31144858
H       -0.07554485      -0.98819981       0.63910396
H        0.61370248       1.72688590       0.73792474
H        1.31094321       0.96531072      -1.79340339
H        3.30468171      -0.38760262      -1.05580958
H        2.53393834      -0.61960277       0.59473314
16
Frame=8 idx=009648 GeodesicLength=0.47115001932364575 rxn_smarts="[C:1]([C@@:2]1([H:11])[N:3]([H:12])[C@:4]1([C@@:5]1([H:14])[C:6]([H:15])([H:16])[O:7]1)[H:13])([H:8])([H:9])[H:10]>>[C:1]([N+:3]1([H:12])[C-:2]([H:11])[C@@:4]1([C@@:5]1([H:14])[C:6]([H:15])([H:16])[O:7]1)[H:13])([H:8])([H:9])[H:10]"
C       -2.15119958      -0.60839384       0.52989894
C       -1.17736341       0.89168448      -0.22081907
N       -0.44821042      -0.08819776       0.90109760
C        0.24795003       0.90684721       0.12279343
C        1.24158242       0.38820453      -0.87821230
C        2.40500451      -0.39078401      -0.46413703
O        1.28265036      -1.01536582      -1.07706139
H       -3.06207003      -0.01686662       0.47725042
H       -2.24662143      -1.14599012       1.47613864
H       -2.11106234      -1.32214323      -0.28922659
H       -1.69488832       1.70115636       0.30039233
H       -0.07480094      -0.99536673       0.63603405
H        0.61587768       1.72078306       0.74536728
H        1.31942964       0.97385421      -1.79152036
H        3.31330255      -0.37907446      -1.05799518
H        2.54041929      -0.62034725       0.58999924
16
Frame=9 idx=009648 GeodesicLength=0.5287922570018977 rxn_smarts="[C:1]([C@@:2]1([H:11])[N:3]([H:12])[C@:4]1([C@@:5]1([H:14])[C:6]([H:15])([H:16])[O:7]1)[H:13])([H:8])([H:9])[H:10]>>[C:1]([N+:3]1([H:12])[C-:2]([H:11])[C@@:4]1([C@@:5]1([H:14])[C:6]([H:15])([H:16])[O:7]1)[H:13])([H:8])([H:9])[H:10]"
C       -2.16249360      -0.60504612       0.53613924
C       -1.17292490       0.87933686      -0.21207678
N       -0.45067260      -0.09433647       0.88685224
C        0.25376937       0.90480903       0.12271447
C        1.24747922       0.39136878      -0.87973617
C        2.41237812      -0.38709439      -0.46811141
O        1.29208429      -1.01094143      -1.08529690
H       -3.07491241      -0.01606936       0.47249657
H       -2.26963733      -1.13081661       1.48806476
H       -2.12135233      -1.33204093      -0.27185301
H       -1.69395295       1.69830912       0.28910425
H       -0.07385815      -1.00256273       0.63339159
H        0.61794733       1.71440118       0.75295344
H        1.32759256       0.98234591      -1.78948364
H        3.32166291      -0.37058973      -1.06032451
H        2.54689047      -0.62107312       0.58516585
16
Frame=10 idx=009648 GeodesicLength=0.586203822228481 rxn_smarts="[C:1]([C@@:2]1([H:11])[N:3]([H:12])[C@:4]1([C@@:5]1([H:14])[C:6]([H:15])([H:16])[O:7]1)[H:13])([H:8])([H:9])[H:10]>>[C:1]([N+:3]1([H:12])[C-:2]([H:11])[C@@:4]1([C@@:5]1([H:14])[C:6]([H:15])([H:16])[O:7]1)[H:13])([H:8])([H:9])[H:10]"
C       -2.17350021      -0.60154404       0.54228607
C       -1.16851683       0.86718885      -0.20337353
N       -0.45302957      -0.10062172       0.87278485
C        0.25942804       0.90263118       0.12285416
C        1.25317848       0.39453332      -0.88115220
C        2.41961053      -0.38341186      -0.47215834
O        1.30131096      -1.00647253      -1.09350635
H       -3.08748547      -0.01539862       0.46737100
H       -2.29255622      -1.11528118       1.49966550
H       -2.13125066      -1.34173739      -0.25423314
H       -1.69302070       1.69525864       0.27743850
H       -0.07272742      -1.00977171       0.63114005
H        0.61993496       1.70773274       0.76077079
H        1.33545964       0.99086836      -1.78728555
H        3.32979288      -0.36213760      -1.06282065
H        2.55337157      -0.62183645       0.58021884
16
Frame=11 idx=009648 GeodesicLength=0.6434290892121058 rxn_smarts="[C:1]([C@@:2]1([H:11])[N:3]([H:12])[C@:4]1([C@@:5]1([H:14])[C:6]([H:15])([H:16])[O:7]1)[H:13])([H:8])([H:9])[H:10]>>[C:1]([N+:3]1([H:12])[C-:2]([H:11])[C@@:4]1([C@@:5]1([H:14])[C:6]([H:15])([H:16])[O:7]1)[H:13])([H:8])([H:9])[H:10]"
C       -2.18425670      -0.59788111       0.54838150
C       -1.16413812       0.85519267      -0.19473210
N       -0.45528462      -0.10710553       0.85884114
C        0.26492986       0.90028373       0.12319467
C        1.25871018       0.39771081      -0.88246261
C        2.42672972      -0.37971656      -0.47627432
O        1.31037870      -1.00193118      -1.10173121
H       -3.09980343      -0.01482252       0.46192166
H       -2.31539803      -1.09931953       1.51100037
H       -2.14086092      -1.35125350      -0.23629463
H       -1.69207166       1.69198534       0.26533859
H       -0.07143977      -1.01703849       0.62919030
H        0.62182045       1.70073563       0.76882339
H        1.34307999       0.99946434      -1.78489967
H        3.33773908      -0.35365440      -1.06545043
H        2.55986525      -0.62264971       0.57515334
16
Frame=12 idx=009648 GeodesicLength=0.7004995263528844 rxn_smarts="[C:1]([C@@:2]1([H:11])[N:3]([H:12])[C@:4]1([C@@:5]1([H:14])[C:6]([H:15])([H:16])[O:7]1)[H:13])([H:8])([H:9])[H:10]>>[C:1]([N+:3]1([H:12])[C-:2]([H:11])[C@@:4]1([C@@:5]1([H:14])[C:6]([H:15])([H:16])[O:7]1)[H:13])([H:8])([H:9])[H:10]"
C       -2.19479624      -0.59404852       0.55446422
C       -1.15979183       0.84330489      -0.18617620
N       -0.45743744      -0.11383676       0.84497017
C        0.27027893       0.89774492       0.12372919
C        1.26410567       0.40092391      -0.88366709
C        2.43376187      -0.37599501      -0.48046118
O        1.31933337      -0.99728512      -1.11002536
H       -3.11188580      -0.01433234       0.45615928
H       -2.33819598      -1.08283157       1.52215022
H       -2.15026445      -1.36063012      -0.21794359
H       -1.69109868       1.68846534       0.25274034
H       -0.07001123      -1.02440792       0.62745292
H        0.62357957       1.69337193       0.77713511
H        1.35050500       1.00819803      -1.78229568
H        3.34554332      -0.34509330      -1.06819152
H        2.56637392      -0.62354838       0.56995917
16
Frame=13 idx=009648 GeodesicLength=0.7574465976559382 rxn_smarts="[C:1]([C@@:2]1([H:11])[N:3]([H:12])[C@:4]1([C@@:5]1([H:14])[C:6]([H:15])([H:16])[O:7]1)[H:13])([H:8])([H:9])[H:10]>>[C:1]([N+:3]1([H:12])[C-:2]([H:11])[C@@:4]1([C@@:5]1([H:14])[C:6]([H:15])([H:16])[O:7]1)[H:13])([H:8])([H:9])[H:10]"
C       -2.20514233      -0.59003616       0.56058792
C       -1.15547825       0.83147268      -0.17775476
N       -0.45950098      -0.12086372       0.83109962
C        0.27547440       0.89498900       0.12444298
C        1.26939522       0.40419619      -0.88476336
C        2.44072891      -0.37223034      -0.48471085
O        1.32821774      -0.99249466      -1.11844995
H       -3.12373277      -0.01391452       0.45014134
H       -2.36094321      -1.06573304       1.53317858
H       -2.15957130      -1.36989351      -0.19905911
H       -1.69007518       1.68465865       0.23954528
H       -0.06849270      -1.03191799       0.62580482
H        0.62519150       1.68559014       0.78573012
H        1.35779334       1.01713903      -1.77943037
H        3.35324910      -0.33639281      -1.07099577
H        2.57288650      -0.62456895       0.56463350
16
Frame=14 idx=009648 GeodesicLength=0.81426128129741 rxn_smarts="[C:1]([C@@:2]1([H:11])[N:3]([H:12])[C@:4]1([C@@:5]1([H:14])[C:6]([H:15])([H:16])[O:7]1)[H:13])([H:8])([H:9])[H:10]>>[C:1]([N+:3]1([H:12])[C-:2]([H:11])[C@@:4]1([C@@:5]1([H:14])[C:6]([H:15])([H:16])[O:7]1)[H:13])([H:8])([H:9])[H:10]"
C       -2.21527082      -0.58585767       0.56668446
C       -1.15118990       0.81975444      -0.16938944
N       -0.46147157      -0.12812718       0.81727944
C        0.28053566       0.89204038       0.12534582
C        1.27454407       0.40749854      -0.88574861
C        2.44759197      -0.36843023      -0.48902757
O        1.33696900      -0.98759200      -1.12691572
H       -3.13533843      -0.01361802       0.44380997
H       -2.38362863      -1.04811770       1.54397078
H       -2.16866699      -1.37899529      -0.17975832
H       -1.68899827       1.68059931       0.22588126
H       -0.06684353      -1.03951428       0.62438498
H        0.62670460       1.67742913       0.79456139
H        1.36487751       1.02618959      -1.77634195
H        3.36078838      -0.32760436      -1.07390696
H        2.57939696      -0.62565467       0.55917045
16
Frame=15 idx=009648 GeodesicLength=0.8709560695213696 rxn_smarts="[C:1]([C@@:2]1([H:11])[N:3]([H:12])[C@:4]1([C@@:5]1([H:14])[C:6]([H:15])([H:16])[O:7]1)[H:13])([H:8])([H:9])[H:10]>>[C:1]([N+:3]1([H:12])[C-:2]([H:11])[C@@:4]1([C@@:5]1([H:14])[C:6]([H:15])([H:16])[O:7]1)[H:13])([H:8])([H:9])[H:10]"
C       -2.22521830      -0.58149744       0.57282480
C       -1.14694660       0.80809238      -0.16114584
N       -0.46336810      -0.13568153       0.80342980
C        0.28545253       0.88887346       0.12642755
C        1.27959324       0.41085816      -0.88662702
C        2.45440161      -0.36458184      -0.49340296
O        1.34566642      -0.98254282      -1.13550673
H       -3.14671146      -0.01341446       0.43727335
H       -2.40624910      -1.02990859       1.55460714
H       -2.17770313      -1.38793952      -0.15991907
H       -1.68786151       1.67623900       0.21160450
H       -0.06511593      -1.04724668       0.62304476
H        0.62807502       1.66883164       0.80368256
H        1.37182038       1.03543420      -1.77299918
H        3.36824281      -0.31867378      -1.07687691
H        2.58592211      -0.62684220       0.55358327
16
Frame=16 idx=009648 GeodesicLength=0.9275760957703056 rxn_smarts="[C:1]([C@@:2]1([H:11])[N:3]([H:12])[C@:4]1([C@@:5]1([H:14])[C:6]([H:15])([H:16])[O:7]1)[H:13])([H:8])([H:9])[H:10]>>[C:1]([N+:3]1([H:12])[C-:2]([H:11])[C@@:4]1([C@@:5]1([H:14])[C:6]([H:15])([H:16])[O:7]1)[H:13])([H:8])([H:9])[H:10]"
C       -2.23501804      -0.57693596       0.57905711
C       -1.14274027       0.79642552      -0.15305662
N       -0.46519337      -0.14360107       0.78947579
C        0.29022935       0.88544841       0.12768369
C        1.28457535       0.41430291      -0.88738943
C        2.46118097      -0.36066147      -0.49783808
O        1.35435697      -0.97729793      -1.14428255
H       -3.15787429      -0.01328521       0.43053784
H       -2.42882575      -1.01095130       1.56518242
H       -2.18676731      -1.39677273      -0.13939799
H       -1.68664959       1.67152951       0.19660235
H       -0.06333470      -1.05518669       0.62166458
H        0.62927647       1.65972378       0.81313067
H        1.37867867       1.04495202      -1.76934574
H        3.37564752      -0.30952013      -1.07987537
H        2.59245802      -0.62816964       0.54785134
