14
Frame=0 idx=003806 GeodesicLength=0.0 rxn_smarts="[C:1]([C@@:2]1([H:10])[C@@:3]2([H:11])[C:4]([H:12])([H:13])[O:5][C@@:6]12[H:14])([H:7])([H:8])[H:9]>>[C:1]([H:7])([H:8])([H:9])[H:10].[C:2]1=[C:3]([H:11])[C:4]([H:12])([H:13])[O:5][C:6]=1[H:14]"
C        1.76127711      -0.22484979       0.44618827
C        0.37445874       0.95261627      -0.64199641
C       -0.74851458       0.11812306      -1.03009448
C       -1.26831798      -0.85188972       0.02445897
O       -1.16919200       0.10121628       1.08700210
C       -0.79430553       1.13525692       0.18421643
H        1.04336649      -0.38387277       1.24253860
H        2.68304938       0.20891000       0.83451232
H        1.94275336      -1.11251982      -0.15198292
H        1.57017789       0.70264554      -0.37808320
H       -1.13297337       0.13389511      -2.04338018
H       -0.67935503      -1.75661279       0.20428517
H       -2.31476323      -1.11829319      -0.13554603
H       -1.26766120       2.09537495       0.35788142
14
Frame=1 idx=003806 GeodesicLength=0.08871008083753028 rxn_smarts="[C:1]([C@@:2]1([H:10])[C@@:3]2([H:11])[C:4]([H:12])([H:13])[O:5][C@@:6]12[H:14])([H:7])([H:8])[H:9]>>[C:1]([H:7])([H:8])([H:9])[H:10].[C:2]1=[C:3]([H:11])[C:4]([H:12])([H:13])[O:5][C:6]=1[H:14]"
C        1.77656018      -0.22215003       0.44042378
C        0.36465782       0.95105065      -0.62257539
C       -0.74819402       0.11325309      -1.02688832
C       -1.28659956      -0.84827516       0.02362368
O       -1.19161415       0.10531362       1.08667804
C       -0.81018538       1.13979266       0.19247999
H        1.07244920      -0.40049374       1.24570357
H        2.69743771       0.21281252       0.82985159
H        1.96568553      -1.10838780      -0.15824735
H        1.58262883       0.70986216      -0.39568286
H       -1.10268080       0.11187239      -2.05105899
H       -0.70695031      -1.75658161       0.21434904
H       -2.33288450      -1.10920119      -0.14669301
H       -1.28031054       2.10113246       0.36803625
14
Frame=2 idx=003806 GeodesicLength=0.17772159809184584 rxn_smarts="[C:1]([C@@:2]1([H:10])[C@@:3]2([H:11])[C:4]([H:12])([H:13])[O:5][C@@:6]12[H:14])([H:7])([H:8])[H:9]>>[C:1]([H:7])([H:8])([H:9])[H:10].[C:2]1=[C:3]([H:11])[C:4]([H:12])([H:13])[O:5][C:6]=1[H:14]"
C        1.79235057      -0.21945484       0.43435156
C        0.35488063       0.94874560      -0.60206160
C       -0.74774696       0.10815779      -1.02316991
C       -1.30568300      -0.84447056       0.02280420
O       -1.21587577       0.10988021       1.08618844
C       -0.82643898       1.14441763       0.20088237
H        1.10280673      -0.41841530       1.24812245
H        2.71204569       0.21734571       0.82485698
H        1.98998776      -1.10357984      -0.16545845
H        1.59439435       0.71724576      -0.41346560
H       -1.07067442       0.08892243      -2.05744638
H       -0.73571648      -1.75619659       0.22516063
H       -2.35151690      -1.09986997      -0.15880809
H       -1.29281322       2.10727197       0.37804339
14
Frame=3 idx=003806 GeodesicLength=0.26703614212999405 rxn_smarts="[C:1]([C@@:2]1([H:10])[C@@:3]2([H:11])[C:4]([H:12])([H:13])[O:5][C@@:6]12[H:14])([H:7])([H:8])[H:9]>>[C:1]([H:7])([H:8])([H:9])[H:10].[C:2]1=[C:3]([H:11])[C:4]([H:12])([H:13])[O:5][C:6]=1[H:14]"
C        1.80868174      -0.21679135       0.42793895
C        0.34513106       0.94561961      -0.58038110
C       -0.74715469       0.10278615      -1.01889586
C       -1.32560458      -0.84046242       0.02200304
O       -1.24212474       0.11500017       1.08546364
C       -0.84306668       1.14914606       0.20939181
H        1.13454753      -0.43776127       1.24967235
H        2.72687205       0.22247274       0.81957778
H        2.01573563      -1.09798480      -0.17378896
H        1.60542964       0.72491581      -0.43128995
H       -1.03692972       0.06495789      -2.06234372
H       -0.76573639      -1.75541777       0.23679612
H       -2.37064537      -1.09031046      -0.17195669
H       -1.30513551       2.11382964       0.38781257
14
Frame=4 idx=003806 GeodesicLength=0.35665413459090217 rxn_smarts="[C:1]([C@@:2]1([H:10])[C@@:3]2([H:11])[C:4]([H:12])([H:13])[O:5][C@@:6]12[H:14])([H:7])([H:8])[H:9]>>[C:1]([H:7])([H:8])([H:9])[H:10].[C:2]1=[C:3]([H:11])[C:4]([H:12])([H:13])[O:5][C:6]=1[H:14]"
C        1.82558949      -0.21418676       0.42115182
C        0.33541160       0.94158286      -0.55744416
C       -0.74639302       0.09707881      -1.01401531
C       -1.34640218      -0.83623738       0.02122228
O       -1.27051619       0.12076732       1.08441937
C       -0.86006950       1.15399327       0.21797247
H        1.16779265      -0.45866569       1.25021165
H        2.74191766       0.22814836       0.81406737
H        2.04299966      -1.09147504      -0.18342357
H        1.61569143       0.73300523      -0.44900035
H       -1.00142823       0.03988298      -2.06553410
H       -0.79710265      -1.75420059       0.24933929
H       -2.39024869      -1.08053659      -0.18621062
H       -1.31724204       2.12084321       0.39724385
14
Frame=5 idx=003806 GeodesicLength=0.4465697025366097 rxn_smarts="[C:1]([C@@:2]1([H:10])[C@@:3]2([H:11])[C:4]([H:12])([H:13])[O:5][C@@:6]12[H:14])([H:7])([H:8])[H:9]>>[C:1]([H:7])([H:8])([H:9])[H:10].[C:2]1=[C:3]([H:11])[C:4]([H:12])([H:13])[O:5][C:6]=1[H:14]"
C        1.84310934      -0.21166721       0.41395144
C        0.32572178       0.93653797      -0.53313774
C       -0.74543329       0.09097132      -1.00846520
C       -1.36811665      -0.83178107       0.02046402
O       -1.30121269       0.12728295       1.08295456
C       -0.87744994       1.15897543       0.22658763
H        1.20267700      -0.48126932       1.24957601
H        2.75718360       0.23431935       0.80837518
H        2.07183640      -1.08390337      -0.19456121
H        1.62513362       0.74165731      -0.46642999
H       -0.96413071       0.01358394      -2.06677929
H       -0.82992267      -1.75249447       0.26287991
H       -2.41029899      -1.07056319      -0.20164599
H       -1.32909680       2.12835036       0.40623065
14
Frame=6 idx=003806 GeodesicLength=0.5367794342416102 rxn_smarts="[C:1]([C@@:2]1([H:10])[C@@:3]2([H:11])[C:4]([H:12])([H:13])[O:5][C@@:6]12[H:14])([H:7])([H:8])[H:9]>>[C:1]([H:7])([H:8])([H:9])[H:10].[C:2]1=[C:3]([H:11])[C:4]([H:12])([H:13])[O:5][C:6]=1[H:14]"
C        1.86128422      -0.20925895       0.40629920
C        0.31606228       0.93036548      -0.50733263
C       -0.74423689       0.08437928      -1.00217297
C       -1.39079332      -0.82707938       0.01973102
O       -1.33438409       0.13466678       1.08094308
C       -0.89520446       1.16410732       0.23518868
H        1.23934976      -0.50574438       1.24756247
H        2.77266715       0.24092915       0.80257880
H        2.10232162      -1.07508720      -0.20741946
H        1.63370868       0.75103627      -0.48338373
H       -0.92504556      -0.01405559      -2.06581378
H       -0.86432131      -1.75024004       0.27752241
H       -2.43076155      -1.06040943      -0.21834798
H       -1.34064651       2.13639069       0.41464490
14
Frame=7 idx=003806 GeodesicLength=0.6272738618756281 rxn_smarts="[C:1]([C@@:2]1([H:10])[C@@:3]2([H:11])[C:4]([H:12])([H:13])[O:5][C@@:6]12[H:14])([H:7])([H:8])[H:9]>>[C:1]([H:7])([H:8])([H:9])[H:10].[C:2]1=[C:3]([H:11])[C:4]([H:12])([H:13])[O:5][C:6]=1[H:14]"
C        1.88015723      -0.20698533       0.39815246
C        0.30643020       0.92293202      -0.47986801
C       -0.74275872       0.07720860      -0.99504948
C       -1.41448082      -0.82211873       0.01902442
O       -1.37020573       0.14304803       1.07823254
C       -0.91332748       1.16940286       0.24372480
H        1.27797944      -0.53226350       1.24393652
H        2.78836800       0.24791292       0.79675044
H        2.13451016      -1.06481600      -0.22222646
H        1.64135875       0.76131397      -0.49964993
H       -0.88416471      -0.04316765      -2.06234656
H       -0.90044498      -1.74737149       0.29337732
H       -2.45159175      -1.05009833      -0.23640881
H       -1.35182958       2.14500262       0.42235075
14
Frame=8 idx=003806 GeodesicLength=0.7180379497529461 rxn_smarts="[C:1]([C@@:2]1([H:10])[C@@:3]2([H:11])[C:4]([H:12])([H:13])[O:5][C@@:6]12[H:14])([H:7])([H:8])[H:9]>>[C:1]([H:7])([H:8])([H:9])[H:10].[C:2]1=[C:3]([H:11])[C:4]([H:12])([H:13])[O:5][C:6]=1[H:14]"
C        1.89977190      -0.20486583       0.38946585
C        0.29681893       0.91408269      -0.45055112
C       -0.74094493       0.06934972      -0.98698778
C       -1.43923109      -0.81688582       0.01834264
O       -1.40885395       0.15256974       1.07463624
C       -0.93180560       1.17487292       0.25213917
H        1.31875668      -0.56100286       1.23842289
H        2.80428683       0.25519597       0.79096584
H        2.16843946      -1.05284077      -0.23922105
H        1.64800988       0.77267570      -0.51498849
H       -0.84148576      -0.07390356      -2.05605555
H       -0.93846531      -1.74381414       0.31055978
H       -2.47273235      -1.03965568      -0.25592989
H       -1.36256468       2.15422191       0.42920148
14
Frame=9 idx=003806 GeodesicLength=0.8090618167037119 rxn_smarts="[C:1]([C@@:2]1([H:10])[C@@:3]2([H:11])[C:4]([H:12])([H:13])[O:5][C@@:6]12[H:14])([H:7])([H:8])[H:9]>>[C:1]([H:7])([H:8])([H:9])[H:10].[C:2]1=[C:3]([H:11])[C:4]([H:12])([H:13])[O:5][C:6]=1[H:14]"
C        1.92017392      -0.20291319       0.38018837
C        0.28721440       0.90363703      -0.41915062
C       -0.73873689       0.06067744      -0.97786055
C       -1.46510478      -0.81136517       0.01767909
O       -1.45050479       0.16339148       1.06992976
C       -0.95061613       1.18052453       0.26037350
H        1.36189819      -0.59213391       1.23069541
H        2.82043303       0.26269090       0.78529935
H        2.20412384      -1.03886711      -0.25865408
H        1.65356398       0.78532396      -0.52912293
H       -0.79699165      -0.10645844      -2.04658593
H       -0.97858928      -1.73948034       0.32918492
H       -2.49411842      -1.02910756      -0.27702532
H       -1.37274541       2.16408038       0.43504904
14
Frame=10 idx=003806 GeodesicLength=0.9003145437186904 rxn_smarts="[C:1]([C@@:2]1([H:10])[C@@:3]2([H:11])[C:4]([H:12])([H:13])[O:5][C@@:6]12[H:14])([H:7])([H:8])[H:9]>>[C:1]([H:7])([H:8])([H:9])[H:10].[C:2]1=[C:3]([H:11])[C:4]([H:12])([H:13])[O:5][C:6]=1[H:14]"
C        1.94140550      -0.20113019       0.37027030
C        0.27760071       0.89137371      -0.38539444
C       -0.73605893       0.05103588      -0.96751436
C       -1.49216394      -0.80554725       0.01702017
O       -1.49532424       0.17568538       1.06383025
C       -0.96970993       1.18635177       0.26835652
H        1.40764956      -0.62581068       1.22037842
H        2.83681042       0.27030843       0.77982697
H        2.24154618      -1.02254370      -0.28077290
H        1.65789201       0.79946085      -0.54173759
H       -0.75070826      -0.14101984      -2.03353597
H       -1.02106403      -1.73427711       0.34936884
H       -2.51566095      -1.01848600      -0.29982250
H       -1.38221412       2.17459875       0.43972630
14
Frame=11 idx=003806 GeodesicLength=0.9917678590829632 rxn_smarts="[C:1]([C@@:2]1([H:10])[C@@:3]2([H:11])[C:4]([H:12])([H:13])[O:5][C@@:6]12[H:14])([H:7])([H:8])[H:9]>>[C:1]([H:7])([H:8])([H:9])[H:10].[C:2]1=[C:3]([H:11])[C:4]([H:12])([H:13])[O:5][C:6]=1[H:14]"
C        1.96350884      -0.19950102       0.35965686
C        0.26795242       0.87702875      -0.34896114
C       -0.73282955       0.04024270      -0.95576869
C       -1.52048399      -0.79942269       0.01633775
O       -1.54346203       0.18963728       1.05599656
C       -0.98901060       1.19233357       0.27601801
H        1.45628865      -0.66213833       1.20703886
H        2.85344394       0.27795003       0.77460427
H        2.28063379      -1.00346148      -0.30581889
H        1.66082238       0.81529649      -0.55246510
H       -0.70264650      -0.17782595      -2.01646019
H       -1.06619690      -1.72809811       0.37121205
H       -2.53726395      -1.00782190      -0.32446749
H       -1.39075651       2.18578066       0.44307712
14
Frame=12 idx=003806 GeodesicLength=1.0833808667091882 rxn_smarts="[C:1]([C@@:2]1([H:10])[C@@:3]2([H:11])[C:4]([H:12])([H:13])[O:5][C@@:6]12[H:14])([H:7])([H:8])[H:9]>>[C:1]([H:7])([H:8])([H:9])[H:10].[C:2]1=[C:3]([H:11])[C:4]([H:12])([H:13])[O:5][C:6]=1[H:14]"
C        1.98651208      -0.19798209       0.34829149
C        0.25823108       0.86028886      -0.30947582
C       -0.72895995       0.02808845      -0.94241290
C       -1.55014907      -0.79298444       0.01557860
O       -1.59502417       0.20543577       1.04601478
C       -1.00839631       1.19842474       0.28329191
H        1.50812967      -0.70112626       1.19020379
H        2.87037771       0.28551576       0.76963865
H        2.32121166      -0.98115698      -0.33400571
H        1.66212205       0.83303471      -0.56088748
H       -0.65279869      -0.21717395      -1.99485139
H       -1.11436744      -1.72083224       0.39477223
H       -2.55881400      -0.99713356      -0.35113069
H       -1.39807462       2.19760122       0.44497255
14
Frame=13 idx=003806 GeodesicLength=1.1751244912605654 rxn_smarts="[C:1]([C@@:2]1([H:10])[C@@:3]2([H:11])[C:4]([H:12])([H:13])[O:5][C@@:6]12[H:14])([H:7])([H:8])[H:9]>>[C:1]([H:7])([H:8])([H:9])[H:10].[C:2]1=[C:3]([H:11])[C:4]([H:12])([H:13])[O:5][C:6]=1[H:14]"
C        2.01042387      -0.19650469       0.33612110
C        0.24837699       0.84075625      -0.26651188
C       -0.72435636       0.01431233      -0.92719709
C       -1.58125802      -0.78620984       0.01466287
O       -1.65004760       0.22329898       1.03338821
C       -1.02767474       1.20455030       0.29012325
H        1.56354091      -0.74272777       1.16932067
H        2.88762904       0.29293210       0.76493879
H        2.36308385      -0.95505650      -0.36552227
H        1.66146876       0.85284970      -0.56652537
H       -0.60121741      -0.25947077      -1.96813930
H       -1.16603807      -1.71234314       0.42004539
H       -2.58017399      -0.98639092      -0.38001764
H       -1.40375722       2.21000397       0.44531326
14
Frame=14 idx=003806 GeodesicLength=1.2669465942306697 rxn_smarts="[C:1]([C@@:2]1([H:10])[C@@:3]2([H:11])[C:4]([H:12])([H:13])[O:5][C@@:6]12[H:14])([H:7])([H:8])[H:9]>>[C:1]([H:7])([H:8])([H:9])[H:10].[C:2]1=[C:3]([H:11])[C:4]([H:12])([H:13])[O:5][C:6]=1[H:14]"
C        2.03523203      -0.19492285       0.32310392
C        0.23833292       0.81796580      -0.21960574
C       -0.71891695      -0.00139491      -0.90985459
C       -1.61393443      -0.77910228       0.01345124
O       -1.70845278       0.24340083       1.01754015
C       -1.04654920       1.21057330       0.29647652
H        1.62289885      -0.78662765       1.14387463
H        2.90529460       0.30018073       0.76037508
H        2.40580998      -0.92457095      -0.40045905
H        1.65847631       0.87487086      -0.56886760
H       -0.54792299      -0.30515083      -1.93567601
H       -1.22182755      -1.70253397       0.44692108
H       -2.60122322      -0.97554623      -0.41136830
H       -1.40721758       2.22285815       0.44408867
14
Frame=15 idx=003806 GeodesicLength=1.3587325751057906 rxn_smarts="[C:1]([C@@:2]1([H:10])[C@@:3]2([H:11])[C:4]([H:12])([H:13])[O:5][C@@:6]12[H:14])([H:7])([H:8])[H:9]>>[C:1]([H:7])([H:8])([H:9])[H:10].[C:2]1=[C:3]([H:11])[C:4]([H:12])([H:13])[O:5][C:6]=1[H:14]"
C        2.06086677      -0.19301665       0.30924411
C        0.22800946       0.79133956      -0.16831684
C       -0.71254450      -0.01940363      -0.89009777
C       -1.64826614      -0.77164151       0.01170885
O       -1.76991384       0.26587509       0.99780126
C       -1.06459155       1.21625207       0.30235787
H        1.68659005      -0.83214518       1.11345537
H        2.92348201       0.30734864       0.75566736
H        2.44875562      -0.88916543      -0.43866879
H        1.65262481       0.89905037      -0.56742623
H       -0.49311241      -0.35466245      -1.89678077
H       -1.28241585      -1.69129067       0.47505379
H       -2.62179279      -0.96442894      -0.44545113
H       -1.40769163       2.23588874       0.44145293
14
Frame=16 idx=003806 GeodesicLength=1.4503201696481458 rxn_smarts="[C:1]([C@@:2]1([H:10])[C@@:3]2([H:11])[C:4]([H:12])([H:13])[O:5][C@@:6]12[H:14])([H:7])([H:8])[H:9]>>[C:1]([H:7])([H:8])([H:9])[H:10].[C:2]1=[C:3]([H:11])[C:4]([H:12])([H:13])[O:5][C:6]=1[H:14]"
C        2.08715181      -0.19046808       0.29462405
C        0.21730883       0.76023099      -0.11232516
C       -0.70516832      -0.04014105      -0.86767319
C       -1.68429217      -0.76380982       0.00909264
O       -1.83372033       0.29076495       0.97350716
C       -1.08117206       1.22124207       0.30784907
H        1.75494573      -0.87817678       1.07791090
H        2.94225789       0.31474715       0.75038372
H        2.49103227      -0.84844200      -0.47971646
H        1.64327651       0.92513263      -0.56185106
H       -0.43722019      -0.40847667      -1.85085462
H       -1.34855216      -1.67856602       0.50378654
H       -2.64168844      -0.95272466      -0.48254469
H       -1.40415937       2.24868728       0.43781109
