18
Frame=0 idx=004835 GeodesicLength=0.0 rxn_smarts="[C:1]([C:2]1([H:10])[C:3]([H:11])([H:12])[C:4]([H:13])([H:14])[C:5]([H:15])([H:16])[C:6]1([H:17])[H:18])([H:7])([H:8])[H:9]>>[C:1]([C:2]1([H:10])[C:3]([H:11])([H:12])[C:4]([H:14])=[C:5]([H:15])[C:6]1([H:17])[H:18])([H:7])([H:8])[H:9].[H:13][H:16]"
C        2.10152911      -0.25433563       0.69884874
C        0.89450525       0.13087357      -0.14219838
C       -0.07660155       1.09785471       0.58469097
C       -1.35764106       0.81469459      -0.16319569
C       -1.38210845      -0.58803810      -0.47658634
C        0.04825434      -1.08970865      -0.59379885
H        1.78905223      -0.79002294       1.59910741
H        2.66251678       0.62918574       1.01161199
H        2.78049632      -0.90366944       0.14176660
H        1.24428046       0.64904119      -1.03961094
H        0.26151415       2.13354453       0.53384733
H       -0.16199140       0.81825511       1.63903057
H       -2.88893550       0.55079153      -0.34075558
H       -1.63739276       1.55602887      -0.89624156
H       -2.05424046      -1.25506820       0.04260583
H       -2.74333450      -0.14935148      -1.03564013
H        0.21854107      -1.95924776       0.04881154
H        0.30155605      -1.39082769      -1.61229356
18
Frame=1 idx=004835 GeodesicLength=0.05624368436549959 rxn_smarts="[C:1]([C:2]1([H:10])[C:3]([H:11])([H:12])[C:4]([H:13])([H:14])[C:5]([H:15])([H:16])[C:6]1([H:17])[H:18])([H:7])([H:8])[H:9]>>[C:1]([C:2]1([H:10])[C:3]([H:11])([H:12])[C:4]([H:14])=[C:5]([H:15])[C:6]1([H:17])[H:18])([H:7])([H:8])[H:9].[H:13][H:16]"
C        2.10368415      -0.25300411       0.70060481
C        0.89739203       0.13053950      -0.14214297
C       -0.07647353       1.09582766       0.58135380
C       -1.35388877       0.81641631      -0.17372848
C       -1.38211304      -0.58591516      -0.49050982
C        0.05011738      -1.08771958      -0.59354923
H        1.79039587      -0.78637700       1.60204211
H        2.66490034       0.63086092       1.01203758
H        2.78294194      -0.90379891       0.14548232
H        1.24840407       0.64696044      -1.04035794
H        0.26157225       2.13188292       0.53445556
H       -0.16748782       0.81566038       1.63519134
H       -2.89221152       0.56368853      -0.30862392
H       -1.63113541       1.56132138      -0.90511589
H       -2.04759945      -1.27706797       0.00686291
H       -2.77280644      -0.14766003      -1.01653991
H        0.21264266      -1.95157947       0.05913447
H        0.31166531      -1.40003581      -1.60659674
18
Frame=2 idx=004835 GeodesicLength=0.11225023121209349 rxn_smarts="[C:1]([C:2]1([H:10])[C:3]([H:11])([H:12])[C:4]([H:13])([H:14])[C:5]([H:15])([H:16])[C:6]1([H:17])[H:18])([H:7])([H:8])[H:9]>>[C:1]([C:2]1([H:10])[C:3]([H:11])([H:12])[C:4]([H:14])=[C:5]([H:15])[C:6]1([H:17])[H:18])([H:7])([H:8])[H:9].[H:13][H:16]"
C        2.10566708      -0.25164882       0.70248548
C        0.90021588       0.13020432      -0.14207991
C       -0.07633947       1.09386340       0.57777518
C       -1.35013187       0.81810413      -0.18439822
C       -1.38205673      -0.58373594      -0.50456000
C        0.05188335      -1.08566205      -0.59329536
H        1.79145926      -0.78257072       1.60504611
H        2.66716736       0.63249264       1.01256595
H        2.78517032      -0.90395827       0.14948728
H        1.25254274       0.64473428      -1.04105297
H        0.26165231       2.13019638       0.53467145
H       -0.17293546       0.81333900       1.63107172
H       -2.89426615       0.57625109      -0.27537572
H       -1.62505046       1.56643742      -0.91406500
H       -2.04097483      -1.29883553      -0.03130159
H       -2.80206911      -0.14635155      -0.99576857
H        0.20642479      -1.94362334       0.06939188
H        0.32164098      -1.40923642      -1.60059771
18
Frame=3 idx=004835 GeodesicLength=0.16828543131747314 rxn_smarts="[C:1]([C:2]1([H:10])[C:3]([H:11])([H:12])[C:4]([H:13])([H:14])[C:5]([H:15])([H:16])[C:6]1([H:17])[H:18])([H:7])([H:8])[H:9]>>[C:1]([C:2]1([H:10])[C:3]([H:11])([H:12])[C:4]([H:14])=[C:5]([H:15])[C:6]1([H:17])[H:18])([H:7])([H:8])[H:9].[H:13][H:16]"
C        2.10751264      -0.25031297       0.70447618
C        0.90299547       0.12986741      -0.14204108
C       -0.07627726       1.09205087       0.57399525
C       -1.34644468       0.81983830      -0.19517091
C       -1.38192793      -0.58153554      -0.51872943
C        0.05361172      -1.08364289      -0.59303623
H        1.79225556      -0.77871021       1.60818585
H        2.66931680       0.63411330       1.01317425
H        2.78728972      -0.90423485       0.15370258
H        1.25674201       0.64241144      -1.04181593
H        0.26165245       2.12866747       0.53451099
H       -0.17845285       0.81134522       1.62679635
H       -2.89513258       0.58857485      -0.24100691
H       -1.61918476       1.57154936      -0.92312417
H       -2.03440357      -1.32035169      -0.07199190
H       -2.83108288      -0.14549536      -0.97324449
H        0.19990665      -1.93554576       0.07966808
H        0.33162348      -1.41858896      -1.59434848
18
Frame=4 idx=004835 GeodesicLength=0.22428031023793785 rxn_smarts="[C:1]([C:2]1([H:10])[C:3]([H:11])([H:12])[C:4]([H:13])([H:14])[C:5]([H:15])([H:16])[C:6]1([H:17])[H:18])([H:7])([H:8])[H:9]>>[C:1]([C:2]1([H:10])[C:3]([H:11])([H:12])[C:4]([H:14])=[C:5]([H:15])[C:6]1([H:17])[H:18])([H:7])([H:8])[H:9].[H:13][H:16]"
C        2.10919735      -0.24898473       0.70658441
C        0.90571246       0.12952778      -0.14201598
C       -0.07626477       1.09038047       0.56999782
C       -1.34282826       0.82160388      -0.20603786
C       -1.38172567      -0.57929250      -0.53303947
C        0.05526868      -1.08164227      -0.59275395
H        1.79276976      -0.77475826       1.61145309
H        2.67134303       0.63571503       1.01386419
H        2.78924770      -0.90461318       0.15815556
H        1.26097343       0.63996677      -1.04262016
H        0.26160837       2.12726337       0.53395054
H       -0.18399325       0.80969422       1.62233561
H       -2.89470430       0.60060887      -0.20551531
H       -1.61354484       1.57662010      -0.93227106
H       -2.02783942      -1.34149064      -0.11545744
H       -2.85979792      -0.14522779      -0.94881954
H        0.19301007      -1.92728568       0.08998556
H        0.34156756      -1.42808544      -1.58779601
18
Frame=5 idx=004835 GeodesicLength=0.28021990806066366 rxn_smarts="[C:1]([C:2]1([H:10])[C:3]([H:11])([H:12])[C:4]([H:13])([H:14])[C:5]([H:15])([H:16])[C:6]1([H:17])[H:18])([H:7])([H:8])[H:9]>>[C:1]([C:2]1([H:10])[C:3]([H:11])([H:12])[C:4]([H:14])=[C:5]([H:15])[C:6]1([H:17])[H:18])([H:7])([H:8])[H:9].[H:13][H:16]"
C        2.11070882      -0.24766799       0.70881542
C        0.90835773       0.12918334      -0.14200143
C       -0.07630035       1.08886523       0.56577276
C       -1.33930209       0.82340557      -0.21698061
C       -1.38144368      -0.57699073      -0.54750454
C        0.05684090      -1.07966356      -0.59243339
H        1.79298601      -0.77070881       1.61485350
H        2.67324234       0.63729051       1.01463428
H        2.79102549      -0.90510549       0.16285873
H        1.26522953       0.63738604      -1.04346421
H        0.26152809       2.12599491       0.53296210
H       -0.18954359       0.80841918       1.61768373
H       -2.89291672       0.61232948      -0.16891243
H       -1.60815195       1.58165461      -0.94149112
H       -2.02124991      -1.36211184      -0.16193831
H       -2.88815132      -0.14570853      -0.92232121
H        0.18567337      -1.91882706       0.10037179
H        0.35146732      -1.43774484      -1.58090504
18
Frame=6 idx=004835 GeodesicLength=0.3361072309319416 rxn_smarts="[C:1]([C:2]1([H:10])[C:3]([H:11])([H:12])[C:4]([H:13])([H:14])[C:5]([H:15])([H:16])[C:6]1([H:17])[H:18])([H:7])([H:8])[H:9]>>[C:1]([C:2]1([H:10])[C:3]([H:11])([H:12])[C:4]([H:14])=[C:5]([H:15])[C:6]1([H:17])[H:18])([H:7])([H:8])[H:9].[H:13][H:16]"
C        2.11202191      -0.24637691       0.71117992
C        0.91092252       0.12883433      -0.14199915
C       -0.07638448       1.08752949       0.56130316
C       -1.33588885       0.82526573      -0.22798857
C       -1.38107635      -0.57460800      -0.56214897
C        0.05831449      -1.07770758      -0.59207093
H        1.79286029      -0.76656763       1.61840152
H        2.67500101       0.63882007       1.01549300
H        2.79259383      -0.90574160       0.16783179
H        1.26951757       0.63465930      -1.04435532
H        0.26142331       2.12488720       0.53150592
H       -0.19510098       0.80756313       1.61283592
H       -2.88969417       0.62371118      -0.13120928
H       -1.60302942       1.58666614      -0.95077980
H       -2.01454501      -1.38203655      -0.21166627
H       -2.91608542      -0.14716231      -0.89351815
H        0.17782337      -1.91015603       0.11084139
H        0.36132637      -1.44757994      -1.57365620
18
Frame=7 idx=004835 GeodesicLength=0.39203173587886325 rxn_smarts="[C:1]([C:2]1([H:10])[C:3]([H:11])([H:12])[C:4]([H:13])([H:14])[C:5]([H:15])([H:16])[C:6]1([H:17])[H:18])([H:7])([H:8])[H:9]>>[C:1]([C:2]1([H:10])[C:3]([H:11])([H:12])[C:4]([H:14])=[C:5]([H:15])[C:6]1([H:17])[H:18])([H:7])([H:8])[H:9].[H:13][H:16]"
C        2.11312348      -0.24513069       0.71368983
C        0.91341279       0.12848103      -0.14201736
C       -0.07652442       1.08643462       0.55658027
C       -1.33262060       0.82723072      -0.23903997
C       -1.38061723      -0.57213478      -0.57700799
C        0.05968517      -1.07581263      -0.59166596
H        1.79233791      -0.76234878       1.62213442
H        2.67662297       0.64030793       1.01644325
H        2.79395041      -0.90658383       0.17308784
H        1.27388311       0.63178439      -1.04532658
H        0.26130540       2.12403220       0.52954058
H       -0.20069166       0.80720854       1.60781467
H       -2.88500297       0.63474480      -0.09239192
H       -1.59820558       1.59172163      -0.96012827
H       -2.00766545      -1.40109274      -0.26498948
H       -2.94354545      -0.14986423      -0.86210190
H        0.16936862      -1.90131265       0.12142257
H        0.37118350      -1.45766553      -1.56604399
18
Frame=8 idx=004835 GeodesicLength=0.4478010305040498 rxn_smarts="[C:1]([C:2]1([H:10])[C:3]([H:11])([H:12])[C:4]([H:13])([H:14])[C:5]([H:15])([H:16])[C:6]1([H:17])[H:18])([H:7])([H:8])[H:9]>>[C:1]([C:2]1([H:10])[C:3]([H:11])([H:12])[C:4]([H:14])=[C:5]([H:15])[C:6]1([H:17])[H:18])([H:7])([H:8])[H:9].[H:13][H:16]"
C        2.11396857      -0.24391817       0.71633392
C        0.91576939       0.12810204      -0.14204414
C       -0.07673952       1.08540259       0.55155791
C       -1.32949586       0.82913752      -0.25024695
C       -1.38005368      -0.56955487      -0.59219117
C        0.06091827      -1.07387045      -0.59126196
H        1.79145234      -0.75815653       1.62586511
H        2.67797605       0.64166916       1.01764427
H        2.79507834      -0.90739335       0.17858921
H        1.27819634       0.62875270      -1.04623969
H        0.26111561       2.12316093       0.52714563
H       -0.20630537       0.80712080       1.60246692
H       -2.87871856       0.64568198      -0.05290006
H       -1.59363809       1.59666012      -0.96963775
H       -2.00050901      -1.41886081      -0.32104733
H       -2.97027961      -0.15400203      -0.82800265
H        0.16031176      -1.89210600       0.13197278
H        0.38095302      -1.46782563      -1.55800407
18
Frame=9 idx=004835 GeodesicLength=0.5033521352245859 rxn_smarts="[C:1]([C:2]1([H:10])[C:3]([H:11])([H:12])[C:4]([H:13])([H:14])[C:5]([H:15])([H:16])[C:6]1([H:17])[H:18])([H:7])([H:8])[H:9]>>[C:1]([C:2]1([H:10])[C:3]([H:11])([H:12])[C:4]([H:14])=[C:5]([H:15])[C:6]1([H:17])[H:18])([H:7])([H:8])[H:9].[H:13][H:16]"
C        2.11453567      -0.24278467       0.71917664
C        0.91800437       0.12770600      -0.14205722
C       -0.07694383       1.08467815       0.54620096
C       -1.32658164       0.83121722      -0.26138154
C       -1.37938435      -0.56671004      -0.60760676
C        0.06195583      -1.07193299      -0.59070296
H        1.79009336      -0.75371362       1.62988965
H        2.67924328       0.64288934       1.01882211
H        2.79580624      -0.90859737       0.18456571
H        1.28252999       0.62543604      -1.04721231
H        0.26102818       2.12253703       0.52398849
H       -0.21177950       0.80776509       1.59688073
H       -2.87075180       0.65598343      -0.01225924
H       -1.58953965       1.60159858      -0.97905640
H       -1.99297062      -1.43501658      -0.38225142
H       -2.99625359      -0.16024096      -0.79038901
H        0.15039179      -1.88257194       0.14278284
H        0.39061627      -1.47824271      -1.54939027
18
Frame=10 idx=004835 GeodesicLength=0.5589110303577178 rxn_smarts="[C:1]([C:2]1([H:10])[C:3]([H:11])([H:12])[C:4]([H:13])([H:14])[C:5]([H:15])([H:16])[C:6]1([H:17])[H:18])([H:7])([H:8])[H:9]>>[C:1]([C:2]1([H:10])[C:3]([H:11])([H:12])[C:4]([H:14])=[C:5]([H:15])[C:6]1([H:17])[H:18])([H:7])([H:8])[H:9].[H:13][H:16]"
C        2.11477931      -0.24176639       0.72220989
C        0.92011219       0.12728955      -0.14209921
C       -0.07721128       1.08424583       0.54051368
C       -1.32390663       0.83344963      -0.27255053
C       -1.37858330      -0.56365750      -0.62344578
C        0.06281414      -1.07004524      -0.59012913
H        1.78816716      -0.74925452       1.63411254
H        2.68029302       0.64395962       1.02017272
H        2.79619916      -0.91009378       0.19090320
H        1.28693568       0.62192130      -1.04825513
H        0.26096283       2.12220280       0.52019918
H       -0.21728427       0.80901832       1.59105822
H       -2.86117199       0.66602030       0.02908115
H       -1.58581666       1.60665059      -0.98854505
H       -1.98493541      -1.44919463      -0.44757512
H       -3.02118009      -0.16901315      -0.74897457
H        0.13957321      -1.87278434       0.15366125
H        0.40025294      -1.48894838      -1.54033732
18
Frame=11 idx=004835 GeodesicLength=0.6143975979563482 rxn_smarts="[C:1]([C:2]1([H:10])[C:3]([H:11])([H:12])[C:4]([H:13])([H:14])[C:5]([H:15])([H:16])[C:6]1([H:17])[H:18])([H:7])([H:8])[H:9]>>[C:1]([C:2]1([H:10])[C:3]([H:11])([H:12])[C:4]([H:14])=[C:5]([H:15])[C:6]1([H:17])[H:18])([H:7])([H:8])[H:9].[H:13][H:16]"
C        2.11463935      -0.24090083       0.72545082
C        0.92205659       0.12684548      -0.14216648
C       -0.07753581       1.08409643       0.53445543
C       -1.32150601       0.83585801      -0.28375495
C       -1.37763796      -0.56030266      -0.63981093
C        0.06343970      -1.06815614      -0.58955985
H        1.78559943      -0.74479430       1.63851669
H        2.68108954       0.64479364       1.02172497
H        2.79616922      -0.91191807       0.19765230
H        1.29138528       0.61818041      -1.04932973
H        0.26094764       2.12210826       0.51572897
H       -0.22279721       0.81089151       1.58493673
H       -2.84996612       0.67581860       0.07078328
H       -1.58248131       1.61181324      -0.99809848
H       -1.97625835      -1.46081416      -0.51701754
H       -3.04468740      -0.18097713      -0.70324650
H        0.12774340      -1.86265956       0.16454512
H        0.40980002      -1.49988272      -1.53080985
18
Frame=12 idx=004835 GeodesicLength=0.6697763369426459 rxn_smarts="[C:1]([C:2]1([H:10])[C:3]([H:11])([H:12])[C:4]([H:13])([H:14])[C:5]([H:15])([H:16])[C:6]1([H:17])[H:18])([H:7])([H:8])[H:9]>>[C:1]([C:2]1([H:10])[C:3]([H:11])([H:12])[C:4]([H:14])=[C:5]([H:15])[C:6]1([H:17])[H:18])([H:7])([H:8])[H:9].[H:13][H:16]"
C        2.11405418      -0.24024164       0.72890613
C        0.92380573       0.12637076      -0.14226912
C       -0.07793163       1.08423883       0.52800967
C       -1.31942158       0.83849942      -0.29499975
C       -1.37653015      -0.55654881      -0.65684538
C        0.06378557      -1.06623722      -0.58905380
H        1.78229787      -0.74039697       1.64308307
H        2.68158870       0.64531046       1.02351898
H        2.79564640      -0.91412566       0.20482379
H        1.29587403       0.61421901      -1.05042113
H        0.26099358       2.12225041       0.51058076
H       -0.22834847       0.81337922       1.57848883
H       -2.83724085       0.68543786       0.11234675
H       -1.57949791       1.61715936      -1.00773269
H       -1.96683373      -1.46924812      -0.59021466
H       -3.06625702      -0.19688533      -0.65270813
H        0.11480573      -1.85216889       0.17532464
H        0.41920956      -1.51101270      -1.52083794
18
Frame=13 idx=004835 GeodesicLength=0.7250622230495462 rxn_smarts="[C:1]([C:2]1([H:10])[C:3]([H:11])([H:12])[C:4]([H:13])([H:14])[C:5]([H:15])([H:16])[C:6]1([H:17])[H:18])([H:7])([H:8])[H:9]>>[C:1]([C:2]1([H:10])[C:3]([H:11])([H:12])[C:4]([H:14])=[C:5]([H:15])[C:6]1([H:17])[H:18])([H:7])([H:8])[H:9].[H:13][H:16]"
C        2.11295661      -0.23984947       0.73256371
C        0.92532522       0.12587173      -0.14242468
C       -0.07842547       1.08466366       0.52118473
C       -1.31768755       0.84144541      -0.30629958
C       -1.37524165      -0.55228169      -0.67473463
C        0.06380058      -1.06424275      -0.58871328
H        1.77815971      -0.73616113       1.64776033
H        2.68173802       0.64541964       1.02560104
H        2.79455948      -0.91676152       0.21238951
H        1.30040233       0.61008209      -1.05150628
H        0.26110327       2.12261066       0.50483091
H       -0.23400769       0.81641185       1.57169656
H       -2.82323199       0.69498034       0.15306148
H       -1.57675590       1.62279444      -1.01747996
H       -1.95660238      -1.47393949      -0.66622622
H       -3.08519575      -0.21748921      -0.59700880
H        0.10069093      -1.84129030       0.18581706
H        0.42841222      -1.52226425      -1.51051190
18
Frame=14 idx=004835 GeodesicLength=0.7802589054491537 rxn_smarts="[C:1]([C:2]1([H:10])[C:3]([H:11])([H:12])[C:4]([H:13])([H:14])[C:5]([H:15])([H:16])[C:6]1([H:17])[H:18])([H:7])([H:8])[H:9]>>[C:1]([C:2]1([H:10])[C:3]([H:11])([H:12])[C:4]([H:14])=[C:5]([H:15])[C:6]1([H:17])[H:18])([H:7])([H:8])[H:9].[H:13][H:16]"
C        2.11127979      -0.23979171       0.73639905
C        0.92657645       0.12536680      -0.14266147
C       -0.07905502       1.08535462       0.51402231
C       -1.31632246       0.84479231      -0.31769077
C       -1.37375275      -0.54736818      -0.69370096
C        0.06343519      -1.06211482      -0.58869300
H        1.77309390      -0.73222322       1.65248336
H        2.68147403       0.64502958       1.02803417
H        2.79283960      -0.91986569       0.22028032
H        1.30495827       0.60586091      -1.05256923
H        0.26126070       2.12317585       0.49863991
H       -0.23987170       0.81986235       1.56457255
H       -2.80829917       0.70451907       0.19205353
H       -1.57407383       1.62887532      -1.02740066
H       -1.94562508      -1.47448338      -0.74347418
H       -3.10061478      -0.24343142      -0.53605153
H        0.08539258      -1.83002487       0.19577048
H        0.43730427      -1.53353353      -1.50001388
18
Frame=15 idx=004835 GeodesicLength=0.835400661900618 rxn_smarts="[C:1]([C:2]1([H:10])[C:3]([H:11])([H:12])[C:4]([H:13])([H:14])[C:5]([H:15])([H:16])[C:6]1([H:17])[H:18])([H:7])([H:8])[H:9]>>[C:1]([C:2]1([H:10])[C:3]([H:11])([H:12])[C:4]([H:14])=[C:5]([H:15])[C:6]1([H:17])[H:18])([H:7])([H:8])[H:9].[H:13][H:16]"
C        2.10897731      -0.24012244       0.74035490
C        0.92752443       0.12489052      -0.14300524
C       -0.07987191       1.08625551       0.50660515
C       -1.31532283       0.84862740      -0.32921390
C       -1.37206164      -0.54167875      -0.71391926
C        0.06265010      -1.05975890      -0.58916986
H        1.76704788      -0.72873554       1.65713297
H        2.68074018       0.64405405       1.03086827
H        2.79044455      -0.92342993       0.22837016
H        1.30951993       0.60169495      -1.05356789
H        0.26142428       2.12388547       0.49226882
H       -0.24606890       0.82351046       1.55713958
H       -2.79292708       0.71412754       0.22836317
H       -1.57118351       1.63555106      -1.03756461
H       -1.93411121      -1.47093830      -0.81973157
H       -3.11152385      -0.27493667      -0.47022710
H        0.06899521      -1.81836331       0.20487712
H        0.44574706      -1.54463311      -1.48958070
18
Frame=16 idx=004835 GeodesicLength=0.8905298669840173 rxn_smarts="[C:1]([C:2]1([H:10])[C:3]([H:11])([H:12])[C:4]([H:13])([H:14])[C:5]([H:15])([H:16])[C:6]1([H:17])[H:18])([H:7])([H:8])[H:9]>>[C:1]([C:2]1([H:10])[C:3]([H:11])([H:12])[C:4]([H:14])=[C:5]([H:15])[C:6]1([H:17])[H:18])([H:7])([H:8])[H:9].[H:13][H:16]"
C        2.10603714      -0.24086505       0.74435704
C        0.92814113       0.12448714      -0.14347260
C       -0.08092516       1.08729907       0.49905577
C       -1.31465856       0.85301523      -0.34089566
C       -1.37019793      -0.53514010      -0.73541642
C        0.06141938      -1.05708066      -0.59029820
H        1.76003602      -0.72583123       1.66158300
H        2.67950021       0.64245096       1.03413130
H        2.78736681      -0.92740050       0.23649215
H        1.31404218       0.59774439      -1.05446199
H        0.26153706       2.12467503       0.48603004
H       -0.25271314       0.82711177       1.54946137
H       -2.77763467       0.72380950       0.26120518
H       -1.56778256       1.64293128      -1.04804833
H       -1.92241029      -1.46388937      -0.89264606
H       -3.11700566      -0.31165024      -0.40045006
H        0.05168003      -1.80632013       0.21285176
H        0.45356801      -1.55534709      -1.47947828
