14
Frame=0 idx=004980 GeodesicLength=0.0 rxn_smarts="[O:1]([C:2]([C@@:3]1([H:10])[C:4]([H:11])([H:12])[C:5]([H:13])([H:14])[O:6]1)([H:8])[H:9])[H:7]>>[O:1]=[C:2]([C:3]([C:4]([C:5]([O:6][H:7])([H:13])[H:14])([H:11])[H:12])([H:9])[H:10])[H:8]"
O       -1.81283886       0.63018257      -0.47891512
C       -1.55654167      -0.55322713       0.01623450
C       -0.16216387      -0.82199201       0.30166948
C        0.89813065      -0.28910263      -0.61926455
C        1.22511060       0.98862107       0.15069569
O        0.14304023       1.06948771       1.08200141
H       -0.69594910       1.23373175       0.51833714
H       -2.23304423      -0.94967861       0.79681159
H       -1.50518429      -1.46312456      -0.72525255
H        0.09230215      -1.58723883       1.03367593
H        1.74000190      -0.96961604      -0.73810887
H        0.44093127      -0.07085861      -1.58512398
H        1.27945283       1.87866442      -0.47891045
H        2.14675245       0.90415090       0.72614983
14
Frame=1 idx=004980 GeodesicLength=0.09555537468671912 rxn_smarts="[O:1]([C:2]([C@@:3]1([H:10])[C:4]([H:11])([H:12])[C:5]([H:13])([H:14])[O:6]1)([H:8])[H:9])[H:7]>>[O:1]=[C:2]([C:3]([C:4]([C:5]([O:6][H:7])([H:13])[H:14])([H:11])[H:12])([H:9])[H:10])[H:8]"
O       -1.82171676       0.63287929      -0.46971526
C       -1.56386750      -0.55322113       0.01735242
C       -0.16457917      -0.82038561       0.29729902
C        0.89461019      -0.28611158      -0.62600299
C        1.23049817       0.98347453       0.15338106
O        0.14125653       1.06864416       1.07510700
H       -0.71313651       1.24596387       0.50517199
H       -2.23777380      -0.95203891       0.79855784
H       -1.47293885      -1.48301374      -0.71566606
H        0.09211748      -1.57223927       1.04219672
H        1.73368797      -0.96865829      -0.75240997
H        0.43570981      -0.05745375      -1.58868759
H        1.29893018       1.87595063      -0.47166227
H        2.14720227       0.88620981       0.73507808
14
Frame=2 idx=004980 GeodesicLength=0.19104214457917473 rxn_smarts="[O:1]([C:2]([C@@:3]1([H:10])[C:4]([H:11])([H:12])[C:5]([H:13])([H:14])[O:6]1)([H:8])[H:9])[H:7]>>[O:1]=[C:2]([C:3]([C:4]([C:5]([O:6][H:7])([H:13])[H:14])([H:11])[H:12])([H:9])[H:10])[H:8]"
O       -1.83048801       0.63549169      -0.46067690
C       -1.57101587      -0.55341513       0.01796770
C       -0.16687227      -0.81880133       0.29300473
C        0.89121490      -0.28309802      -0.63265668
C        1.23584082       0.97828130       0.15606021
O        0.13970208       1.06762432       1.06839838
H       -0.73059457       1.25811863       0.49212111
H       -2.24228332      -0.95400404       0.80017579
H       -1.44115454      -1.50253727      -0.70539194
H        0.09185510      -1.55739486       1.05028559
H        1.72753141      -0.96755442      -0.76654022
H        0.43070652      -0.04415113      -1.59211570
H        1.31798389       1.87303641      -0.46432825
H        2.14757388       0.86840385       0.74369617
14
Frame=3 idx=004980 GeodesicLength=0.28649742180752197 rxn_smarts="[O:1]([C:2]([C@@:3]1([H:10])[C:4]([H:11])([H:12])[C:5]([H:13])([H:14])[O:6]1)([H:8])[H:9])[H:7]>>[O:1]=[C:2]([C:3]([C:4]([C:5]([O:6][H:7])([H:13])[H:14])([H:11])[H:12])([H:9])[H:10])[H:8]"
O       -1.83916900       0.63801616      -0.45177598
C       -1.57799486      -0.55378199       0.01813101
C       -0.16904751      -0.81722579       0.28880499
C        0.88793298      -0.28006410      -0.63922197
C        1.24115415       0.97304133       0.15872706
O        0.13839506       1.06644264       1.06188281
H       -0.74834054       1.27023230       0.47917291
H       -2.24660580      -0.95565723       0.80163329
H       -1.40978525      -1.52168743      -0.69449549
H        0.09151279      -1.54270008       1.05798388
H        1.72151266      -0.96631837      -0.78050693
H        0.42589899      -0.03094824      -1.59540161
H        1.33663932       1.86992842      -0.45692874
H        2.14789700       0.85072237       0.75199478
14
Frame=4 idx=004980 GeodesicLength=0.38192721532817536 rxn_smarts="[O:1]([C:2]([C@@:3]1([H:10])[C:4]([H:11])([H:12])[C:5]([H:13])([H:14])[O:6]1)([H:8])[H:9])[H:7]>>[O:1]=[C:2]([C:3]([C:4]([C:5]([O:6][H:7])([H:13])[H:14])([H:11])[H:12])([H:9])[H:10])[H:8]"
O       -1.84777649       0.64044723      -0.44299404
C       -1.58481220      -0.55429660       0.01789069
C       -0.17110919      -0.81564861       0.28471394
C        0.88475424      -0.27701238      -0.64569627
C        1.24645233       0.96775338       0.16137644
O        0.13734873       1.06511208       1.05556310
H       -0.76639051       1.28233884       0.46631538
H       -2.25076887      -0.95707304       0.80290788
H       -1.37878710      -1.54045146      -0.68303597
H        0.09108859      -1.52814953       1.06532841
H        1.71561455      -0.96496274      -0.79431682
H        0.42126886      -0.01784266      -1.59854058
H        1.35492080       1.86663119      -0.44948040
H        2.14819627       0.83315434       0.75996824
14
Frame=5 idx=004980 GeodesicLength=0.4773659148289722 rxn_smarts="[O:1]([C:2]([C@@:3]1([H:10])[C:4]([H:11])([H:12])[C:5]([H:13])([H:14])[O:6]1)([H:8])[H:9])[H:7]>>[O:1]=[C:2]([C:3]([C:4]([C:5]([O:6][H:7])([H:13])[H:14])([H:11])[H:12])([H:9])[H:10])[H:8]"
O       -1.85632692       0.64277777      -0.43432071
C       -1.59147651      -0.55493845       0.01729477
C       -0.17306244      -0.81406230       0.28074103
C        0.88166796      -0.27394388      -0.65207844
C        1.25174785       0.96241510       0.16400614
O        0.13657247       1.06364010       1.04944644
H       -0.78476732       1.29447302       0.45351987
H       -2.25479707      -0.95831344       0.80398704
H       -1.34811309      -1.55881680      -0.67106035
H        0.09058478      -1.51374043       1.07235222
H        1.70981910      -0.96349791      -0.80798055
H        0.41679800      -0.00482663      -1.60152897
H        1.37285648       1.86315091      -0.44199457
H        2.14849672       0.81568293       0.76761610
14
Frame=6 idx=004980 GeodesicLength=0.5728154238665638 rxn_smarts="[O:1]([C:2]([C@@:3]1([H:10])[C:4]([H:11])([H:12])[C:5]([H:13])([H:14])[O:6]1)([H:8])[H:9])[H:7]>>[O:1]=[C:2]([C:3]([C:4]([C:5]([O:6][H:7])([H:13])[H:14])([H:11])[H:12])([H:9])[H:10])[H:8]"
O       -1.86483643       0.64499794      -0.42574376
C       -1.59799332      -0.55568772       0.01639045
C       -0.17491021      -0.81246073       0.27689807
C        0.87866625      -0.27086070      -0.65836550
C        1.25705209       0.95702351       0.16661509
O        0.13607840       1.06203314       1.04353615
H       -0.80348866       1.30666761       0.44075844
H       -2.25871049      -0.95943658       0.80486228
H       -1.31772996      -1.57676592      -0.65862444
H        0.09000180      -1.49946933       1.07908372
H        1.70411249      -0.96193370      -0.82150343
H        0.41247191       0.00810392      -1.60436154
H        1.39046878       1.85948998      -0.43448165
H        2.14881735       0.79829859       0.77493612
14
Frame=7 idx=004980 GeodesicLength=0.6682763710953199 rxn_smarts="[O:1]([C:2]([C@@:3]1([H:10])[C:4]([H:11])([H:12])[C:5]([H:13])([H:14])[O:6]1)([H:8])[H:9])[H:7]>>[O:1]=[C:2]([C:3]([C:4]([C:5]([O:6][H:7])([H:13])[H:14])([H:11])[H:12])([H:9])[H:10])[H:8]"
O       -1.87331986       0.64709983      -0.41725790
C       -1.60437112      -0.55652649       0.01522345
C       -0.17665778      -0.81084095       0.27318862
C        0.87573982      -0.26776330      -0.66455793
C        1.26237711       0.95157363       0.16920313
O        0.13586768       1.06029660       1.03783644
H       -0.82257406       1.31895370       0.42799394
H       -2.26252711      -0.96048999       0.80553430
H       -1.28759051      -1.59428467      -0.64576525
H        0.08934318      -1.48533349       1.08554770
H        1.69847862      -0.96027777      -0.83489777
H        0.40827556       0.02095969      -1.60703555
H        1.40778452       1.85565047      -0.42694717
H        2.14917395       0.78098275       0.78193400
14
Frame=8 idx=004980 GeodesicLength=0.7637431651255469 rxn_smarts="[O:1]([C:2]([C@@:3]1([H:10])[C:4]([H:11])([H:12])[C:5]([H:13])([H:14])[O:6]1)([H:8])[H:9])[H:7]>>[O:1]=[C:2]([C:3]([C:4]([C:5]([O:6][H:7])([H:13])[H:14])([H:11])[H:12])([H:9])[H:10])[H:8]"
O       -1.88179017       0.64907103      -0.40886266
C       -1.61061543      -0.55744321       0.01383522
C       -0.17830769      -0.80920191       0.26961661
C        0.87288231      -0.26465188      -0.67065493
C        1.26773061       0.94606074       0.17177315
O        0.13594728       1.05843021       1.03235276
H       -0.84204898       1.33135955       0.41518294
H       -2.26625863      -0.96150864       0.80601205
H       -1.25766605      -1.61135003      -0.63251918
H        0.08861459      -1.47133458       1.09176313
H        1.69290653      -0.95853491      -0.84817205
H        0.40419893       0.03374894      -1.60954769
H        1.42482522       1.85163417      -0.41939270
H        2.14958148       0.76372051       0.78861333
14
Frame=9 idx=004980 GeodesicLength=0.8593193170415757 rxn_smarts="[O:1]([C:2]([C@@:3]1([H:10])[C:4]([H:11])([H:12])[C:5]([H:13])([H:14])[O:6]1)([H:8])[H:9])[H:7]>>[O:1]=[C:2]([C:3]([C:4]([C:5]([O:6][H:7])([H:13])[H:14])([H:11])[H:12])([H:9])[H:10])[H:8]"
O       -1.89026503       0.65090378      -0.40060108
C       -1.61674027      -0.55844017       0.01227228
C       -0.17987151      -0.80755119       0.26617176
C        0.87008136      -0.26152331      -0.67666072
C        1.27311869       0.94047291       0.17433634
O        0.13632067       1.05640776       1.02711500
H       -0.86194694       1.34390894       0.40223495
H       -2.26991108      -0.96248260       0.80635074
H       -1.22788235      -1.62793563      -0.61889396
H        0.08783229      -1.45748119       1.09773379
H        1.68737901      -0.95670377      -0.86135015
H        0.40022415       0.04649471      -1.61189678
H        1.44161020       1.84744493      -0.41179473
H        2.15005082       0.74648482       0.79498256
14
Frame=10 idx=004980 GeodesicLength=0.9548966044845214 rxn_smarts="[O:1]([C:2]([C@@:3]1([H:10])[C:4]([H:11])([H:12])[C:5]([H:13])([H:14])[O:6]1)([H:8])[H:9])[H:7]>>[O:1]=[C:2]([C:3]([C:4]([C:5]([O:6][H:7])([H:13])[H:14])([H:11])[H:12])([H:9])[H:10])[H:8]"
O       -1.89874928       0.65259313      -0.39242767
C       -1.62274590      -0.55948356       0.01057640
C       -0.18134690      -0.80587980       0.26286693
C        0.86733470      -0.25837895      -0.68257046
C        1.27855334       0.93481044       0.17688732
O        0.13698812       1.05425825       1.02210624
H       -0.88227943       1.35663417       0.38914200
H       -2.27350242      -0.96348634       0.80652031
H       -1.19823984      -1.64405163      -0.60495472
H        0.08699142      -1.44376721       1.10348998
H        1.68188698      -0.95479332      -0.87442944
H        0.39634689       0.05919759      -1.61407567
H        1.45816658       1.84308014      -0.40417816
H        2.15059575       0.72926710       0.80104693
14
Frame=11 idx=004980 GeodesicLength=1.0505001279989175 rxn_smarts="[O:1]([C:2]([C@@:3]1([H:10])[C:4]([H:11])([H:12])[C:5]([H:13])([H:14])[O:6]1)([H:8])[H:9])[H:7]>>[O:1]=[C:2]([C:3]([C:4]([C:5]([O:6][H:7])([H:13])[H:14])([H:11])[H:12])([H:9])[H:10])[H:8]"
O       -1.90725535       0.65412924      -0.38434781
C       -1.62863977      -0.56055878       0.00879046
C       -0.18273933      -0.80418892       0.25970052
C        0.86463473      -0.25521571      -0.68838431
C        1.28404196       0.92906630       0.17943297
O        0.13795450       1.05197410       1.01733977
H       -0.90307390       1.36956444       0.37583440
H       -2.27704043      -0.96453645       0.80654514
H       -1.16869972      -1.65969332      -0.59072983
H        0.08609977      -1.43019833       1.10904277
H        1.67641696      -0.95280394      -0.88742280
H        0.39255722       0.07187412      -1.61607988
H        1.47451386       1.83854165      -0.39653495
H        2.15122949       0.71204560       0.80681355
14
Frame=12 idx=004980 GeodesicLength=1.146108521936926 rxn_smarts="[O:1]([C:2]([C@@:3]1([H:10])[C:4]([H:11])([H:12])[C:5]([H:13])([H:14])[O:6]1)([H:8])[H:9])[H:7]>>[O:1]=[C:2]([C:3]([C:4]([C:5]([O:6][H:7])([H:13])[H:14])([H:11])[H:12])([H:9])[H:10])[H:8]"
O       -1.91579180       0.65551105      -0.37635972
C       -1.63442931      -0.56165013       0.00695612
C       -0.18405443      -0.80248087       0.25666938
C        0.86197482      -0.25203199      -0.69410294
C        1.28959081       0.92323282       0.18197804
O        0.13921792       1.04955322       1.01282129
H       -0.92435261       1.38272582       0.36225494
H       -2.28053152      -0.96565181       0.80644790
H       -1.13922097      -1.67485965      -0.57625214
H        0.08516331      -1.41677788       1.11440336
H        1.67095749      -0.95073641      -0.90034121
H        0.38884607       0.08453719      -1.61790518
H        1.49067174       1.83382759      -0.38886151
H        2.15195850       0.69480105       0.81229167
14
Frame=13 idx=004980 GeodesicLength=1.2417420414734792 rxn_smarts="[O:1]([C:2]([C@@:3]1([H:10])[C:4]([H:11])([H:12])[C:5]([H:13])([H:14])[O:6]1)([H:8])[H:9])[H:7]>>[O:1]=[C:2]([C:3]([C:4]([C:5]([O:6][H:7])([H:13])[H:14])([H:11])[H:12])([H:9])[H:10])[H:8]"
O       -1.92437103       0.65673284      -0.36847068
C       -1.64012192      -0.56274511       0.00511389
C       -0.18529789      -0.80075935       0.25376896
C        0.85934735      -0.24882260      -0.69972668
C        1.29520566       0.91730140       0.18453197
O        0.14078194       1.04698315       1.00856894
H       -0.94614414       1.39614532       0.34831800
H       -2.28397860      -0.96683559       0.80626276
H       -1.10976361      -1.68955378      -0.56154378
H        0.08419128      -1.40351563       1.11957731
H        1.66549548      -0.94858660      -0.91319951
H        0.38520425       0.09720722      -1.61954575
H        1.50665840       1.82893920      -0.38114371
H        2.15279283       0.67750954       0.81748828
14
Frame=14 idx=004980 GeodesicLength=1.3373579613710462 rxn_smarts="[O:1]([C:2]([C@@:3]1([H:10])[C:4]([H:11])([H:12])[C:5]([H:13])([H:14])[O:6]1)([H:8])[H:9])[H:7]>>[O:1]=[C:2]([C:3]([C:4]([C:5]([O:6][H:7])([H:13])[H:14])([H:11])[H:12])([H:9])[H:10])[H:8]"
O       -1.93299945       0.65779287      -0.36068112
C       -1.64572423      -0.56383453       0.00329978
C       -0.18647392      -0.79902959       0.25099491
C        0.85674730      -0.24558480      -0.70525530
C        1.30089028       0.91126374       0.18710226
O        0.14264543       1.04425575       1.00459315
H       -0.96847380       1.40984282       0.33395109
H       -2.28738093      -0.96809095       0.80602398
H       -1.08029523      -1.70376833      -0.54663366
H        0.08319192      -1.39041959       1.12456931
H        1.66002240      -0.94635142      -0.92600814
H        0.38162510       0.10989770      -1.62099585
H        1.52248698       1.82387453      -0.37337213
H        2.15373816       0.66015180       0.82241175
14
Frame=15 idx=004980 GeodesicLength=1.4329379459503386 rxn_smarts="[O:1]([C:2]([C@@:3]1([H:10])[C:4]([H:11])([H:12])[C:5]([H:13])([H:14])[O:6]1)([H:8])[H:9])[H:7]>>[O:1]=[C:2]([C:3]([C:4]([C:5]([O:6][H:7])([H:13])[H:14])([H:11])[H:12])([H:9])[H:10])[H:8]"
O       -1.94168545       0.65869429      -0.35299953
C       -1.65124505      -0.56491113       0.00154933
C       -0.18758811      -0.79729945       0.24833824
C        0.85416832      -0.24231326      -0.71069022
C        1.30664790       0.90510939       0.18969902
O        0.14480675       1.04135591       1.00091006
H       -0.99136868       1.42383849       0.31906688
H       -2.29073625      -0.96941009       0.80577442
H       -1.05077304      -1.71750286      -0.53153649
H        0.08217596      -1.37750180       1.12938040
H        1.65452805      -0.94402346      -0.93878298
H        0.37810079       0.12262854      -1.62224986
H        1.53817001       1.81863218      -0.36552965
H        2.15479880       0.64270325       0.82707038
14
Frame=16 idx=004980 GeodesicLength=1.5284705233685176 rxn_smarts="[O:1]([C:2]([C@@:3]1([H:10])[C:4]([H:11])([H:12])[C:5]([H:13])([H:14])[O:6]1)([H:8])[H:9])[H:7]>>[O:1]=[C:2]([C:3]([C:4]([C:5]([O:6][H:7])([H:13])[H:14])([H:11])[H:12])([H:9])[H:10])[H:8]"
O       -1.95043715       0.65943998      -0.34542990
C       -1.65669243      -0.56596761      -0.00010215
C       -0.18864554      -0.79557743       0.24579054
C        0.85160425      -0.23900178      -0.71603188
C        1.31248119       0.89882771       0.19233370
O        0.14726632       1.03826543       0.99753933
H       -1.01485936       1.43815117       0.30356509
H       -2.29403963      -0.97078080       0.80556075
H       -1.02115663      -1.73075700      -0.51626966
H        0.08115365      -1.36477622       1.13400908
H        1.64900279      -0.94159357      -0.95153939
H        0.37462377       0.13542012      -1.62329991
H        1.55371847       1.81321067      -0.35759661
H        2.15598029       0.62513935       0.83147099
