16
Frame=0 idx=008092 GeodesicLength=0.0 rxn_smarts="[C:1](/[C:2](=[N:3]/[H:11])[O:4][C:5]1([H:12])[C:6]([H:13])([H:14])[C:7]1([H:15])[H:16])([H:8])([H:9])[H:10]>>[C:1]([N:3]([C-:2]=[O+:4][C:5]1([H:12])[C:6]([H:13])([H:14])[C:7]1([H:15])[H:16])[H:11])([H:8])([H:9])[H:10]"
C        2.26228706      -0.56418614      -0.30238832
C        1.22724278       0.36230754       0.83383445
N        2.26806329       1.09509650       0.48915679
O        0.05528903       0.85886912       0.35427618
C       -1.07425229       0.08109206       0.65468415
C       -1.64371466      -0.78051920      -0.42564045
C       -2.33666678       0.49271407      -0.00549683
H        2.94362806      -1.13808039       0.30739090
H        1.41764115      -1.16345754      -0.64635691
H        2.74831270      -0.13292557      -1.18092205
H        1.97334385       1.90220064      -0.09441022
H       -1.09222035      -0.27597876       1.67660529
H       -1.13879277      -0.76551561      -1.38296823
H       -2.07887193      -1.73192564      -0.15025912
H       -2.27374948       1.33169929      -0.68552178
H       -3.25753965       0.42860959       0.55801614
16
Frame=1 idx=008092 GeodesicLength=0.04655721806096034 rxn_smarts="[C:1](/[C:2](=[N:3]/[H:11])[O:4][C:5]1([H:12])[C:6]([H:13])([H:14])[C:7]1([H:15])[H:16])([H:8])([H:9])[H:10]>>[C:1]([N:3]([C-:2]=[O+:4][C:5]1([H:12])[C:6]([H:13])([H:14])[C:7]1([H:15])[H:16])[H:11])([H:8])([H:9])[H:10]"
C        2.27619544      -0.56870458      -0.28476391
C        1.22731622       0.38270574       0.82203885
N        2.25902502       1.11292858       0.45461744
O        0.04839933       0.86153009       0.34455258
C       -1.07235464       0.07278602       0.64913165
C       -1.65384444      -0.77011861      -0.43900357
C       -2.34617005       0.49170594       0.01520445
H        2.91820754      -1.15021102       0.36064957
H        1.44278951      -1.16307737      -0.66299377
H        2.81781549      -0.16938347      -1.14541983
H        1.96022262       1.90811999      -0.14039851
H       -1.07603496      -0.30244026       1.66471540
H       -1.16375621      -0.73464473      -1.40345346
H       -2.08242527      -1.72807782      -0.17622178
H       -2.29706155       1.34371475      -0.64960178
H       -3.25832405       0.41316674       0.59094669
16
Frame=2 idx=008092 GeodesicLength=0.09330230275662023 rxn_smarts="[C:1](/[C:2](=[N:3]/[H:11])[O:4][C:5]1([H:12])[C:6]([H:13])([H:14])[C:7]1([H:15])[H:16])([H:8])([H:9])[H:10]>>[C:1]([N:3]([C-:2]=[O+:4][C:5]1([H:12])[C:6]([H:13])([H:14])[C:7]1([H:15])[H:16])[H:11])([H:8])([H:9])[H:10]"
C        2.29020753      -0.57268079      -0.26713169
C        1.22727627       0.40297805       0.80929332
N        2.24988596       1.12960116       0.41872231
O        0.04153549       0.86415172       0.33436436
C       -1.07027726       0.06449009       0.64308298
C       -1.66455337      -0.75947872      -0.45211526
C       -2.35532297       0.49037466       0.03625472
H        2.88995332      -1.16137573       0.41266626
H        1.47039664      -1.16210622      -0.68117556
H        2.88785255      -0.20492632      -1.10418572
H        1.94705868       1.91258051      -0.18768867
H       -1.05923430      -0.32881423       1.65178002
H       -1.18975627      -0.70352365      -1.42319688
H       -2.08675564      -1.72365971      -0.20198899
H       -2.31997055       1.35506961      -0.61286203
H       -3.25829608       0.39731958       0.62418082
16
Frame=3 idx=008092 GeodesicLength=0.14018238462561172 rxn_smarts="[C:1](/[C:2](=[N:3]/[H:11])[O:4][C:5]1([H:12])[C:6]([H:13])([H:14])[C:7]1([H:15])[H:16])([H:8])([H:9])[H:10]>>[C:1]([N:3]([C-:2]=[O+:4][C:5]1([H:12])[C:6]([H:13])([H:14])[C:7]1([H:15])[H:16])[H:11])([H:8])([H:9])[H:10]"
C        2.30425952      -0.57615580      -0.24944806
C        1.22715907       0.42314970       0.79563605
N        2.24067660       1.14503726       0.38140785
O        0.03472683       0.86676579       0.32375864
C       -1.06799023       0.05621991       0.63653201
C       -1.67576924      -0.74856582      -0.46499327
C       -2.36405553       0.48872021       0.05764343
H        2.85887095      -1.17161735       0.46309520
H        1.50064546      -1.16068398      -0.70058373
H        2.95769341      -0.23932391      -1.05705077
H        1.93386070       1.91549072      -0.23633584
H       -1.04180677      -0.35511226       1.63775521
H       -1.21670772      -0.67207759      -1.44219319
H       -2.09178607      -1.71865617      -0.22761802
H       -2.34238756       1.36578336      -0.57527361
H       -3.25738943       0.38102593       0.65766811
16
Frame=4 idx=008092 GeodesicLength=0.18716734978371727 rxn_smarts="[C:1](/[C:2](=[N:3]/[H:11])[O:4][C:5]1([H:12])[C:6]([H:13])([H:14])[C:7]1([H:15])[H:16])([H:8])([H:9])[H:10]>>[C:1]([N:3]([C-:2]=[O+:4][C:5]1([H:12])[C:6]([H:13])([H:14])[C:7]1([H:15])[H:16])[H:11])([H:8])([H:9])[H:10]"
C        2.31829843      -0.57917483      -0.23168140
C        1.22700524       0.44324113       0.78111954
N        2.23144174       1.15916070       0.34263292
O        0.02800734       0.86940860       0.31279700
C       -1.06547470       0.04799226       0.62948145
C       -1.68743437      -0.73735145      -0.47765746
C       -2.37230646       0.48674643       0.07935693
H        2.82504025      -1.18097085       0.51159652
H        1.53370953      -1.15902099      -0.72084510
H        3.02658771      -0.27229564      -1.00397502
H        1.92065809       1.91678075      -0.28636043
H       -1.02376469      -0.38134116       1.62261252
H       -1.24452272      -0.64024410      -1.46043978
H       -2.09747015      -1.71305754      -0.25316726
H       -2.36421597       1.37587577      -0.53682076
H       -3.25555926       0.36425089       0.69135032
16
Frame=5 idx=008092 GeodesicLength=0.23418585496980804 rxn_smarts="[C:1](/[C:2](=[N:3]/[H:11])[O:4][C:5]1([H:12])[C:6]([H:13])([H:14])[C:7]1([H:15])[H:16])([H:8])([H:9])[H:10]>>[C:1]([N:3]([C-:2]=[O+:4][C:5]1([H:12])[C:6]([H:13])([H:14])[C:7]1([H:15])[H:16])[H:11])([H:8])([H:9])[H:10]"
C        2.33219964      -0.58182226      -0.21362728
C        1.22685022       0.46339193       0.76576168
N        2.22217943       1.17188726       0.30219434
O        0.02139623       0.87218154       0.30151958
C       -1.06264897       0.03980880       0.62187650
C       -1.69942117      -0.72569524      -0.49023953
C       -2.37999880       0.48442094       0.10145965
H        2.78858217      -1.18935473       0.55810077
H        1.56967616      -1.15741047      -0.74128366
H        3.09360740      -0.30377027      -0.94498116
H        1.90740426       1.91629371      -0.33801359
H       -1.00496462      -0.40766628       1.60618389
H       -1.27314075      -0.60767274      -1.47804919
H       -2.10358924      -1.70679574      -0.27893119
H       -2.38545560       1.38542239      -0.49725673
H       -3.25267636       0.34678116       0.72528595
16
Frame=6 idx=008092 GeodesicLength=0.28128381698321725 rxn_smarts="[C:1](/[C:2](=[N:3]/[H:11])[O:4][C:5]1([H:12])[C:6]([H:13])([H:14])[C:7]1([H:15])[H:16])([H:8])([H:9])[H:10]>>[C:1]([N:3]([C-:2]=[O+:4][C:5]1([H:12])[C:6]([H:13])([H:14])[C:7]1([H:15])[H:16])[H:11])([H:8])([H:9])[H:10]"
C        2.34603828      -0.58403977      -0.19554271
C        1.22669302       0.48329944       0.74958685
N        2.21294171       1.18299916       0.26047434
O        0.01494722       0.87494271       0.28991159
C       -1.05960200       0.03172586       0.61376926
C       -1.71182377      -0.71376582      -0.50251151
C       -2.38708265       0.48182258       0.12376446
H        2.74975387      -1.19694718       0.60186047
H        1.60888149      -1.15589744      -0.76199440
H        3.15826669      -0.33297201      -0.88028566
H        1.89421899       1.91406353      -0.39063894
H       -0.98567449      -0.43374140       1.58862453
H       -1.30251418      -0.57486903      -1.49475453
H       -2.11042146      -1.69991534      -0.30444519
H       -2.40583808       1.39431271      -0.45702126
H       -3.24878464       0.32898197       0.75920270
16
Frame=7 idx=008092 GeodesicLength=0.3284643065574757 rxn_smarts="[C:1](/[C:2](=[N:3]/[H:11])[O:4][C:5]1([H:12])[C:6]([H:13])([H:14])[C:7]1([H:15])[H:16])([H:8])([H:9])[H:10]>>[C:1]([N:3]([C-:2]=[O+:4][C:5]1([H:12])[C:6]([H:13])([H:14])[C:7]1([H:15])[H:16])[H:11])([H:8])([H:9])[H:10]"
C        2.35979184      -0.58584005      -0.17746053
C        1.22654016       0.50286012       0.73261071
N        2.20373835       1.19235645       0.21760388
O        0.00868667       0.87765200       0.27796730
C       -1.05634540       0.02376854       0.60516426
C       -1.72463084      -0.70158857      -0.51440751
C       -2.39350620       0.47898407       0.14620493
H        2.70875054      -1.20387309       0.64248560
H        1.65154087      -1.15456374      -0.78274257
H        3.21996320      -0.35948924      -0.81007694
H        1.88113192       1.91005449      -0.44400867
H       -0.96596893      -0.45946833       1.56995265
H       -1.33260201      -0.54193402      -1.51047300
H       -2.11799445      -1.69241372      -0.32958429
H       -2.42524640       1.40253903      -0.41623802
H       -3.24384932       0.31095607       0.79300219
16
Frame=8 idx=008092 GeodesicLength=0.3757588777485093 rxn_smarts="[C:1](/[C:2](=[N:3]/[H:11])[O:4][C:5]1([H:12])[C:6]([H:13])([H:14])[C:7]1([H:15])[H:16])([H:8])([H:9])[H:10]>>[C:1]([N:3]([C-:2]=[O+:4][C:5]1([H:12])[C:6]([H:13])([H:14])[C:7]1([H:15])[H:16])[H:11])([H:8])([H:9])[H:10]"
C        2.37344837      -0.58728896      -0.15932219
C        1.22642045       0.52211229       0.71487186
N        2.19461388       1.19989529       0.17354706
O        0.00262665       0.88036003       0.26574263
C       -1.05289012       0.01593669       0.59605079
C       -1.73782830      -0.68909525      -0.52600689
C       -2.39926516       0.47591584       0.16881904
H        2.66591362      -1.21007963       0.67985565
H        1.69777617      -1.15379742      -0.80291785
H        3.27808602      -0.38308332      -0.73470637
H        1.86819014       1.90422444      -0.49815968
H       -0.94588210      -0.48493101       1.55010862
H       -1.36337104      -0.50869937      -1.52527874
H       -2.12629398      -1.68426900      -0.35451909
H       -2.44366035       1.41017358      -0.37478845
H       -3.23788426       0.29262580       0.82670361
16
Frame=9 idx=008092 GeodesicLength=0.4230312042515032 rxn_smarts="[C:1](/[C:2](=[N:3]/[H:11])[O:4][C:5]1([H:12])[C:6]([H:13])([H:14])[C:7]1([H:15])[H:16])([H:8])([H:9])[H:10]>>[C:1]([N:3]([C-:2]=[O+:4][C:5]1([H:12])[C:6]([H:13])([H:14])[C:7]1([H:15])[H:16])[H:11])([H:8])([H:9])[H:10]"
C        2.38685309      -0.58843404      -0.14089306
C        1.22633745       0.54110802       0.69630978
N        2.18545720       1.20541502       0.12815883
O       -0.00323287       0.88311137       0.25320329
C       -1.04913383       0.00820475       0.58630625
C       -1.75132158      -0.67608659      -0.53745487
C       -2.40426146       0.47258670       0.19167005
H        2.62174559      -1.21531606       0.71411012
H        1.74754585      -1.15391661      -0.82156094
H        3.33173687      -0.40369755      -0.65457254
H        1.85522896       1.89635387      -0.55324261
H       -0.92520141      -0.51036025       1.52880218
H       -1.39487013      -0.47471860      -1.53926887
H       -2.13512361      -1.67531670      -0.37956944
H       -2.46108634       1.41728955      -0.33237607
H       -3.23067379       0.27377712       0.86037790
16
Frame=10 idx=008092 GeodesicLength=0.4703432470544692 rxn_smarts="[C:1](/[C:2](=[N:3]/[H:11])[O:4][C:5]1([H:12])[C:6]([H:13])([H:14])[C:7]1([H:15])[H:16])([H:8])([H:9])[H:10]>>[C:1]([N:3]([C-:2]=[O+:4][C:5]1([H:12])[C:6]([H:13])([H:14])[C:7]1([H:15])[H:16])[H:11])([H:8])([H:9])[H:10]"
C        2.40017110      -0.58925341      -0.12253143
C        1.22628494       0.55951448       0.67703269
N        2.17638985       1.20881961       0.08195766
O       -0.00886076       0.88577162       0.24042256
C       -1.04526508       0.00062298       0.57605732
C       -1.76524051      -0.66278325      -0.54852817
C       -2.40854214       0.46911459       0.21455567
H        2.57670563      -1.21986033       0.74460940
H        1.80108712      -1.15502215      -0.83877051
H        3.38074815      -0.42064605      -0.57039128
H        1.84249562       1.88670267      -0.60847289
H       -0.90439314      -0.53540146       1.50634129
H       -1.42698750      -0.44057727      -1.55222604
H       -2.14484102      -1.66568734      -0.40426171
H       -2.47729467       1.42384111      -0.28952589
H       -3.22245759       0.25484419       0.89373133
16
Frame=11 idx=008092 GeodesicLength=0.517682433302446 rxn_smarts="[C:1](/[C:2](=[N:3]/[H:11])[O:4][C:5]1([H:12])[C:6]([H:13])([H:14])[C:7]1([H:15])[H:16])([H:8])([H:9])[H:10]>>[C:1]([N:3]([C-:2]=[O+:4][C:5]1([H:12])[C:6]([H:13])([H:14])[C:7]1([H:15])[H:16])[H:11])([H:8])([H:9])[H:10]"
C        2.41339465      -0.58975695      -0.10422336
C        1.22624477       0.57723799       0.65700434
N        2.16736598       1.20998965       0.03504406
O       -0.01425560       0.88828829       0.22733501
C       -1.04128913      -0.00682413       0.56525442
C       -1.77961388      -0.64914987      -0.55923248
C       -2.41207212       0.46552344       0.23747087
H        2.53116811      -1.22375476       0.77127948
H        1.85851400      -1.15717109      -0.85412930
H        3.42472520      -0.43372038      -0.48254822
H        1.82997734       1.87525384      -0.66370691
H       -0.88347831      -0.56008370       1.48264887
H       -1.45979107      -0.40622142      -1.56414767
H       -2.15548923      -1.65533327      -0.42860172
H       -2.49223222       1.42986181      -0.24622041
H       -3.21316849       0.23586057       0.92677301
16
Frame=12 idx=008092 GeodesicLength=0.5650683006819677 rxn_smarts="[C:1](/[C:2](=[N:3]/[H:11])[O:4][C:5]1([H:12])[C:6]([H:13])([H:14])[C:7]1([H:15])[H:16])([H:8])([H:9])[H:10]>>[C:1]([N:3]([C-:2]=[O+:4][C:5]1([H:12])[C:6]([H:13])([H:14])[C:7]1([H:15])[H:16])[H:11])([H:8])([H:9])[H:10]"
C        2.42660993      -0.58997373      -0.08599924
C        1.22624066       0.59421847       0.63622483
N        2.15843139       1.20886328      -0.01249848
O       -0.01942726       0.89066416       0.21395074
C       -1.03726526      -0.01414519       0.55388966
C       -1.79449803      -0.63517059      -0.56956441
C       -2.41490237       0.46183841       0.26041447
H        2.48551516      -1.22712000       0.79404711
H        1.91992555      -1.16042115      -0.86724083
H        3.46345281      -0.44275240      -0.39150980
H        1.81775005       1.86206400      -0.71883308
H       -0.86256403      -0.58443945       1.45770512
H       -1.49330652      -0.37160910      -1.57501725
H       -2.16715338      -1.64425944      -0.45259406
H       -2.50591552       1.43540622      -0.20245681
H       -3.20289318       0.21683652       0.95948203
16
Frame=13 idx=008092 GeodesicLength=0.6123733020287163 rxn_smarts="[C:1](/[C:2](=[N:3]/[H:11])[O:4][C:5]1([H:12])[C:6]([H:13])([H:14])[C:7]1([H:15])[H:16])([H:8])([H:9])[H:10]>>[C:1]([N:3]([C-:2]=[O+:4][C:5]1([H:12])[C:6]([H:13])([H:14])[C:7]1([H:15])[H:16])[H:11])([H:8])([H:9])[H:10]"
C        2.43963283      -0.58991298      -0.06746510
C        1.22623063       0.61064824       0.61460406
N        2.14940638       1.20524441      -0.06105821
O       -0.02440919       0.89298379       0.20024291
C       -1.03306257      -0.02142586       0.54175201
C       -1.80983343      -0.62047194      -0.57985136
C       -2.41689801       0.45792201       0.28362293
H        2.44032747      -1.22939361       0.81376047
H        1.98504410      -1.16520236      -0.87682791
H        3.49627680      -0.44786951      -0.29785021
H        1.80561001       1.84669353      -0.77448438
H       -0.84133395      -0.60895247       1.43096522
H       -1.52770426      -0.33587358      -1.58507735
H       -2.17965217      -1.63213140      -0.47696093
H       -2.51834322       1.44050486      -0.15749861
H       -3.19129141       0.19723686       0.99212646
16
Frame=14 idx=008092 GeodesicLength=0.6596043727356369 rxn_smarts="[C:1](/[C:2](=[N:3]/[H:11])[O:4][C:5]1([H:12])[C:6]([H:13])([H:14])[C:7]1([H:15])[H:16])([H:8])([H:9])[H:10]>>[C:1]([N:3]([C-:2]=[O+:4][C:5]1([H:12])[C:6]([H:13])([H:14])[C:7]1([H:15])[H:16])[H:11])([H:8])([H:9])[H:10]"
C        2.45272846      -0.58956002      -0.04909302
C        1.22622743       0.62610276       0.59224237
N        2.14044639       1.19912180      -0.10994108
O       -0.02917749       0.89507378       0.18622171
C       -1.02891462      -0.02860791       0.52900662
C       -1.82576136      -0.60540417      -0.58973980
C       -2.41818224       0.45394729       0.30679238
H        2.39595079      -1.23124743       0.82959863
H        2.05413812      -1.17103423      -0.88331380
H        3.52332643      -0.44868612      -0.20230831
H        1.79386789       1.82970802      -0.82958486
H       -0.82034410      -0.63315629       1.40289678
H       -1.56284630      -0.29986815      -1.59400964
H       -2.19335828      -1.61922179      -0.50093730
H       -2.52936930       1.44514896      -0.11215803
H       -3.17873182       0.17768349       1.02432736
16
Frame=15 idx=008092 GeodesicLength=0.70673907312326 rxn_smarts="[C:1](/[C:2](=[N:3]/[H:11])[O:4][C:5]1([H:12])[C:6]([H:13])([H:14])[C:7]1([H:15])[H:16])([H:8])([H:9])[H:10]>>[C:1]([N:3]([C-:2]=[O+:4][C:5]1([H:12])[C:6]([H:13])([H:14])[C:7]1([H:15])[H:16])[H:11])([H:8])([H:9])[H:10]"
C        2.46592638      -0.58890073      -0.03063368
C        1.22621235       0.64064761       0.56904943
N        2.13144934       1.19035298      -0.15936662
O       -0.03376353       0.89693589       0.17181250
C       -1.02478724      -0.03577668       0.51548553
C       -1.84235036      -0.58972671      -0.59941999
C       -2.41870465       0.44983558       0.33009156
H        2.35284250      -1.23245568       0.84213121
H        2.12713468      -1.17802111      -0.88580428
H        3.54436723      -0.44521318      -0.10535296
H        1.78243381       1.81082678      -0.88453798
H       -0.79946124      -0.65738564       1.37310370
H       -1.59894726      -0.26304232      -1.60193061
H       -2.20831675      -1.60530247      -0.52495519
H       -2.53899471       1.44936604      -0.06594559
H       -3.16504054       0.15785962       1.05627297
16
Frame=16 idx=008092 GeodesicLength=0.7537365528124809 rxn_smarts="[C:1](/[C:2](=[N:3]/[H:11])[O:4][C:5]1([H:12])[C:6]([H:13])([H:14])[C:7]1([H:15])[H:16])([H:8])([H:9])[H:10]>>[C:1]([N:3]([C-:2]=[O+:4][C:5]1([H:12])[C:6]([H:13])([H:14])[C:7]1([H:15])[H:16])[H:11])([H:8])([H:9])[H:10]"
C        2.47929543      -0.58789615      -0.01217155
C        1.22616218       0.65411973       0.54503681
N        2.12240626       1.17885018      -0.20910624
O       -0.03816589       0.89847613       0.15696022
C       -1.02074866      -0.04293697       0.50119259
C       -1.85964468      -0.57350156      -0.60879195
C       -2.41844646       0.44561438       0.35344406
H        2.31121004      -1.23331528       0.85120150
H        2.20408690      -1.18568080      -0.88413810
H        3.55928142      -0.43742226      -0.00751460
H        1.77141196       1.79016877      -0.93904497
H       -0.77886530      -0.68154858       1.34164186
H       -1.63599160      -0.22556906      -1.60872896
H       -2.22465613      -1.59038793      -0.54880580
H       -2.54709881       1.45312527      -0.01904829
H       -3.15023664       0.13790411       1.08787343
