13
Frame=0 idx=002041 GeodesicLength=0.0 rxn_smarts="[O:1]=[C:2]1[C:3]([H:7])([H:8])[C:4]([H:9])([H:10])[C:5]([H:11])([H:12])[N:6]1[H:13]>>[O-:1][C:2](=[C+:3][H:8])[N:6]([C:5]([C:4]([H:7])([H:9])[H:10])([H:11])[H:12])[H:13]"
O        2.51884200       0.95995188      -0.39736275
C        1.39198772       0.49358163      -0.27596365
C        1.32606181      -0.89943813      -0.66959436
C       -0.90501141      -0.89459700       0.30590678
C       -1.01923298       0.58428683      -0.00683161
N        0.29153324       1.18783230       0.10095476
H       -0.19778964      -1.37596881      -0.44106523
H        1.75058450      -1.52295216       0.12695009
H       -1.83949333      -1.42559756       0.12048643
H       -0.57372528      -1.08160381       1.32529726
H       -1.43691448       0.71613136      -1.01191772
H       -1.69676466       1.06875773       0.69898826
H        0.38992245       2.18961577       0.12415172
13
Frame=1 idx=002041 GeodesicLength=0.06166037431312849 rxn_smarts="[O:1]=[C:2]1[C:3]([H:7])([H:8])[C:4]([H:9])([H:10])[C:5]([H:11])([H:12])[N:6]1[H:13]>>[O-:1][C:2](=[C+:3][H:8])[N:6]([C:5]([C:4]([H:7])([H:9])[H:10])([H:11])[H:12])[H:13]"
O        2.51838145       0.95459662      -0.41206535
C        1.38810165       0.49852404      -0.28455281
C        1.32084566      -0.89816426      -0.66196180
C       -0.90190190      -0.89399942       0.30881173
C       -1.01923807       0.58429945      -0.00979104
N        0.29047715       1.18941793       0.10189615
H       -0.20115234      -1.39174880      -0.45777099
H        1.76356282      -1.51849291       0.12619857
H       -1.83896702      -1.42320270       0.13048346
H       -0.58277404      -1.07354044       1.33377245
H       -1.42713934       0.71109862      -1.01937951
H       -1.70285817       1.07189450       0.68774658
H        0.39266215       2.18931738       0.15661255
13
Frame=2 idx=002041 GeodesicLength=0.12331279834624889 rxn_smarts="[O:1]=[C:2]1[C:3]([H:7])([H:8])[C:4]([H:9])([H:10])[C:5]([H:11])([H:12])[N:6]1[H:13]>>[O-:1][C:2](=[C+:3][H:8])[N:6]([C:5]([C:4]([H:7])([H:9])[H:10])([H:11])[H:12])[H:13]"
O        2.51761494       0.94930107      -0.42747856
C        1.38415195       0.50344924      -0.29313428
C        1.31559456      -0.89688784      -0.65382608
C       -0.89874602      -0.89332763       0.31182571
C       -1.01925943       0.58437877      -0.01269009
N        0.28941762       1.19110775       0.10264802
H       -0.20424606      -1.40740646      -0.47435106
H        1.77672592      -1.51385284       0.12543974
H       -1.83809282      -1.42088324       0.13974516
H       -0.59247053      -1.06508970       1.34240776
H       -1.41751197       0.70609500      -1.02659590
H       -1.70880166       1.07507187       0.67658081
H        0.39562350       2.18804401       0.18942877
13
Frame=3 idx=002041 GeodesicLength=0.18495257148216931 rxn_smarts="[O:1]=[C:2]1[C:3]([H:7])([H:8])[C:4]([H:9])([H:10])[C:5]([H:11])([H:12])[N:6]1[H:13]>>[O-:1][C:2](=[C+:3][H:8])[N:6]([C:5]([C:4]([H:7])([H:9])[H:10])([H:11])[H:12])[H:13]"
O        2.51656729       0.94403160      -0.44340580
C        1.38014366       0.50835245      -0.30164791
C        1.31031156      -0.89557313      -0.64522294
C       -0.89554631      -0.89256862       0.31498234
C       -1.01930192       0.58453088      -0.01551166
N        0.28834584       1.19293318       0.10319302
H       -0.20703891      -1.42292890      -0.49081431
H        1.79005641      -1.50907086       0.12455580
H       -1.83688041      -1.41865041       0.14831220
H       -0.60278238      -1.05626085       1.35118837
H       -1.40806094       0.70111205      -1.03354789
H       -1.71458958       1.07830216       0.66552291
H        0.39877570       2.18579045       0.22239587
13
Frame=4 idx=002041 GeodesicLength=0.24655476260284975 rxn_smarts="[O:1]=[C:2]1[C:3]([H:7])([H:8])[C:4]([H:9])([H:10])[C:5]([H:11])([H:12])[N:6]1[H:13]>>[O-:1][C:2](=[C+:3][H:8])[N:6]([C:5]([C:4]([H:7])([H:9])[H:10])([H:11])[H:12])[H:13]"
O        2.51526681       0.93874120      -0.45959077
C        1.37607865       0.51322683      -0.31001748
C        1.30498795      -0.89417775      -0.63619277
C       -0.89230075      -0.89170977       0.31831357
C       -1.01936712       0.58475900      -0.01822434
N        0.28725389       1.19491777       0.10354234
H       -0.20950482      -1.43829177      -0.50717889
H        1.80352981      -1.50419475       0.12340737
H       -1.83533268      -1.41650991       0.15622299
H       -0.61365997      -1.04707979       1.36009354
H       -1.39881599       0.69615012      -1.04020012
H       -1.72020789       1.08158501       0.65462131
H        0.40207212       2.18258380       0.25520324
13
Frame=5 idx=002041 GeodesicLength=0.30813603978421306 rxn_smarts="[O:1]=[C:2]1[C:3]([H:7])([H:8])[C:4]([H:9])([H:10])[C:5]([H:11])([H:12])[N:6]1[H:13]>>[O-:1][C:2](=[C+:3][H:8])[N:6]([C:5]([C:4]([H:7])([H:9])[H:10])([H:11])[H:12])[H:13]"
O        2.51371460       0.93342953      -0.47603874
C        1.37196715       0.51806800      -0.31820784
C        1.29963410      -0.89269159      -0.62674331
C       -0.88902117      -0.89073832       0.32185249
C       -1.01945642       0.58506765      -0.02083723
N        0.28614035       1.19707682       0.10370756
H       -0.21161050      -1.45350620      -0.52343773
H        1.81713780      -1.49924861       0.12192964
H       -1.83346724      -1.41446994       0.16351983
H       -0.62510548      -1.03753896       1.36912156
H       -1.38974879       0.69118742      -1.04658072
H       -1.72568533       1.08494061       0.64384267
H        0.40550093       2.17842358       0.28787181
13
Frame=6 idx=002041 GeodesicLength=0.3696926698735334 rxn_smarts="[O:1]=[C:2]1[C:3]([H:7])([H:8])[C:4]([H:9])([H:10])[C:5]([H:11])([H:12])[N:6]1[H:13]>>[O-:1][C:2](=[C+:3][H:8])[N:6]([C:5]([C:4]([H:7])([H:9])[H:10])([H:11])[H:12])[H:13]"
O        2.51191988       0.92807534      -0.49263233
C        1.36781614       0.52287365      -0.32614678
C        1.29424314      -0.89108885      -0.61689376
C       -0.88571326      -0.88964366       0.32563231
C       -1.01956669       0.58546046      -0.02332993
N        0.28500584       1.19942281       0.10374667
H       -0.21332928      -1.46856560      -0.53959932
H        1.83086877      -1.49428013       0.12000421
H       -1.83129332      -1.41253511       0.17023883
H       -0.63710199      -1.02766041       1.37826538
H       -1.38083592       0.68622107      -1.05268312
H       -1.73103503       1.08837305       0.63319129
H        0.40902171       2.17334738       0.32020656
13
Frame=7 idx=002041 GeodesicLength=0.4312318356540973 rxn_smarts="[O:1]=[C:2]1[C:3]([H:7])([H:8])[C:4]([H:9])([H:10])[C:5]([H:11])([H:12])[N:6]1[H:13]>>[O-:1][C:2](=[C+:3][H:8])[N:6]([C:5]([C:4]([H:7])([H:9])[H:10])([H:11])[H:12])[H:13]"
O        2.50982083       0.92270527      -0.50960527
C        1.36362262       0.52763432      -0.33383898
C        1.28882996      -0.88937688      -0.60659571
C       -0.88239220      -0.88840281       0.32967453
C       -1.01969168       0.58593831      -0.02574337
N        0.28385120       1.20194903       0.10366505
H       -0.21461804      -1.48348783      -0.55564014
H        1.84472293      -1.48925734       0.11766531
H       -1.82882271      -1.41069527       0.17640372
H       -0.64968293      -1.01740703       1.38752124
H       -1.37201841       0.68122136      -1.05857109
H       -1.73628610       1.09190623       0.62257052
H        0.41266454       2.16727263       0.35249418
13
Frame=8 idx=002041 GeodesicLength=0.49275011586330575 rxn_smarts="[O:1]=[C:2]1[C:3]([H:7])([H:8])[C:4]([H:9])([H:10])[C:5]([H:11])([H:12])[N:6]1[H:13]>>[O-:1][C:2](=[C+:3][H:8])[N:6]([C:5]([C:4]([H:7])([H:9])[H:10])([H:11])[H:12])[H:13]"
O        2.50746489       0.91728058      -0.52671316
C        1.35940657       0.53234805      -0.34118538
C        1.28339582      -0.88753277      -0.59587836
C       -0.87906463      -0.88702132       0.33400430
C       -1.01982808       0.58650594      -0.02801554
N        0.28268567       1.20466616       0.10356013
H       -0.21545343      -1.49825949      -0.57160480
H        1.85867180      -1.48426322       0.11476878
H       -1.82606699      -1.40896660       0.18203155
H       -0.66282392      -1.00685354       1.39686911
H       -1.36329839       0.67621885      -1.06418164
H       -1.74143306       1.09553096       0.61206160
H        0.41634376       2.16034640       0.38428340
13
Frame=9 idx=002041 GeodesicLength=0.5542376448052102 rxn_smarts="[O:1]=[C:2]1[C:3]([H:7])([H:8])[C:4]([H:9])([H:10])[C:5]([H:11])([H:12])[N:6]1[H:13]>>[O-:1][C:2](=[C+:3][H:8])[N:6]([C:5]([C:4]([H:7])([H:9])[H:10])([H:11])[H:12])[H:13]"
O        2.50488181       0.91176837      -0.54378095
C        1.35518117       0.53700769      -0.34811692
C        1.27794145      -0.88554584      -0.58475773
C       -0.87573455      -0.88550452       0.33864197
C       -1.01996871       0.58716228      -0.03010088
N        0.28151797       1.20756789       0.10350676
H       -0.21581104      -1.51286816      -0.58753990
H        1.87266756      -1.47936192       0.11121646
H       -1.82302858      -1.40736335       0.18713878
H       -0.67650271      -0.99606484       1.40629094
H       -1.35467140       0.67123517      -1.06947029
H       -1.74646387       1.09923423       0.60172644
H        0.41999090       2.15273301       0.41524533
13
Frame=10 idx=002041 GeodesicLength=0.6156818108667139 rxn_smarts="[O:1]=[C:2]1[C:3]([H:7])([H:8])[C:4]([H:9])([H:10])[C:5]([H:11])([H:12])[N:6]1[H:13]>>[O-:1][C:2](=[C+:3][H:8])[N:6]([C:5]([C:4]([H:7])([H:9])[H:10])([H:11])[H:12])[H:13]"
O        2.50211261       0.90611294      -0.56055473
C        1.35097145       0.54159926      -0.35450402
C        1.27246167      -0.88339694      -0.57325534
C       -0.87240514      -0.88386435       0.34360615
C       -1.02009437       0.58789761      -0.03190928
N        0.28036787       1.21061876       0.10366065
H       -0.21566410      -1.52727606      -0.60351539
H        1.88664721      -1.47465252       0.10685060
H       -1.81970361      -1.40589281       0.19172440
H       -0.69071394      -0.98515439       1.41576205
H       -1.34609907       0.66631417      -1.07434486
H       -1.75135771       1.10297537       0.59168285
H        0.42347714       2.14471897       0.44479692
13
Frame=11 idx=002041 GeodesicLength=0.6770944092456043 rxn_smarts="[O:1]=[C:2]1[C:3]([H:7])([H:8])[C:4]([H:9])([H:10])[C:5]([H:11])([H:12])[N:6]1[H:13]>>[O-:1][C:2](=[C+:3][H:8])[N:6]([C:5]([C:4]([H:7])([H:9])[H:10])([H:11])[H:12])[H:13]"
O        2.49912474       0.90033106      -0.57719769
C        1.34678760       0.54610932      -0.36032671
C        1.26697229      -0.88111656      -0.56132543
C       -0.86909559      -0.88210459       0.34891376
C       -1.02020561       0.58871211      -0.03345362
N        0.27924295       1.21379631       0.10406794
H       -0.21497687      -1.54150961      -0.61954469
H        1.90060978      -1.47014994       0.10167968
H       -1.81610795      -1.40457102       0.19579592
H       -0.70548821      -0.97413127       1.42528081
H       -1.33754297       0.66144659      -1.07883802
H       -1.75614256       1.10677320       0.58187706
H        0.42682242       2.13641440       0.47307099
13
Frame=12 idx=002041 GeodesicLength=0.7384841724081166 rxn_smarts="[O:1]=[C:2]1[C:3]([H:7])([H:8])[C:4]([H:9])([H:10])[C:5]([H:11])([H:12])[N:6]1[H:13]>>[O-:1][C:2](=[C+:3][H:8])[N:6]([C:5]([C:4]([H:7])([H:9])[H:10])([H:11])[H:12])[H:13]"
O        2.49586843       0.89442504      -0.59387886
C        1.34263626       0.55052933      -0.36557360
C        1.26148579      -0.87871970      -0.54891023
C       -0.86582112      -0.88021463       0.35458567
C       -1.02029588       0.58960140      -0.03474999
N        0.27814948       1.21707862       0.10475428
H       -0.21370164      -1.55557263      -0.63563697
H        1.91454674      -1.46584671       0.09570134
H       -1.81224236      -1.40339854       0.19936607
H       -0.72088045      -0.96298615       1.43484689
H       -1.32894984       0.65661246      -1.08297982
H       -1.76083581       1.11063371       0.57225331
H        0.43004040       2.12785778       0.50022192
13
Frame=13 idx=002041 GeodesicLength=0.7998634748153343 rxn_smarts="[O:1]=[C:2]1[C:3]([H:7])([H:8])[C:4]([H:9])([H:10])[C:5]([H:11])([H:12])[N:6]1[H:13]>>[O-:1][C:2](=[C+:3][H:8])[N:6]([C:5]([C:4]([H:7])([H:9])[H:10])([H:11])[H:12])[H:13]"
O        2.49232764       0.88838029      -0.61059982
C        1.33853819       0.55485206      -0.37015308
C        1.25600313      -0.87621652      -0.53598075
C       -0.86259384      -0.87819821       0.36065228
C       -1.02036087       0.59056468      -0.03577692
N        0.27709615       1.22044601       0.10581290
H       -0.21179791      -1.56947034      -0.65181771
H        1.92845005      -1.46182037       0.08879348
H       -1.80810447      -1.40239310       0.20244792
H       -0.73692486      -0.95175342       1.44446631
H       -1.32026677       0.65181288      -1.08676588
H       -1.76545657       1.11456202       0.56279882
H        0.43309013       2.11923404       0.52612244
13
Frame=14 idx=002041 GeodesicLength=0.8612419818923879 rxn_smarts="[O:1]=[C:2]1[C:3]([H:7])([H:8])[C:4]([H:9])([H:10])[C:5]([H:11])([H:12])[N:6]1[H:13]>>[O-:1][C:2](=[C+:3][H:8])[N:6]([C:5]([C:4]([H:7])([H:9])[H:10])([H:11])[H:12])[H:13]"
O        2.48841549       0.88220237      -0.62762795
C        1.33448483       0.55906924      -0.37411216
C        1.25054459      -0.87362471      -0.52246814
C       -0.85942531      -0.87602420       0.36713791
C       -1.02040159       0.59160124      -0.03659788
N        0.27607124       1.22389778       0.10717637
H       -0.20919629      -1.58322077      -0.66806715
H        1.94230291      -1.45800732       0.08099940
H       -1.80367930      -1.40154493       0.20507413
H       -0.75367231      -0.94034653       1.45413900
H       -1.31145628       0.64698970      -1.09026818
H       -1.77002958       1.11858508       0.55339049
H        0.43604159       2.11042304       0.55122418
13
Frame=15 idx=002041 GeodesicLength=0.9226045051108742 rxn_smarts="[O:1]=[C:2]1[C:3]([H:7])([H:8])[C:4]([H:9])([H:10])[C:5]([H:11])([H:12])[N:6]1[H:13]>>[O-:1][C:2](=[C+:3][H:8])[N:6]([C:5]([C:4]([H:7])([H:9])[H:10])([H:11])[H:12])[H:13]"
O        2.48420353       0.87581895      -0.64460065
C        1.33051749       0.56316621      -0.37729718
C        1.24509957      -0.87093785      -0.50840113
C       -0.85631348      -0.87371553       0.37407231
C       -1.02040761       0.59269614      -0.03711894
N        0.27508948       1.22739018       0.10898045
H       -0.20586471      -1.59678121      -0.68447715
H        1.95601087      -1.45457200       0.07206696
H       -1.79894455      -1.40088229       0.20726534
H       -0.77110569      -0.92888892       1.46385219
H       -1.30249941       0.64217319      -1.09338657
H       -1.77453437       1.12266097       0.54415193
H        0.43874888       2.10187214       0.57489243
13
Frame=16 idx=002041 GeodesicLength=0.9839626048633607 rxn_smarts="[O:1]=[C:2]1[C:3]([H:7])([H:8])[C:4]([H:9])([H:10])[C:5]([H:11])([H:12])[N:6]1[H:13]>>[O-:1][C:2](=[C+:3][H:8])[N:6]([C:5]([C:4]([H:7])([H:9])[H:10])([H:11])[H:12])[H:13]"
O        2.47961793       0.86923689      -0.66175658
C        1.32663601       0.56714277      -0.37975421
C        1.23969247      -0.86818332      -0.49370241
C       -0.85327114      -0.87125214       0.38148105
C       -1.02038526       0.59385408      -0.03739818
N        0.27414439       1.23093831       0.11115676
H       -0.20173247      -1.61017469      -0.70104370
H        1.96955225      -1.45146896       0.06203379
H       -1.79388717      -1.40041400       0.20905354
H       -0.78926939      -0.91731125       1.47360791
H       -1.29338473       0.63732056      -1.09618727
H       -1.77899443       1.12682487       0.53497144
H        0.44128154       2.09348687       0.59753785
