13
Frame=0 idx=009463 GeodesicLength=0.0 rxn_smarts="[O:1]([C@@:2]1([H:9])[C:3]([H:10])([H:11])[C@:4]1([O:5][C:6](=[O:7])[H:13])[H:12])[H:8]>>[C:6](=[O:7])([H:12])[H:13].[O:1]([C@@:2]1([H:9])[C:3]([H:10])([H:11])[C:4]1=[O:5])[H:8]"
O       -1.57814703       1.22201060       0.96872093
C       -1.02815452       0.00392941       0.62823761
C       -1.17198675      -0.56789389      -0.80976263
C        0.10018858       0.01465277      -0.31978605
O        0.80231825       1.01378931      -0.72763294
C        2.05821203      -0.16308278       0.15453175
O        2.41484429       0.10300982       1.23395986
H       -0.96013312       1.91064987       0.69945165
H       -1.09801409      -0.73767156       1.41663863
H       -1.32070226      -1.63845654      -0.87048576
H       -1.69039902       0.02359510      -1.55608904
H        0.97809677      -0.93848810       0.01993240
H        2.49387684      -0.24604404      -0.83771646
13
Frame=1 idx=009463 GeodesicLength=0.10284689631000615 rxn_smarts="[O:1]([C@@:2]1([H:9])[C:3]([H:10])([H:11])[C@:4]1([O:5][C:6](=[O:7])[H:13])[H:12])[H:8]>>[C:6](=[O:7])([H:12])[H:13].[O:1]([C@@:2]1([H:9])[C:3]([H:10])([H:11])[C:4]1=[O:5])[H:8]"
O       -1.54465873       1.22604487       0.96558727
C       -1.02781709      -0.00376147       0.61446613
C       -1.20351425      -0.57239446      -0.81838345
C        0.08751665      -0.01557056      -0.35149631
O        0.79788459       0.96955678      -0.78277796
C        2.05979469      -0.13814397       0.16855125
O        2.36141750       0.17114665       1.25557312
H       -0.88053602       1.89365374       0.75982589
H       -1.09612940      -0.74417061       1.40449242
H       -1.37018682      -1.64024053      -0.88030856
H       -1.72796125       0.03000337      -1.55168646
H        0.99601559      -0.95760621       0.01588106
H        2.54817454      -0.21851760      -0.79972441
13
Frame=2 idx=009463 GeodesicLength=0.2050123115365814 rxn_smarts="[O:1]([C@@:2]1([H:9])[C:3]([H:10])([H:11])[C@:4]1([O:5][C:6](=[O:7])[H:13])[H:12])[H:8]>>[C:6](=[O:7])([H:12])[H:13].[O:1]([C@@:2]1([H:9])[C:3]([H:10])([H:11])[C:4]1=[O:5])[H:8]"
O       -1.51008877       1.23057673       0.96144758
C       -1.02812631      -0.01114469       0.60154928
C       -1.23377306      -0.57568005      -0.82612460
C        0.07532453      -0.04701376      -0.37997219
O        0.79463381       0.92376676      -0.83269206
C        2.06167561      -0.11332593       0.18074674
O        2.31075101       0.23617447       1.27126916
H       -0.80527495       1.87179426       0.81421162
H       -1.09737147      -0.75028532       1.39303525
H       -1.42002128      -1.64020867      -0.88931808
H       -1.76124644       0.03868521      -1.54724778
H        1.01487894      -0.97660510       0.01584138
H        2.59863838      -0.18673390      -0.76274630
13
Frame=3 idx=009463 GeodesicLength=0.3066216662816942 rxn_smarts="[O:1]([C@@:2]1([H:9])[C:3]([H:10])([H:11])[C@:4]1([O:5][C:6](=[O:7])[H:13])[H:12])[H:8]>>[C:6](=[O:7])([H:12])[H:13].[O:1]([C@@:2]1([H:9])[C:3]([H:10])([H:11])[C:4]1=[O:5])[H:8]"
O       -1.47501154       1.23508335       0.95656961
C       -1.02887331      -0.01825200       0.58955046
C       -1.26276144      -0.57772436      -0.83300511
C        0.06361423      -0.07958111      -0.40539873
O        0.79259013       0.87643264      -0.87783181
C        2.06405455      -0.08882171       0.19118689
O        2.26292744       0.29776265       1.28188316
H       -0.73497735       1.84636329       0.86277841
H       -1.10122804      -0.75604884       1.38234232
H       -1.47012340      -1.63823910      -0.89754147
H       -1.79045465       0.04952896      -1.54278739
H        1.03462899      -0.99553151       0.01935073
H        2.64561438      -0.15097229      -0.72709708
13
Frame=4 idx=009463 GeodesicLength=0.4078084691477609 rxn_smarts="[O:1]([C@@:2]1([H:9])[C:3]([H:10])([H:11])[C@:4]1([O:5][C:6](=[O:7])[H:13])[H:12])[H:8]>>[C:6](=[O:7])([H:12])[H:13].[O:1]([C@@:2]1([H:9])[C:3]([H:10])([H:11])[C:4]1=[O:5])[H:8]"
O       -1.43994295       1.23929729       0.95103250
C       -1.02995499      -0.02509612       0.57846324
C       -1.29045140      -0.57860140      -0.83911215
C        0.05233777      -0.11318971      -0.42797710
O        0.79171821       0.82757299      -0.91865004
C        2.06703559      -0.06476610       0.19990797
O        2.21794156       0.35578213       1.28812468
H       -0.66975820       1.81844243       0.90627574
H       -1.10737199      -0.76143118       1.37247764
H       -1.52032978      -1.63435635      -0.90503436
H       -1.81571413       0.06228111      -1.53845762
H        1.05519032      -1.01443889       0.02604743
H        2.68930000      -0.11149619      -0.69309792
13
Frame=5 idx=009463 GeodesicLength=0.5086436013020955 rxn_smarts="[O:1]([C@@:2]1([H:9])[C:3]([H:10])([H:11])[C@:4]1([O:5][C:6](=[O:7])[H:13])[H:12])[H:8]>>[C:6](=[O:7])([H:12])[H:13].[O:1]([C@@:2]1([H:9])[C:3]([H:10])([H:11])[C:4]1=[O:5])[H:8]"
O       -1.40519209       1.24305004       0.94482475
C       -1.03131115      -0.03168989       0.56821278
C       -1.31683112      -0.57842814      -0.84456276
C        0.04140574      -0.14774513      -0.44789272
O        0.79195373       0.77722021      -0.95548344
C        2.07063685      -0.04121067       0.20694260
O        2.17580420       0.41026218       1.29060097
H       -0.60943372       1.78881356       0.94561485
H       -1.11556888      -0.76634525       1.36341356
H       -1.57047806      -1.62861961      -0.91189012
H       -1.83713411       0.07659722      -1.53442957
H        1.07642063      -1.03333710       0.03565738
H        2.72972797      -0.06856741      -0.66100829
13
Frame=6 idx=009463 GeodesicLength=0.6092058832429711 rxn_smarts="[O:1]([C@@:2]1([H:9])[C:3]([H:10])([H:11])[C@:4]1([O:5][C:6](=[O:7])[H:13])[H:12])[H:8]>>[C:6](=[O:7])([H:12])[H:13].[O:1]([C@@:2]1([H:9])[C:3]([H:10])([H:11])[C:4]1=[O:5])[H:8]"
O       -1.37100418       1.24629379       0.93793954
C       -1.03290014      -0.03803250       0.55873720
C       -1.34189512      -0.57728582      -0.84943458
C        0.03074298      -0.18320456      -0.46533249
O        0.79323798       0.72531662      -0.98866882
C        2.07491485      -0.01822920       0.21233060
O        2.13635875       0.46112599       1.28984996
H       -0.55383480       1.75803860       0.98153124
H       -1.12561313      -0.77071205       1.35515495
H       -1.62043314      -1.62104321      -0.91813662
H       -1.85485505       0.09222767      -1.53082717
H        1.09830937      -1.05223702       0.04789445
H        2.76697164      -0.02225831      -0.63103826
13
Frame=7 idx=009463 GeodesicLength=0.709521592868017 rxn_smarts="[O:1]([C@@:2]1([H:9])[C:3]([H:10])([H:11])[C@:4]1([O:5][C:6](=[O:7])[H:13])[H:12])[H:8]>>[C:6](=[O:7])([H:12])[H:13].[O:1]([C@@:2]1([H:9])[C:3]([H:10])([H:11])[C:4]1=[O:5])[H:8]"
O       -1.33745597       1.24901208       0.93038092
C       -1.03469198      -0.04412886       0.54995383
C       -1.36563394      -0.57526947      -0.85382947
C        0.02025882      -0.21951794      -0.48045547
O        0.79549661       0.67183230      -1.01844300
C        2.07985259       0.00417316       0.21610960
O        2.09948608       0.50842342       1.28633741
H       -0.50267857       1.72650687       1.01474752
H       -1.13735258      -0.77444873       1.34765076
H       -1.67004972      -1.61166053      -0.92386438
H       -1.86897926       0.10890851      -1.52776834
H        1.12080392      -1.07112137       0.06256098
H        2.80094399       0.02729055      -0.60338035
13
Frame=8 idx=009463 GeodesicLength=0.809643795738425 rxn_smarts="[O:1]([C@@:2]1([H:9])[C:3]([H:10])([H:11])[C@:4]1([O:5][C:6](=[O:7])[H:13])[H:12])[H:8]>>[C:6](=[O:7])([H:12])[H:13].[O:1]([C@@:2]1([H:9])[C:3]([H:10])([H:11])[C:4]1=[O:5])[H:8]"
O       -1.30453478       1.25123137       0.92218589
C       -1.03667475      -0.04998515       0.54178844
C       -1.38803346      -0.57246601      -0.85786178
C        0.00986642      -0.25664752      -0.49340578
O        0.79865960       0.61674076      -1.04500722
C        2.08541208       0.02602727       0.21831141
O        2.06506111       0.55229847       1.28046724
H       -0.45566247       1.69447383       1.04595607
H       -1.15068855      -0.77749460       1.34084978
H       -1.71918315      -1.60051385      -0.92920126
H       -1.87958270       0.12641650      -1.52537285
H        1.14386763      -1.08996995       0.07953039
H        2.83149303       0.07988887      -0.57824033
13
Frame=9 idx=009463 GeodesicLength=0.9095879905816818 rxn_smarts="[O:1]([C@@:2]1([H:9])[C:3]([H:10])([H:11])[C@:4]1([O:5][C:6](=[O:7])[H:13])[H:12])[H:8]>>[C:6](=[O:7])([H:12])[H:13].[O:1]([C@@:2]1([H:9])[C:3]([H:10])([H:11])[C:4]1=[O:5])[H:8]"
O       -1.27212213       1.25294997       0.91339668
C       -1.03883280      -0.05561630       0.53415493
C       -1.40907943      -0.56894196      -0.86163840
C       -0.00052469      -0.29456049      -0.50429814
O        0.80265016       0.56000315      -1.06848687
C        2.09152015       0.04740956       0.21896926
O        2.03296275       0.59297514       1.27256239
H       -0.41246934       1.66205219       1.07577161
H       -1.16554411      -0.77979656       1.33465173
H       -1.76770751      -1.58761178      -0.93429358
H       -1.88671305       0.14455632      -1.52372236
H        1.16746297      -1.10872044       0.09873489
H        2.85839705       0.13530120      -0.55580213
13
Frame=10 idx=009463 GeodesicLength=1.0094057344374807 rxn_smarts="[O:1]([C@@:2]1([H:9])[C:3]([H:10])([H:11])[C@:4]1([O:5][C:6](=[O:7])[H:13])[H:12])[H:8]>>[C:6](=[O:7])([H:12])[H:13].[O:1]([C@@:2]1([H:9])[C:3]([H:10])([H:11])[C:4]1=[O:5])[H:8]"
O       -1.24009637       1.25419261       0.90408097
C       -1.04117964      -0.06103495       0.52699642
C       -1.42875804      -0.56474147      -0.86527059
C       -0.01098860      -0.33326130      -0.51321952
O        0.80741130       0.50153673      -1.08899641
C        2.09814415       0.06839929       0.21810912
O        2.00307683       0.63069151       1.26288693
H       -0.37281811       1.62923806       1.10474417
H       -1.18191605      -0.78132173       1.32899377
H       -1.81551954      -1.57294033      -0.93930634
H       -1.89041377       0.16320544      -1.52290925
H        1.19161821      -1.12729135       0.12018431
H        2.88143964       0.19332751      -0.53629358
13
Frame=11 idx=009463 GeodesicLength=1.109111746137435 rxn_smarts="[O:1]([C@@:2]1([H:9])[C:3]([H:10])([H:11])[C@:4]1([O:5][C:6](=[O:7])[H:13])[H:12])[H:8]>>[C:6](=[O:7])([H:12])[H:13].[O:1]([C@@:2]1([H:9])[C:3]([H:10])([H:11])[C:4]1=[O:5])[H:8]"
O       -1.20824221       1.25492745       0.89435411
C       -1.04371093      -0.06627061       0.52025563
C       -1.44703767      -0.55988878      -0.86886435
C       -0.02160317      -0.37275511      -0.52023166
O        0.81287998       0.44125873      -1.10657730
C        2.10518377       0.08912588       0.21574492
O        1.97527255       0.66578579       1.25162876
H       -0.33644174       1.59595896       1.13334896
H       -1.19980403      -0.78206015       1.32376950
H       -1.86251377      -1.55645616      -0.94444167
H       -1.89066539       0.18227024      -1.52297919
H        1.21634259      -1.14556217       0.14393371
H        2.90034002       0.25366593      -0.51994141
13
Frame=12 idx=009463 GeodesicLength=1.2087389040736636 rxn_smarts="[O:1]([C@@:2]1([H:9])[C:3]([H:10])([H:11])[C@:4]1([O:5][C:6](=[O:7])[H:13])[H:12])[H:8]>>[C:6](=[O:7])([H:12])[H:13].[O:1]([C@@:2]1([H:9])[C:3]([H:10])([H:11])[C:4]1=[O:5])[H:8]"
O       -1.17632101       1.25509289       0.88437025
C       -1.04643289      -0.07136218       0.51389157
C       -1.46387781      -0.55438645      -0.87252685
C       -0.03244385      -0.41306388      -0.52537043
O        0.81900321       0.37906167      -1.12123036
C        2.11252958       0.10973667       0.21187523
O        1.94942059       0.69865447       1.23890600
H       -0.30310229       1.56206379       1.16201222
H       -1.21924980      -0.78202095       1.31887289
H       -1.90859406      -1.53808443      -0.94992995
H       -1.88741367       0.20170315      -1.52396315
H        1.24166553      -1.16337792       0.17009764
H        2.91481646       0.31598318      -0.50700506
13
Frame=13 idx=009463 GeodesicLength=1.3083034947835905 rxn_smarts="[O:1]([C@@:2]1([H:9])[C:3]([H:10])([H:11])[C@:4]1([O:5][C:6](=[O:7])[H:13])[H:12])[H:8]>>[C:6](=[O:7])([H:12])[H:13].[O:1]([C@@:2]1([H:9])[C:3]([H:10])([H:11])[C:4]1=[O:5])[H:8]"
O       -1.14407003       1.25455622       0.87436433
C       -1.04934470      -0.07637221       0.50788094
C       -1.47921889      -0.54821174      -0.87635546
C       -0.04359209      -0.45421482      -0.52864591
O        0.82572927       0.31482636      -1.13288829
C        2.12002710       0.13040223       0.20648458
O        1.92536812       0.72974843       1.22476853
H       -0.27257138       1.52737627       1.19102600
H       -1.24030081      -0.78125335       1.31417616
H       -1.95366275      -1.51770828      -0.95603847
H       -1.88054833       0.22149923      -1.52584293
H        1.26760912      -1.18053592       0.19882674
H        2.92457539       0.37988758      -0.49775622
13
Frame=14 idx=009463 GeodesicLength=1.4078623609460896 rxn_smarts="[O:1]([C@@:2]1([H:9])[C:3]([H:10])([H:11])[C@:4]1([O:5][C:6](=[O:7])[H:13])[H:12])[H:8]>>[C:6](=[O:7])([H:12])[H:13].[O:1]([C@@:2]1([H:9])[C:3]([H:10])([H:11])[C:4]1=[O:5])[H:8]"
O       -1.11125961       1.25315272       0.86462819
C       -1.05246757      -0.08137350       0.50222975
C       -1.49298621      -0.54131761      -0.88044871
C       -0.05512776      -0.49625361      -0.53004094
O        0.83302447       0.24840793      -1.14143999
C        2.12753313       0.15128241       0.19952978
O        1.90296248       0.75953894       1.20920015
H       -0.24463785       1.49166034       1.22062336
H       -1.26306748      -0.77982583       1.30956889
H       -1.99761011      -1.49517440      -0.96306587
H       -1.86991360       0.24170632      -1.52859242
H        1.29422023      -1.19680114       0.23034189
H        2.92932988       0.44499743      -0.49253407
13
Frame=15 idx=009463 GeodesicLength=1.5074539689027506 rxn_smarts="[O:1]([C@@:2]1([H:9])[C:3]([H:10])([H:11])[C@:4]1([O:5][C:6](=[O:7])[H:13])[H:12])[H:8]>>[C:6](=[O:7])([H:12])[H:13].[O:1]([C@@:2]1([H:9])[C:3]([H:10])([H:11])[C:4]1=[O:5])[H:8]"
O       -1.07769580       1.25063650       0.85555746
C       -1.05580872      -0.08646329       0.49696757
C       -1.50507290      -0.53363240      -0.88488345
C       -0.06714303      -0.53921445      -0.52952215
O        0.84085251       0.17967610      -1.14668254
C        2.13484805       0.17252728       0.19095042
O        1.88199723       0.78847210       1.19214285
H       -0.21905238       1.45471947       1.25082295
H       -1.28763684      -0.77784685       1.30492149
H       -2.04029368      -1.47028541      -0.97133561
H       -1.85528350       0.26240111      -1.53211612
H        1.32152744      -1.21190096       0.26485713
H        2.92876162       0.51091080      -0.49168001
13
Frame=16 idx=009463 GeodesicLength=1.6071319066670087 rxn_smarts="[O:1]([C@@:2]1([H:9])[C:3]([H:10])([H:11])[C@:4]1([O:5][C:6](=[O:7])[H:13])[H:12])[H:8]>>[C:6](=[O:7])([H:12])[H:13].[O:1]([C@@:2]1([H:9])[C:3]([H:10])([H:11])[C:4]1=[O:5])[H:8]"
O       -1.04328175       1.24672165       0.84762124
C       -1.05937747      -0.09174695       0.49214973
C       -1.51534350      -0.52506921      -0.88971844
C       -0.07973928      -0.58310913      -0.52705191
O        0.84918141       0.10853910      -1.14833286
C        2.14175025       0.19424919       0.18066469
O        1.86223143       0.81690798       1.17352424
H       -0.19550567       1.41639930       1.28146983
H       -1.31408893      -0.77544189       1.30010927
H       -2.08152002      -1.44282105      -0.98117985
H       -1.83638254       0.28367194      -1.53627233
H        1.34955711      -1.22554273       0.30256467
H        2.92251896       0.57724181      -0.49554828
