12
Frame=0 idx=003204 GeodesicLength=0.0 rxn_smarts="[C:1]([c:2]1[c:3]([H:10])[c:4]([H:11])[n:5][n:6]1[H:12])([H:7])([H:8])[H:9]>>[C:1]([c+:2]1[c:3]([H:10])[c-:4][n:5]([H:11])[n:6]1[H:12])([H:7])([H:8])[H:9]"
C       -1.68788133      -0.18385942       0.02618359
C       -0.20172608      -0.09541061      -0.01482990
C        0.76535685      -1.05994187       0.09572814
C        2.03508648      -0.46192501      -0.14373033
N        1.77711112       0.89146229      -0.34300923
N        0.43348442       1.07996386      -0.20336104
H       -2.10587078       0.51281689       0.75520867
H       -2.11842153       0.04885467      -0.94998875
H       -1.99378509      -1.19145779       0.30013900
H        0.58397933      -2.10469559       0.29417617
H        2.48521301       0.58324793       0.57017110
H        0.02745365       1.98094464      -0.38668745
12
Frame=1 idx=003204 GeodesicLength=0.045644307636800927 rxn_smarts="[C:1]([c:2]1[c:3]([H:10])[c:4]([H:11])[n:5][n:6]1[H:12])([H:7])([H:8])[H:9]>>[C:1]([c+:2]1[c:3]([H:10])[c-:4][n:5]([H:11])[n:6]1[H:12])([H:7])([H:8])[H:9]"
C       -1.69241187      -0.18531990       0.02141138
C       -0.20603922      -0.09544258      -0.00942812
C        0.76174803      -1.05846516       0.10846203
C        2.02942051      -0.45996665      -0.13599972
N        1.77171134       0.88828816      -0.34009707
N        0.42973227       1.07956567      -0.19975450
H       -2.11519440       0.50425735       0.75449330
H       -2.11808655       0.05556630      -0.95489856
H       -1.99900982      -1.19560812       0.28459629
H        0.58122123      -2.10376192       0.30469504
H        2.53222187       0.58871533       0.54307642
H        0.02468659       1.98217151      -0.37655649
12
Frame=2 idx=003204 GeodesicLength=0.09119182275652711 rxn_smarts="[C:1]([c:2]1[c:3]([H:10])[c:4]([H:11])[n:5][n:6]1[H:12])([H:7])([H:8])[H:9]>>[C:1]([c+:2]1[c:3]([H:10])[c-:4][n:5]([H:11])[n:6]1[H:12])([H:7])([H:8])[H:9]"
C       -1.69700703      -0.18678380       0.01680048
C       -0.21049133      -0.09553869      -0.00422366
C        0.75801424      -1.05678332       0.12250170
C        2.02392771      -0.45759610      -0.12486044
N        1.76645868       0.88529523      -0.33517051
N        0.42580076       1.07901212      -0.19695268
H       -2.12454647       0.49614180       0.75341845
H       -2.11795924       0.06156848      -0.95966706
H       -2.00413716      -1.19949672       0.26996807
H        0.57801328      -2.10340495       0.31194376
H        2.58004135       0.59428517       0.51315652
H        0.02188522       1.98330078      -0.36691462
12
Frame=3 idx=003204 GeodesicLength=0.13660352874064127 rxn_smarts="[C:1]([c:2]1[c:3]([H:10])[c:4]([H:11])[n:5][n:6]1[H:12])([H:7])([H:8])[H:9]>>[C:1]([c+:2]1[c:3]([H:10])[c-:4][n:5]([H:11])[n:6]1[H:12])([H:7])([H:8])[H:9]"
C       -1.70167854      -0.18828013       0.01221048
C       -0.21508940      -0.09574026       0.00013971
C        0.75409580      -1.05513002       0.13593341
C        2.01862590      -0.45465524      -0.11091793
N        1.76143902       0.88288448      -0.32731993
N        0.42164346       1.07837843      -0.19503541
H       -2.13366247       0.48817316       0.75228084
H       -2.11839726       0.06723229      -0.96421241
H       -2.00912765      -1.20326354       0.25585664
H        0.57471060      -2.10310233       0.31831461
H        2.62848362       0.59908034       0.48043117
H        0.01895691       1.98442283      -0.35768118
12
Frame=4 idx=003204 GeodesicLength=0.18184129639438665 rxn_smarts="[C:1]([c:2]1[c:3]([H:10])[c:4]([H:11])[n:5][n:6]1[H:12])([H:7])([H:8])[H:9]>>[C:1]([c+:2]1[c:3]([H:10])[c-:4][n:5]([H:11])[n:6]1[H:12])([H:7])([H:8])[H:9]"
C       -1.70645344      -0.18987286       0.00733294
C       -0.21985393      -0.09602989       0.00328961
C        0.74995448      -1.05365183       0.14718212
C        2.01342354      -0.45103084      -0.09526755
N        1.75665090       0.88151501      -0.31559551
N        0.41720375       1.07780119      -0.19370406
H       -2.14254003       0.47990543       0.75113570
H       -2.11951042       0.07294480      -0.96868819
H       -2.01396751      -1.20709362       0.24150920
H        0.57161225      -2.10224558       0.32687288
H        2.67771553       0.60207337       0.44413397
H        0.01576487       1.98568483      -0.34820110
12
Frame=5 idx=003204 GeodesicLength=0.2268619124497582 rxn_smarts="[C:1]([c:2]1[c:3]([H:10])[c:4]([H:11])[n:5][n:6]1[H:12])([H:7])([H:8])[H:9]>>[C:1]([c+:2]1[c:3]([H:10])[c-:4][n:5]([H:11])[n:6]1[H:12])([H:7])([H:8])[H:9]"
C       -1.71128543      -0.19146161       0.00267207
C       -0.22470306      -0.09654184       0.00472590
C        0.74563386      -1.05243058       0.15651524
C        2.00857637      -0.44648149      -0.07540719
N        1.75230220       0.88117496      -0.29909149
N        0.41253115       1.07694805      -0.19476375
H       -2.15056985       0.47197175       0.75034923
H       -2.12182590       0.07825233      -0.97251425
H       -2.01865522      -1.21070021       0.22825245
H        0.56847265      -2.10156981       0.33404711
H        2.72712431       0.60401149       0.40504135
H        0.01239893       1.98682696      -0.33982666
12
Frame=6 idx=003204 GeodesicLength=0.27161541750700613 rxn_smarts="[C:1]([c:2]1[c:3]([H:10])[c:4]([H:11])[n:5][n:6]1[H:12])([H:7])([H:8])[H:9]>>[C:1]([c+:2]1[c:3]([H:10])[c-:4][n:5]([H:11])[n:6]1[H:12])([H:7])([H:8])[H:9]"
C       -1.71613275      -0.19293389      -0.00122723
C       -0.22954505      -0.09747725       0.00335481
C        0.74116441      -1.05169380       0.16301591
C        2.00424990      -0.44060135      -0.04863512
N        1.74853938       0.88208074      -0.27614934
N        0.40770479       1.07534979      -0.20085849
H       -2.15677218       0.46496726       0.75060892
H       -2.12626578       0.08285281      -0.97487085
H       -2.02319108      -1.21379821       0.21747379
H        0.56524628      -2.10161369       0.33696533
H        2.77605381       0.60535198       0.36433104
H        0.00894828       1.98751560      -0.33400876
12
Frame=7 idx=003204 GeodesicLength=0.3159958988130499 rxn_smarts="[C:1]([c:2]1[c:3]([H:10])[c:4]([H:11])[n:5][n:6]1[H:12])([H:7])([H:8])[H:9]>>[C:1]([c+:2]1[c:3]([H:10])[c-:4][n:5]([H:11])[n:6]1[H:12])([H:7])([H:8])[H:9]"
C       -1.72088835      -0.19403484      -0.00318310
C       -0.23420947      -0.09911473      -0.00273070
C        0.73665600      -1.05194454       0.16389294
C        2.00042394      -0.43259849      -0.01070293
N        1.74533300       0.88490072      -0.24319715
N        0.40300359       1.07219655      -0.21659323
H       -2.15925101       0.46010064       0.75333777
H       -2.13455574       0.08615090      -0.97405793
H       -2.02747362      -1.21582025       0.21202802
H        0.56208659      -2.10329016       0.33052772
H        2.82337570       0.60654816       0.32524558
H        0.00549938       1.98690603      -0.33456700
12
Frame=8 idx=003204 GeodesicLength=0.35946580524467275 rxn_smarts="[C:1]([c:2]1[c:3]([H:10])[c:4]([H:11])[n:5][n:6]1[H:12])([H:7])([H:8])[H:9]>>[C:1]([c+:2]1[c:3]([H:10])[c-:4][n:5]([H:11])[n:6]1[H:12])([H:7])([H:8])[H:9]"
C       -1.72525063      -0.19422988      -0.00095439
C       -0.23843397      -0.10162773      -0.01410658
C        0.73251559      -1.05369975       0.15643463
C        1.99609528      -0.42135486       0.04482938
N        1.74149254       0.89069583      -0.19394323
N        0.39928235       1.06639218      -0.24567948
H       -2.15589816       0.45994438       0.76002891
H       -2.14792348       0.08673859      -0.96771870
H       -2.03124007      -1.21563019       0.21711309
H        0.55969128      -2.10822342       0.30315588
H        2.86747177       0.60814137       0.29182302
H        0.00219751       1.98285349      -0.35098252
12
Frame=9 idx=003204 GeodesicLength=0.4000579903416886 rxn_smarts="[C:1]([c:2]1[c:3]([H:10])[c:4]([H:11])[n:5][n:6]1[H:12])([H:7])([H:8])[H:9]>>[C:1]([c+:2]1[c:3]([H:10])[c-:4][n:5]([H:11])[n:6]1[H:12])([H:7])([H:8])[H:9]"
C       -1.72968782      -0.19532503      -0.00444512
C       -0.24281828      -0.10314274      -0.01890481
C        0.72855875      -1.05318738       0.16124011
C        1.98917182      -0.40872698       0.10729274
N        1.73489162       0.89768954      -0.13849865
N        0.39629645       1.06295703      -0.25880208
H       -2.15953078       0.45611017       0.75944720
H       -2.15373596       0.08896998      -0.96961388
H       -2.03539052      -1.21743988       0.21080616
H        0.55830222      -2.11058507       0.28869849
H        2.91523880       0.60213888       0.21549507
H       -0.00129630       1.98054147      -0.35271523
12
Frame=10 idx=003204 GeodesicLength=0.43517734179970025 rxn_smarts="[C:1]([c:2]1[c:3]([H:10])[c:4]([H:11])[n:5][n:6]1[H:12])([H:7])([H:8])[H:9]>>[C:1]([c+:2]1[c:3]([H:10])[c-:4][n:5]([H:11])[n:6]1[H:12])([H:7])([H:8])[H:9]"
C       -1.73257680      -0.19677588      -0.01146943
C       -0.24574967      -0.10381655      -0.02167112
C        0.72621040      -1.05121592       0.16997345
C        1.98143034      -0.39456296       0.17453692
N        1.72731084       0.90725187      -0.07169512
N        0.39545449       1.06185253      -0.26115304
H       -2.16501964       0.44953392       0.75535901
H       -2.15445658       0.09297354      -0.97594597
H       -2.03789036      -1.22037075       0.19729713
H        0.55909725      -2.11049041       0.28474423
H        2.95001090       0.58618957       0.10884307
H       -0.00382116       1.97943103      -0.34881912
12
Frame=11 idx=003204 GeodesicLength=0.47005093600363673 rxn_smarts="[C:1]([c:2]1[c:3]([H:10])[c:4]([H:11])[n:5][n:6]1[H:12])([H:7])([H:8])[H:9]>>[C:1]([c+:2]1[c:3]([H:10])[c-:4][n:5]([H:11])[n:6]1[H:12])([H:7])([H:8])[H:9]"
C       -1.73285783      -0.19743399      -0.01714390
C       -0.24606689      -0.10470393      -0.02728417
C        0.72672137      -1.04927071       0.17569751
C        1.97380882      -0.37985305       0.24260960
N        1.71980926       0.91716658      -0.00443924
N        0.39789024       1.06075436      -0.26409894
H       -2.16551125       0.44370480       0.75395060
H       -2.15474273       0.09854998      -0.97970119
H       -2.03771040      -1.22242046       0.18553353
H        0.56318578      -2.11032689       0.27776053
H        2.95913351       0.56633157       0.00858537
H       -0.00365989       1.97750174      -0.35146970
12
Frame=12 idx=003204 GeodesicLength=0.5088125212492505 rxn_smarts="[C:1]([c:2]1[c:3]([H:10])[c:4]([H:11])[n:5][n:6]1[H:12])([H:7])([H:8])[H:9]>>[C:1]([c+:2]1[c:3]([H:10])[c-:4][n:5]([H:11])[n:6]1[H:12])([H:7])([H:8])[H:9]"
C       -1.73136509      -0.19779508      -0.02266544
C       -0.24461341      -0.10501506      -0.03215400
C        0.72903579      -1.04664468       0.18207407
C        1.96701566      -0.36627283       0.30056604
N        1.71372043       0.92540229       0.04995229
N        0.40204655       1.06042353      -0.26552544
H       -2.16468213       0.43769505       0.75279420
H       -2.15292665       0.10469938      -0.98331469
H       -2.03562959      -1.22427563       0.17338899
H        0.56907525      -2.10905840       0.27458047
H        2.95010092       0.54436588      -0.07869155
H       -0.00177772       1.97647555      -0.35100494
12
Frame=13 idx=003204 GeodesicLength=0.5495591876905732 rxn_smarts="[C:1]([c:2]1[c:3]([H:10])[c:4]([H:11])[n:5][n:6]1[H:12])([H:7])([H:8])[H:9]>>[C:1]([c+:2]1[c:3]([H:10])[c-:4][n:5]([H:11])[n:6]1[H:12])([H:7])([H:8])[H:9]"
C       -1.72922939      -0.19789097      -0.02736211
C       -0.24251731      -0.10507286      -0.03573807
C        0.73189595      -1.04399640       0.18849250
C        1.96172459      -0.35493005       0.34406322
N        1.70877609       0.93171277       0.09220995
N        0.40662194       1.06014420      -0.26717274
H       -2.16338795       0.43229004       0.75201751
H       -2.15031199       0.11067082      -0.98627126
H       -2.03299074      -1.22571463       0.16245768
H        0.57518045      -2.10741992       0.27388071
H        2.93351919       0.52449827      -0.14736097
H        0.00071917       1.97570874      -0.34921641
12
Frame=14 idx=003204 GeodesicLength=0.5908929752647649 rxn_smarts="[C:1]([c:2]1[c:3]([H:10])[c:4]([H:11])[n:5][n:6]1[H:12])([H:7])([H:8])[H:9]>>[C:1]([c+:2]1[c:3]([H:10])[c-:4][n:5]([H:11])[n:6]1[H:12])([H:7])([H:8])[H:9]"
C       -1.72695703      -0.19796593      -0.03200644
C       -0.24030637      -0.10450370      -0.03628946
C        0.73461123      -1.04097898       0.19739932
C        1.95789628      -0.34497786       0.37811220
N        1.70522553       0.93668791       0.12539805
N        0.41109063       1.06027875      -0.26731640
H       -2.16367037       0.42731470       0.74996042
H       -2.14598141       0.11568511      -0.99014930
H       -2.03022409      -1.22706036       0.15179472
H        0.58126145      -2.10546141       0.27464696
H        2.91376402       0.50541436      -0.20731130
H        0.00329013       1.97556740      -0.34423876
12
Frame=15 idx=003204 GeodesicLength=0.6325604468286605 rxn_smarts="[C:1]([c:2]1[c:3]([H:10])[c:4]([H:11])[n:5][n:6]1[H:12])([H:7])([H:8])[H:9]>>[C:1]([c+:2]1[c:3]([H:10])[c-:4][n:5]([H:11])[n:6]1[H:12])([H:7])([H:8])[H:9]"
C       -1.72461868      -0.19805591      -0.03669177
C       -0.23808045      -0.10343383      -0.03449221
C        0.73714678      -1.03766190       0.20811608
C        1.95520603      -0.33582183       0.40615586
N        1.70282322       0.94086232       0.15257095
N        0.41537941       1.06077086      -0.26621441
H       -2.16526625       0.42254065       0.74687018
H       -2.14034694       0.12002468      -0.99479576
H       -2.02734487      -1.22839492       0.14111817
H        0.58734211      -2.10321031       0.27641090
H        2.89195422       0.48648781      -0.26213507
H        0.00580541       1.97589238      -0.33691293
12
Frame=16 idx=003204 GeodesicLength=0.67441509674183 rxn_smarts="[C:1]([c:2]1[c:3]([H:10])[c:4]([H:11])[n:5][n:6]1[H:12])([H:7])([H:8])[H:9]>>[C:1]([c+:2]1[c:3]([H:10])[c-:4][n:5]([H:11])[n:6]1[H:12])([H:7])([H:8])[H:9]"
C       -1.72222249      -0.19812614      -0.04129103
C       -0.23585121      -0.10212823      -0.03152002
C        0.73959283      -1.03432253       0.21915333
C        1.95339341      -0.32737250       0.42967313
N        1.70112315       0.94447425       0.17606335
N        0.41955980       1.06141654      -0.26456630
H       -2.16741442       0.41789376       0.74338543
H       -2.13412591       0.12407466      -0.99965682
H       -2.02437373      -1.22967790       0.13055984
H        0.59324548      -2.10079990       0.27920818
H        2.86876001       0.46816831      -0.31239413
H        0.00831307       1.97639966      -0.32861496
