11
Frame=0 idx=002692 GeodesicLength=0.0 rxn_smarts="[C:1]([C:2]([C:3](=[O:4])[C:5]#[N:6])([H:10])[H:11])([H:7])([H:8])[H:9]>>[C:1]1([H:8])([H:9])[C:2]([H:10])([H:11])[C:3](=[O:4])/[C:5]1=[N:6]/[H:7]"
C       -0.92351573      -0.36458664      -0.27548173
C       -0.09447501       0.84693346      -0.67131398
C        1.13621212       0.60456915       0.18917865
O        2.17045133       1.16153686       0.33590672
C        0.64217670      -0.68682979       0.88081669
N        0.72662996      -1.61656689       1.65104833
H       -0.36284973      -1.41459704       0.87118882
H       -1.07485240      -1.09156315      -1.07165632
H       -1.86189452      -0.13107217       0.22506654
H       -0.54372792       1.80621347      -0.40998277
H        0.18584524       0.88596272      -1.72477100
11
Frame=1 idx=002692 GeodesicLength=0.11249937318896211 rxn_smarts="[C:1]([C:2]([C:3](=[O:4])[C:5]#[N:6])([H:10])[H:11])([H:7])([H:8])[H:9]>>[C:1]1([H:8])([H:9])[C:2]([H:10])([H:11])[C:3](=[O:4])/[C:5]1=[N:6]/[H:7]"
C       -0.93306366      -0.35553331      -0.25930204
C       -0.08505895       0.83304704      -0.68439161
C        1.12755994       0.61722082       0.20630695
O        2.12682008       1.21755905       0.41498100
C        0.67917496      -0.71107611       0.84877171
N        0.76441991      -1.64636068       1.61143215
H       -0.37467755      -1.42652751       0.86601458
H       -1.13190277      -1.07159895      -1.05521990
H       -1.85336643      -0.09290510       0.26025025
H       -0.53036670       1.80652271      -0.47422149
H        0.21046118       0.82965205      -1.73462161
11
Frame=2 idx=002692 GeodesicLength=0.22498208331165648 rxn_smarts="[C:1]([C:2]([C:3](=[O:4])[C:5]#[N:6])([H:10])[H:11])([H:7])([H:8])[H:9]>>[C:1]1([H:8])([H:9])[C:2]([H:10])([H:11])[C:3](=[O:4])/[C:5]1=[N:6]/[H:7]"
C       -0.94169211      -0.34619198      -0.24319424
C       -0.07572751       0.81917192      -0.69715135
C        1.11860847       0.62854035       0.22210332
O        2.07750837       1.26900191       0.49362814
C        0.71582532      -0.73230079       0.81658928
N        0.80249568      -1.67453606       1.56978530
H       -0.38610855      -1.43693620       0.86162058
H       -1.18651577      -1.05022128      -1.03731429
H       -1.84315511      -0.05487161       0.29399545
H       -0.51535885       1.80459922      -0.53759070
H        0.23412004       0.77374453      -1.74247148
11
Frame=3 idx=002692 GeodesicLength=0.3376199545360797 rxn_smarts="[C:1]([C:2]([C:3](=[O:4])[C:5]#[N:6])([H:10])[H:11])([H:7])([H:8])[H:9]>>[C:1]1([H:8])([H:9])[C:2]([H:10])([H:11])[C:3](=[O:4])/[C:5]1=[N:6]/[H:7]"
C       -0.94917917      -0.33690216      -0.22751492
C       -0.06665718       0.80561175      -0.70927155
C        1.11049836       0.63805763       0.23535557
O        2.02377784       1.31494489       0.57013397
C        0.75169901      -0.74982458       0.78580698
N        0.83990043      -1.70032703       1.52771338
H       -0.39739544      -1.44630915       0.85789345
H       -1.23750704      -1.02798951      -1.01867720
H       -1.83173410      -0.01774379       0.32522690
H       -0.49885158       1.80075897      -0.59814385
H        0.25544886       0.71972297      -1.74852273
11
Frame=4 idx=002692 GeodesicLength=0.4501793094537111 rxn_smarts="[C:1]([C:2]([C:3](=[O:4])[C:5]#[N:6])([H:10])[H:11])([H:7])([H:8])[H:9]>>[C:1]1([H:8])([H:9])[C:2]([H:10])([H:11])[C:3](=[O:4])/[C:5]1=[N:6]/[H:7]"
C       -0.95541227      -0.32781151      -0.21236708
C       -0.05791167       0.79246319      -0.72055145
C        1.10356976       0.64607327       0.24606430
O        1.96648997       1.35502676       0.64348697
C        0.78695121      -0.76386825       0.75663832
N        0.87611506      -1.72338811       1.48597499
H       -0.40891764      -1.45479633       0.85490529
H       -1.28440786      -1.00520970      -0.99976692
H       -1.81934675       0.01820099       0.35364896
H       -0.48121051       1.79526651      -0.65509496
H        0.27408071       0.66804317      -1.75293842
11
Frame=5 idx=002692 GeodesicLength=0.5628873133489284 rxn_smarts="[C:1]([C:2]([C:3](=[O:4])[C:5]#[N:6])([H:10])[H:11])([H:7])([H:8])[H:9]>>[C:1]1([H:8])([H:9])[C:2]([H:10])([H:11])[C:3](=[O:4])/[C:5]1=[N:6]/[H:7]"
C       -0.96042896      -0.31905228      -0.19780836
C       -0.04946378       0.77980499      -0.73098438
C        1.09819812       0.65285778       0.25433128
O        1.90647447       1.38935397       0.71313050
C        0.82190916      -0.77488220       0.72912893
N        0.91074274      -1.74332299       1.44586848
H       -0.42086334      -1.46311944       0.85212350
H       -1.32752532      -0.98191968      -0.98098932
H       -1.80617021       0.05272378       0.37946373
H       -0.46277764       1.78842572      -0.70813201
H        0.28990476       0.61913034      -1.75613234
11
Frame=6 idx=002692 GeodesicLength=0.6757997388507665 rxn_smarts="[C:1]([C:2]([C:3](=[O:4])[C:5]#[N:6])([H:10])[H:11])([H:7])([H:8])[H:9]>>[C:1]1([H:8])([H:9])[C:2]([H:10])([H:11])[C:3](=[O:4])/[C:5]1=[N:6]/[H:7]"
C       -0.96438290      -0.31067891      -0.18379803
C       -0.04135389       0.76768461      -0.74052890
C        1.09388249       0.65916956       0.26116354
O        1.84474023       1.41809055       0.77859395
C        0.85687364      -0.78324500       0.70305257
N        0.94401448      -1.76059698       1.40708981
H       -0.43367825      -1.47120817       0.84997254
H       -1.36704209      -0.95833748      -0.96251605
H       -1.79252585       0.08581096       0.40272687
H       -0.44395284       1.78054804      -0.75764936
H        0.30342498       0.57276281      -1.75810694
11
Frame=7 idx=002692 GeodesicLength=0.7888465637392058 rxn_smarts="[C:1]([C:2]([C:3](=[O:4])[C:5]#[N:6])([H:10])[H:11])([H:7])([H:8])[H:9]>>[C:1]1([H:8])([H:9])[C:2]([H:10])([H:11])[C:3](=[O:4])/[C:5]1=[N:6]/[H:7]"
C       -0.96738847      -0.30274993      -0.17029672
C       -0.03358682       0.75606979      -0.74916518
C        1.09026805       0.66537909       0.26714096
O        1.78212559       1.44156087       0.83964218
C        0.89204985      -0.78917612       0.67825463
N        0.97598474      -1.77535194       1.36956614
H       -0.44765240      -1.47917388       0.84848648
H       -1.40322534      -0.93454901      -0.94448849
H       -1.77860926       0.11742575       0.42363291
H       -0.42498689       1.77178294      -0.80386058
H        0.31502095       0.52878245      -1.75891235
11
Frame=8 idx=002692 GeodesicLength=0.9021173156776323 rxn_smarts="[C:1]([C:2]([C:3](=[O:4])[C:5]#[N:6])([H:10])[H:11])([H:7])([H:8])[H:9]>>[C:1]1([H:8])([H:9])[C:2]([H:10])([H:11])[C:3](=[O:4])/[C:5]1=[N:6]/[H:7]"
C       -0.96960247      -0.29534944      -0.15728284
C       -0.02617681       0.74495557      -0.75691579
C        1.08707219       0.67175242       0.27271952
O        1.71953149       1.46024092       0.89622429
C        0.92764859      -0.79285050       0.65463063
N        1.00674071      -1.78780623       1.33319583
H       -0.46310188      -1.48714901       0.84778961
H       -1.43639639      -0.91069327      -0.92704641
H       -1.76466152       0.14750469       0.44233298
H       -0.40607303       1.76231216      -0.84701346
H        0.32501912       0.48708267      -1.75863435
11
Frame=9 idx=002692 GeodesicLength=1.0153518375165136 rxn_smarts="[C:1]([C:2]([C:3](=[O:4])[C:5]#[N:6])([H:10])[H:11])([H:7])([H:8])[H:9]>>[C:1]1([H:8])([H:9])[C:2]([H:10])([H:11])[C:3](=[O:4])/[C:5]1=[N:6]/[H:7]"
C       -0.97107127      -0.28848719      -0.14470509
C       -0.01910799       0.73422513      -0.76375041
C        1.08403129       0.67833525       0.27811874
O        1.65738620       1.47462418       0.94838080
C        0.96382678      -0.79436944       0.63211308
N        1.03630742      -1.79806891       1.29774062
H       -0.48022787      -1.49520218       0.84771684
H       -1.46677277      -0.88676994      -0.91014901
H       -1.75071728       0.17616979       0.45899185
H       -0.38735877       1.75217309      -0.88727416
H        0.33370426       0.44737023      -1.75718326
11
Frame=10 idx=002692 GeodesicLength=1.128752418454933 rxn_smarts="[C:1]([C:2]([C:3](=[O:4])[C:5]#[N:6])([H:10])[H:11])([H:7])([H:8])[H:9]>>[C:1]1([H:8])([H:9])[C:2]([H:10])([H:11])[C:3](=[O:4])/[C:5]1=[N:6]/[H:7]"
C       -0.97195580      -0.28227027      -0.13253976
C       -0.01238761       0.72389258      -0.76975712
C        1.08101057       0.68526871       0.28356801
O        1.59644024       1.48521635       0.99643289
C        1.00081244      -0.79382476       0.61051018
N        1.06475365      -1.80633300       1.26296938
H       -0.49942420      -1.50336877       0.84866502
H       -1.49462395      -0.86298988      -0.89393799
H       -1.73701896       0.20329234       0.47375544
H       -0.36890764       1.74150763      -0.92489610
H        0.34130126       0.40960908      -1.75476995
11
Frame=11 idx=002692 GeodesicLength=1.2422478563214003 rxn_smarts="[C:1]([C:2]([C:3](=[O:4])[C:5]#[N:6])([H:10])[H:11])([H:7])([H:8])[H:9]>>[C:1]1([H:8])([H:9])[C:2]([H:10])([H:11])[C:3](=[O:4])/[C:5]1=[N:6]/[H:7]"
C       -0.97230234      -0.27671133      -0.12071210
C       -0.00596791       0.71385084      -0.77498189
C        1.07791753       0.69255364       0.28912747
O        1.53682967       1.49250350       1.04077570
C        1.03881744      -0.79123357       0.58971487
N        1.09212586      -1.81273094       1.22847644
H       -0.52095233      -1.51167289       0.85067142
H       -1.52019093      -0.83937267      -0.87833615
H       -1.72356432       0.22898674       0.48682412
H       -0.35074094       1.73031731      -0.96014072
H        0.34802826       0.37350937      -1.75141917
11
Frame=12 idx=002692 GeodesicLength=1.355874490870344 rxn_smarts="[C:1]([C:2]([C:3](=[O:4])[C:5]#[N:6])([H:10])[H:11])([H:7])([H:8])[H:9]>>[C:1]1([H:8])([H:9])[C:2]([H:10])([H:11])[C:3](=[O:4])/[C:5]1=[N:6]/[H:7]"
C       -0.97216505      -0.27184361      -0.10915616
C        0.00019683       0.70401508      -0.77947745
C        1.07471036       0.70020414       0.29485216
O        1.47870110       1.49691807       1.08181838
C        1.07808030      -0.78657775       0.56962634
N        1.11846690      -1.81737153       1.19384160
H       -0.54513630      -1.52012430       0.85386550
H       -1.54368886      -0.81597684      -0.86330045
H       -1.71038058       0.25332011       0.49836734
H       -0.33286566       1.71860568      -0.99325229
H        0.35408096       0.33883094      -1.74718497
11
Frame=13 idx=002692 GeodesicLength=1.469630194077572 rxn_smarts="[C:1]([C:2]([C:3](=[O:4])[C:5]#[N:6])([H:10])[H:11])([H:7])([H:8])[H:9]>>[C:1]1([H:8])([H:9])[C:2]([H:10])([H:11])[C:3](=[O:4])/[C:5]1=[N:6]/[H:7]"
C       -0.97156527      -0.26769593      -0.09779176
C        0.00616926       0.69428210      -0.78328300
C        1.07136204       0.70822070       0.30076988
O        1.42207283       1.49882580       1.11992684
C        1.11883258      -0.77977397       0.55020096
N        1.14379212      -1.82030834       1.15859138
H       -0.57231647      -1.52873296       0.85830914
H       -1.56529936      -0.79280973      -0.84874769
H       -1.69743408       0.27635336       0.50856389
H       -0.31526849       1.70631969      -1.02445918
H        0.35965483       0.30531928      -1.74208045
11
Frame=14 idx=002692 GeodesicLength=1.5835060145465607 rxn_smarts="[C:1]([C:2]([C:3](=[O:4])[C:5]#[N:6])([H:10])[H:11])([H:7])([H:8])[H:9]>>[C:1]1([H:8])([H:9])[C:2]([H:10])([H:11])[C:3](=[O:4])/[C:5]1=[N:6]/[H:7]"
C       -0.97052889      -0.26429590      -0.08653533
C        0.01199544       0.68456397      -0.78642688
C        1.06784399       0.71661240       0.30691406
O        1.36700397       1.49851927       1.15544330
C        1.16130328      -0.77070500       0.53141379
N        1.16810885      -1.82150223       1.12229293
H       -0.60285633      -1.53756750       0.86400818
H       -1.58516794      -0.76989579      -0.83460634
H       -1.68469411       0.29813431       0.51758388
H       -0.29791198       1.69341488      -1.05398860
H        0.36490370       0.27272159      -1.73609897
11
Frame=15 idx=002692 GeodesicLength=1.6975086492705682 rxn_smarts="[C:1]([C:2]([C:3](=[O:4])[C:5]#[N:6])([H:10])[H:11])([H:7])([H:8])[H:9]>>[C:1]1([H:8])([H:9])[C:2]([H:10])([H:11])[C:3](=[O:4])/[C:5]1=[N:6]/[H:7]"
C       -0.96907077      -0.26167359      -0.07528927
C        0.01773794       0.67474568      -0.78891904
C        1.06414555       0.72537725       0.31330775
O        1.31347810       1.49625989       1.18865845
C        1.20570446      -0.75920266       0.51330693
N        1.19145248      -1.82085360       1.08445251
H       -0.63717045      -1.54668960       0.87087253
H       -1.60344112      -0.74720924      -0.82077396
H       -1.67209468       0.31870807       0.52561520
H       -0.28074436       1.67978882      -1.08204974
H        0.37000285       0.24074898      -1.72918137
11
Frame=16 idx=002692 GeodesicLength=1.8116837586067263 rxn_smarts="[C:1]([C:2]([C:3](=[O:4])[C:5]#[N:6])([H:10])[H:11])([H:7])([H:8])[H:9]>>[C:1]1([H:8])([H:9])[C:2]([H:10])([H:11])[C:3](=[O:4])/[C:5]1=[N:6]/[H:7]"
C       -0.96722144      -0.25985891      -0.06394858
C        0.02345660       0.66469876      -0.79075635
C        1.06027187       0.73450320       0.31997763
O        1.26147739       1.49226891       1.21983830
C        1.25222471      -0.74507442       0.49596767
N        1.21393325      -1.81818664       1.04456393
H       -0.67572507      -1.55616061       0.87872759
H       -1.62027410      -0.72470220      -0.80714830
H       -1.65957258       0.33812259       0.53285684
H       -0.26369731       1.66530859      -1.10884412
H        0.37512668       0.20908074      -1.72123461
