17
Frame=0 idx=009573 GeodesicLength=0.0 rxn_smarts="[C:1]1([H:8])([H:9])[C:2]([H:10])([H:11])[C:3]12[C:4]([H:12])([H:13])[C@@:5]1([H:14])[C:6]([H:15])([H:16])[C@@:7]21[H:17]>>[C:1]1([H:8])([H:9])[C:3](=[C:2]([H:10])[H:11])[C:4]([H:12])([H:13])[C:5]1([C:7](=[C:6]([H:15])[H:16])[H:17])[H:14]"
C       -1.38654288      -0.79483411       0.31821076
C       -1.61925912       1.02429533      -0.80986958
C       -0.56375726       0.24011825      -0.33126892
C        0.44444817      -0.67270123      -1.03084006
C        0.76665613      -1.04716305       0.41350662
C        1.86062352       0.89576397       0.74580033
C        0.57822633       0.36380581       0.92545346
H       -1.81167354      -1.57488901      -0.30382575
H       -1.88127158      -0.60117372       1.26640055
H       -1.79175201       1.22035852      -1.86306817
H       -2.24316468       1.54903278      -0.09755557
H        0.01531201      -1.44567262      -1.67277634
H        1.24812152      -0.16306838      -1.56926623
H        1.51220192      -1.75737549       0.76967648
H        2.38696103       0.79562737      -0.19194863
H        2.37254108       1.42777471       1.53902564
H        0.11232939       0.54010085       1.89234537
17
Frame=1 idx=009573 GeodesicLength=0.06964386733838347 rxn_smarts="[C:1]1([H:8])([H:9])[C:2]([H:10])([H:11])[C:3]12[C:4]([H:12])([H:13])[C@@:5]1([H:14])[C:6]([H:15])([H:16])[C@@:7]21[H:17]>>[C:1]1([H:8])([H:9])[C:3](=[C:2]([H:10])[H:11])[C:4]([H:12])([H:13])[C:5]1([C:7](=[C:6]([H:15])[H:16])[H:17])[H:14]"
C       -1.38924456      -0.78699750       0.31571925
C       -1.63591784       1.01058821      -0.81871140
C       -0.56720802       0.24596106      -0.33962839
C        0.44797678      -0.66339676      -1.03299412
C        0.77253081      -1.03141428       0.41296040
C        1.87212862       0.87974537       0.75286101
C        0.58073058       0.37298200       0.93657628
H       -1.81371512      -1.57723544      -0.29396446
H       -1.88218362      -0.59290749       1.26478697
H       -1.80660815       1.19699078      -1.87395131
H       -2.25258466       1.55211163      -0.11260386
H        0.03155295      -1.44810437      -1.66877484
H        1.24198166      -0.14791203      -1.57969010
H        1.49635691      -1.76049905       0.77357635
H        2.37853822       0.82545222      -0.19962972
H        2.40060691       1.38339957       1.55379213
H        0.12505852       0.54123608       1.90967581
17
Frame=2 idx=009573 GeodesicLength=0.13920746359374664 rxn_smarts="[C:1]1([H:8])([H:9])[C:2]([H:10])([H:11])[C:3]12[C:4]([H:12])([H:13])[C@@:5]1([H:14])[C:6]([H:15])([H:16])[C@@:7]21[H:17]>>[C:1]1([H:8])([H:9])[C:3](=[C:2]([H:10])[H:11])[C:4]([H:12])([H:13])[C:5]1([C:7](=[C:6]([H:15])[H:16])[H:17])[H:14]"
C       -1.39193740      -0.77907290       0.31328964
C       -1.65216578       0.99669217      -0.82741260
C       -0.57066718       0.25172549      -0.34798019
C        0.45151695      -0.65390276      -1.03509437
C        0.77829299      -1.01575430       0.41230918
C        1.88332823       0.86375507       0.75916919
C        0.58362868       0.38185195       0.94789830
H       -1.81583739      -1.57927905      -0.28374702
H       -1.88291968      -0.58432993       1.26317618
H       -1.82101119       1.17320012      -1.88456450
H       -2.26188507       1.55484378      -0.12828946
H        0.04788925      -1.44987723      -1.66474740
H        1.23588749      -0.13275023      -1.58976687
H        1.47955292      -1.76346019       0.77711349
H        2.36968293       0.85584439      -0.20527615
H        2.42792608       1.33891827       1.56667514
H        0.13871817       0.54159534       1.92724745
17
Frame=3 idx=009573 GeodesicLength=0.2086802047184229 rxn_smarts="[C:1]1([H:8])([H:9])[C:2]([H:10])([H:11])[C:3]12[C:4]([H:12])([H:13])[C@@:5]1([H:14])[C:6]([H:15])([H:16])[C@@:7]21[H:17]>>[C:1]1([H:8])([H:9])[C:3](=[C:2]([H:10])[H:11])[C:4]([H:12])([H:13])[C:5]1([C:7](=[C:6]([H:15])[H:16])[H:17])[H:14]"
C       -1.39463253      -0.77113379       0.31095928
C       -1.66800110       0.98269958      -0.83597301
C       -0.57413697       0.25740605      -0.35632961
C        0.45507244      -0.64428261      -1.03720802
C        0.78393816      -1.00030008       0.41156270
C        1.89416103       0.84791162       0.76472585
C        0.58690386       0.39036495       0.95948281
H       -1.81804583      -1.58112688      -0.27317431
H       -1.88350422      -0.57551271       1.26167511
H       -1.83486967       1.14921268      -1.89495873
H       -2.27103925       1.55736456      -0.14452833
H        0.06432875      -1.45109928      -1.66080238
H        1.22985267      -0.11761295      -1.59961806
H        1.46181967      -1.76635062       0.78029205
H        2.36054260       0.88650276      -0.20889183
H        2.45432658       1.29483233       1.57763693
H        0.15328382       0.54112440       1.94514953
17
Frame=4 idx=009573 GeodesicLength=0.27818370695664557 rxn_smarts="[C:1]1([H:8])([H:9])[C:2]([H:10])([H:11])[C:3]12[C:4]([H:12])([H:13])[C@@:5]1([H:14])[C:6]([H:15])([H:16])[C@@:7]21[H:17]>>[C:1]1([H:8])([H:9])[C:3](=[C:2]([H:10])[H:11])[C:4]([H:12])([H:13])[C:5]1([C:7](=[C:6]([H:15])[H:16])[H:17])[H:14]"
C       -1.39733540      -0.76317772       0.30875263
C       -1.68350170       0.96869037      -0.84443403
C       -0.57764897       0.26301877      -0.36470103
C        0.45865706      -0.63457722      -1.03938874
C        0.78951180      -0.98511235       0.41075003
C        1.90460336       0.83227669       0.76955829
C        0.59054777       0.39849654       0.97139496
H       -1.82033361      -1.58278856      -0.26224562
H       -1.88395384      -0.56643312       1.26035583
H       -1.84827709       1.12512441      -1.90522420
H       -2.28017559       1.55973745      -0.16131334
H        0.08089889      -1.45183423      -1.65703464
H        1.22387419      -0.10252615      -1.60934702
H        1.44333997      -1.76916637       0.78311885
H        2.35129192       0.91711404      -0.21051626
H        2.47976233       1.25134513       1.58680103
H        0.16873891       0.53981231       1.96347326
17
Frame=5 idx=009573 GeodesicLength=0.3476763872474889 rxn_smarts="[C:1]1([H:8])([H:9])[C:2]([H:10])([H:11])[C:3]12[C:4]([H:12])([H:13])[C@@:5]1([H:14])[C:6]([H:15])([H:16])[C@@:7]21[H:17]>>[C:1]1([H:8])([H:9])[C:3](=[C:2]([H:10])[H:11])[C:4]([H:12])([H:13])[C:5]1([C:7](=[C:6]([H:15])[H:16])[H:17])[H:14]"
C       -1.40006336      -0.75519476       0.30665150
C       -1.69865178       0.95464257      -0.85279024
C       -0.58120510       0.26855457      -0.37309403
C        0.46224991      -0.62477164      -1.04160307
C        0.79498626      -0.97016162       0.40987365
C        1.91463453       0.81691441       0.77368634
C        0.59454745       0.40622598       0.98363623
H       -1.82273315      -1.58423610      -0.25096587
H       -1.88429020      -0.55707902       1.25916648
H       -1.86123213       1.10087544      -1.91532730
H       -2.28927116       1.56190393      -0.17864734
H        0.09756949      -1.45206400      -1.65340594
H        1.21792997      -0.08747077      -1.61891556
H        1.42416026      -1.77177840       0.78553677
H        2.34202854       0.94750099      -0.21018183
H        2.50426891       1.20851038       1.59421971
H        0.18507155       0.53762804       1.98216051
17
Frame=6 idx=009573 GeodesicLength=0.41715865978801403 rxn_smarts="[C:1]1([H:8])([H:9])[C:2]([H:10])([H:11])[C:3]12[C:4]([H:12])([H:13])[C@@:5]1([H:14])[C:6]([H:15])([H:16])[C@@:7]21[H:17]>>[C:1]1([H:8])([H:9])[C:3](=[C:2]([H:10])[H:11])[C:4]([H:12])([H:13])[C:5]1([C:7](=[C:6]([H:15])[H:16])[H:17])[H:14]"
C       -1.40283043      -0.74717238       0.30464907
C       -1.71346267       0.94055419      -0.86105408
C       -0.58481537       0.27401148      -0.38151460
C        0.46584065      -0.61486259      -1.04383326
C        0.80035267      -0.95543169       0.40894781
C        1.92423790       0.80187837       0.77715236
C        0.59888727       0.41353717       0.99622378
H       -1.82526445      -1.58544832      -0.23933374
H       -1.88453639      -0.54742654       1.25808303
H       -1.87376504       1.07642424      -1.92527187
H       -2.29833627       1.56384221      -0.19654111
H        0.11432976      -1.45179032      -1.64990064
H        1.21200457      -0.07244141      -1.62831399
H        1.40437430      -1.77409091       0.78750214
H        2.33282978       0.97752464      -0.20795631
H        2.52789209       1.16633739       1.59997577
H        0.20226162       0.53455445       2.00118564
17
Frame=7 idx=009573 GeodesicLength=0.4866359456135747 rxn_smarts="[C:1]1([H:8])([H:9])[C:2]([H:10])([H:11])[C:3]12[C:4]([H:12])([H:13])[C@@:5]1([H:14])[C:6]([H:15])([H:16])[C@@:7]21[H:17]>>[C:1]1([H:8])([H:9])[C:3](=[C:2]([H:10])[H:11])[C:4]([H:12])([H:13])[C:5]1([C:7](=[C:6]([H:15])[H:16])[H:17])[H:14]"
C       -1.40564966      -0.73910035       0.30274402
C       -1.72794899       0.92643210      -0.86924209
C       -0.58849021       0.27938976      -0.38997115
C        0.46942138      -0.60485349      -1.04607013
C        0.80560484      -0.94091533       0.40798791
C        1.93340290       0.78720878       0.78000267
C        0.60355160       0.42041415       1.00917880
H       -1.82794511      -1.58641054      -0.22734455
H       -1.88471383      -0.53745283       1.25709529
H       -1.88589664       1.05175592      -1.93507156
H       -2.30739420       1.56553720      -0.21500447
H        0.13117168      -1.45102566      -1.64651303
H        1.20608513      -0.05744017      -1.63754819
H        1.38408429      -1.77603308       0.78898898
H        2.32375830       1.00707720      -0.20392387
H        2.55066956       1.12484027       1.60415711
H        0.22028896       0.53057607       2.02053426
17
Frame=8 idx=009573 GeodesicLength=0.5561131609646587 rxn_smarts="[C:1]1([H:8])([H:9])[C:2]([H:10])([H:11])[C:3]12[C:4]([H:12])([H:13])[C@@:5]1([H:14])[C:6]([H:15])([H:16])[C@@:7]21[H:17]>>[C:1]1([H:8])([H:9])[C:3](=[C:2]([H:10])[H:11])[C:4]([H:12])([H:13])[C:5]1([C:7](=[C:6]([H:15])[H:16])[H:17])[H:14]"
C       -1.40853441      -0.73096724       0.30093528
C       -1.74212371       0.91228090      -0.87737161
C       -0.59223848       0.28469078      -0.39847211
C        0.47298580      -0.59474600      -1.04830396
C        0.81073461      -0.92660228       0.40701007
C        1.94212362       0.77293927       0.78229171
C        0.60852529       0.42684356       1.02252355
H       -1.83079374      -1.58710788      -0.21499212
H       -1.88484520      -0.52713196       1.25619262
H       -1.89765075       1.02684189      -1.94474039
H       -2.31646047       1.56697810      -0.23404931
H        0.14808935      -1.44978206      -1.64323597
H        1.20016286      -0.04246846      -1.64662174
H        1.36338894      -1.77754552       0.78996978
H        2.31485728       1.03608817      -0.19817901
H        2.57264693       1.08400716       1.60685042
H        0.23913205       0.52568157       2.04019278
17
Frame=9 idx=009573 GeodesicLength=0.6255996019279851 rxn_smarts="[C:1]1([H:8])([H:9])[C:2]([H:10])([H:11])[C:3]12[C:4]([H:12])([H:13])[C@@:5]1([H:14])[C:6]([H:15])([H:16])[C@@:7]21[H:17]>>[C:1]1([H:8])([H:9])[C:3](=[C:2]([H:10])[H:11])[C:4]([H:12])([H:13])[C:5]1([C:7](=[C:6]([H:15])[H:16])[H:17])[H:14]"
C       -1.41149268      -0.72276366       0.29922591
C       -1.75600198       0.89811517      -0.88546367
C       -0.59606822       0.28991807      -0.40702868
C        0.47653127      -0.58454780      -1.05053284
C        0.81573910      -0.91249251       0.40603248
C        1.95039609       0.75909032       0.78407711
C        0.61379461       0.43280905       1.03628694
H       -1.83382229      -1.58752919      -0.20226906
H       -1.88494697      -0.51643894       1.25537614
H       -1.90905020       1.00167200      -1.95430161
H       -2.32555099       1.56817233      -0.25368548
H        0.16508351      -1.44808159      -1.64007145
H        1.19423134      -0.02753388      -1.65555079
H        1.34238719      -1.77860292       0.79042859
H        2.30614219       1.06450901      -0.19082395
H        2.59385642       1.04384634       1.60813905
H        0.25877162       0.51985821       2.06016133
17
Frame=10 idx=009573 GeodesicLength=0.6951649951075458 rxn_smarts="[C:1]1([H:8])([H:9])[C:2]([H:10])([H:11])[C:3]12[C:4]([H:12])([H:13])[C@@:5]1([H:14])[C:6]([H:15])([H:16])[C@@:7]21[H:17]>>[C:1]1([H:8])([H:9])[C:3](=[C:2]([H:10])[H:11])[C:4]([H:12])([H:13])[C:5]1([C:7](=[C:6]([H:15])[H:16])[H:17])[H:14]"
C       -1.41452940      -0.71448685       0.29764462
C       -1.76963002       0.88398691      -0.89356726
C       -0.59999824       0.29509362      -0.41566402
C        0.48006608      -0.57428380      -1.05280037
C        0.82063596      -0.89861793       0.40508139
C        1.95822011       0.74568739       0.78543306
C        0.61934539       0.43830686       1.05053346
H       -1.83702339      -1.58770295      -0.18914703
H       -1.88503661      -0.50533764       1.25471166
H       -1.92015503       0.97625721      -1.96384742
H       -2.33472652       1.56920015      -0.27393755
H        0.18217748      -1.44599011      -1.63708656
H        1.18828924      -0.01264583      -1.66442493
H        1.32120982      -1.77925436       0.79037757
H        2.29762790       1.09233116      -0.18197697
H        2.61433445       1.00435890       1.60814895
H        0.27919279       0.51309729       2.08052141
17
Frame=11 idx=009573 GeodesicLength=0.764579123619849 rxn_smarts="[C:1]1([H:8])([H:9])[C:2]([H:10])([H:11])[C:3]12[C:4]([H:12])([H:13])[C@@:5]1([H:14])[C:6]([H:15])([H:16])[C@@:7]21[H:17]>>[C:1]1([H:8])([H:9])[C:3](=[C:2]([H:10])[H:11])[C:4]([H:12])([H:13])[C:5]1([C:7](=[C:6]([H:15])[H:16])[H:17])[H:14]"
C       -1.41767827      -0.70605821       0.29606711
C       -1.78290771       0.86968550      -0.90157431
C       -0.60399552       0.30015030      -0.42432500
C        0.48352286      -0.56382412      -1.05489950
C        0.82532822      -0.88478678       0.40408530
C        1.96562614       0.73266785       0.78631425
C        0.62519849       0.44325358       1.06509552
H       -1.84049352      -1.58741484      -0.17567891
H       -1.88511129      -0.49380945       1.25387917
H       -1.93084041       0.95038204      -1.97305922
H       -2.34384075       1.56968318      -0.29480904
H        0.19923659      -1.44324511      -1.63398520
H        1.18229555       0.00225569      -1.67289772
H        1.29971882      -1.77914865       0.78972557
H        2.28941863       1.11931978      -0.17149674
H        2.63408897       0.96560629       1.60670370
H        0.30043320       0.50528295       2.10085499
17
Frame=12 idx=009573 GeodesicLength=0.834101450528852 rxn_smarts="[C:1]1([H:8])([H:9])[C:2]([H:10])([H:11])[C:3]12[C:4]([H:12])([H:13])[C@@:5]1([H:14])[C:6]([H:15])([H:16])[C@@:7]21[H:17]>>[C:1]1([H:8])([H:9])[C:3](=[C:2]([H:10])[H:11])[C:4]([H:12])([H:13])[C:5]1([C:7](=[C:6]([H:15])[H:16])[H:17])[H:14]"
C       -1.42092223      -0.69752332       0.29464959
C       -1.79598482       0.85546647      -0.90966493
C       -0.60811519       0.30518554      -0.43309145
C        0.48698048      -0.55330551      -1.05705334
C        0.82991258      -0.87119645       0.40315969
C        1.97258582       0.72012286       0.78688803
C        0.63131617       0.44770977       1.08021125
H       -1.84416021      -1.58685069      -0.16177055
H       -1.88521924      -0.48178189       1.25324214
H       -1.94130754       0.92420821      -1.98235379
H       -2.35317320       1.57000141      -0.31634644
H        0.21641750      -1.44014649      -1.63109970
H        1.17630230       0.01710996      -1.68137854
H        1.27828393      -1.77863172       0.78856576
H        2.28142602       1.14572336      -0.15972051
H        2.65322473       0.92739633       1.60415027
H        0.32243292       0.49651216       2.12161252
17
Frame=13 idx=009573 GeodesicLength=0.9036528643994352 rxn_smarts="[C:1]1([H:8])([H:9])[C:2]([H:10])([H:11])[C:3]12[C:4]([H:12])([H:13])[C@@:5]1([H:14])[C:6]([H:15])([H:16])[C@@:7]21[H:17]>>[C:1]1([H:8])([H:9])[C:3](=[C:2]([H:10])[H:11])[C:4]([H:12])([H:13])[C:5]1([C:7](=[C:6]([H:15])[H:16])[H:17])[H:14]"
C       -1.42426736      -0.68881939       0.29333271
C       -1.80876459       0.84120559      -0.91781167
C       -0.61231809       0.31018595      -0.44193670
C        0.49039329      -0.54263804      -1.05915642
C        0.83430997      -0.85773211       0.40227270
C        1.97912853       0.70803060       0.78716753
C        0.63771492       0.45164712       1.09584244
H       -1.84807946      -1.58589811      -0.14742518
H       -1.88533863      -0.46918594       1.25262256
H       -1.95152552       0.89741793      -1.99157566
H       -2.36252805       1.56998863      -0.33862449
H        0.23364652      -1.43656917      -1.62828787
H        1.17027504       0.03199194      -1.68967978
H        1.25676001      -1.77757084       0.78681925
H        2.27350589       1.17168271      -0.14657328
H        2.67184865       0.88954254       1.60038401
H        0.34523888       0.48672061       2.14262985
17
Frame=14 idx=009573 GeodesicLength=0.9732351356939517 rxn_smarts="[C:1]1([H:8])([H:9])[C:2]([H:10])([H:11])[C:3]12[C:4]([H:12])([H:13])[C@@:5]1([H:14])[C:6]([H:15])([H:16])[C@@:7]21[H:17]>>[C:1]1([H:8])([H:9])[C:3](=[C:2]([H:10])[H:11])[C:4]([H:12])([H:13])[C:5]1([C:7](=[C:6]([H:15])[H:16])[H:17])[H:14]"
C       -1.42773250      -0.67989965       0.29210744
C       -1.82132557       0.82687593      -0.92600961
C       -0.61663822       0.31513408      -0.45086297
C        0.49377657      -0.53180788      -1.06116523
C        0.83854838      -0.84436204       0.40142720
C        1.98524610       0.69634440       0.78717212
C        0.64438642       0.45500084       1.11195186
H       -1.85224949      -1.58446170      -0.13261406
H       -1.88550359      -0.45597000       1.25197656
H       -1.96150163       0.87006902      -2.00068896
H       -2.37203165       1.56958042      -0.36165445
H        0.25094455      -1.43244569      -1.62548573
H        1.16423492       0.04687781      -1.69774612
H        1.23530163      -1.77588305       0.78448067
H        2.26580841       1.19697120      -0.13208139
H        2.68989746       0.85216610       1.59540613
H        0.36883822       0.47581021       2.16378656
17
Frame=15 idx=009573 GeodesicLength=1.0428572491157797 rxn_smarts="[C:1]1([H:8])([H:9])[C:2]([H:10])([H:11])[C:3]12[C:4]([H:12])([H:13])[C@@:5]1([H:14])[C:6]([H:15])([H:16])[C@@:7]21[H:17]>>[C:1]1([H:8])([H:9])[C:3](=[C:2]([H:10])[H:11])[C:4]([H:12])([H:13])[C:5]1([C:7](=[C:6]([H:15])[H:16])[H:17])[H:14]"
C       -1.43131748      -0.67079916       0.29100834
C       -1.83366131       0.81253920      -0.93430027
C       -0.62107071       0.32004828      -0.45990421
C        0.49712413      -0.52086299      -1.06315590
C        0.84261794      -0.83114805       0.40064199
C        1.99094649       0.68510343       0.78695879
C        0.65133550       0.45776484       1.12862285
H       -1.85669040      -1.58262198      -0.11732308
H       -1.88570440      -0.44214027       1.25140174
H       -1.97120613       0.84225283      -2.00978236
H       -2.38166629       1.56886138      -0.38541888
H        0.26829961      -1.42789746      -1.62280086
H        1.15817789       0.06175086      -1.70571306
H        1.21393571      -1.77371950       0.78160049
H        2.25826621       1.22167423      -0.11634333
H        2.70737872       0.81539949       1.58931191
H        0.39323452       0.46379487       2.18519585
17
Frame=16 idx=009573 GeodesicLength=1.1124978259245482 rxn_smarts="[C:1]1([H:8])([H:9])[C:2]([H:10])([H:11])[C:3]12[C:4]([H:12])([H:13])[C@@:5]1([H:14])[C:6]([H:15])([H:16])[C@@:7]21[H:17]>>[C:1]1([H:8])([H:9])[C:3](=[C:2]([H:10])[H:11])[C:4]([H:12])([H:13])[C:5]1([C:7](=[C:6]([H:15])[H:16])[H:17])[H:14]"
C       -1.43502617      -0.66147568       0.29001226
C       -1.84577584       0.79814811      -0.94268126
C       -0.62561731       0.32491870      -0.46906172
C        0.50042545      -0.50977352      -1.06508391
C        0.84650486      -0.81804332       0.39991011
C        1.99623492       0.67428397       0.78655473
C        0.65857291       0.45989435       1.14583287
H       -1.86141983      -1.58029887      -0.10154192
H       -1.88593500      -0.42764163       1.25082659
H       -1.98063123       0.81390641      -2.01880120
H       -2.39143246       1.56773775      -0.40994384
H        0.28569276      -1.42286876      -1.62016905
H        1.15209741       0.07662065      -1.71350962
H        1.19268241      -1.77101404       0.77817265
H        2.25086786       1.24576181      -0.09936084
H        2.72430947       0.77922435       1.58209435
H        0.41844978       0.45061973       2.20674983
