14
Frame=0 idx=004188 GeodesicLength=0.0 rxn_smarts="[C:1]1([H:7])([H:8])[N:2]([H:9])[C@:3]1([C@@:4]1([H:11])[C:5]([H:12])([H:13])[N:6]1[H:14])[H:10]>>[C-:1]1([H:8])[N+:2]([H:7])([H:9])[C@:3]1([C@@:4]1([H:11])[C:5]([H:12])([H:13])[N:6]1[H:14])[H:10]"
C        2.00874291       0.25404812      -0.41813898
N        1.18683941      -1.15099859       0.25666147
C        0.68733370      -0.29049609      -0.80862545
C       -0.55978660       0.46564597      -0.44968038
C       -1.73375020      -0.17571038       0.17550020
N       -0.81427924       0.63756585       0.97207287
H        2.31863206      -0.98347350       0.09606225
H        1.85316761       1.00549923       0.36695023
H        0.83040291      -0.80676381       1.14721728
H        0.60912907      -0.80240004      -1.76602808
H       -0.76076197       1.30888300      -1.10336151
H       -1.71164181      -1.23611143       0.39882841
H       -2.71572222       0.22567514      -0.04813700
H       -1.19830565       1.54863652       1.18067863
14
Frame=1 idx=004188 GeodesicLength=0.0545391083393894 rxn_smarts="[C:1]1([H:7])([H:8])[N:2]([H:9])[C@:3]1([C@@:4]1([H:11])[C:5]([H:12])([H:13])[N:6]1[H:14])[H:10]>>[C-:1]1([H:8])[N+:2]([H:7])([H:9])[C@:3]1([C@@:4]1([H:11])[C:5]([H:12])([H:13])[N:6]1[H:14])[H:10]"
C        2.00687771       0.24850961      -0.41011841
N        1.19244980      -1.14089665       0.26026200
C        0.68509023      -0.28883970      -0.80764239
C       -0.56226266       0.46696983      -0.44959985
C       -1.73631502      -0.17521606       0.17466835
N       -0.81834226       0.63898917       0.97193901
H        2.33577799      -0.99800190       0.08016774
H        1.85714539       1.00714540       0.36845168
H        0.82953961      -0.80431170       1.15073173
H        0.60864121      -0.80361924      -1.76354817
H       -0.76329740       1.31013270      -1.10342561
H       -1.71326008      -1.23557495       0.39827105
H       -2.71856425       0.22493286      -0.04994538
H       -1.20348026       1.54978064       1.17978826
14
Frame=2 idx=004188 GeodesicLength=0.10903117566173764 rxn_smarts="[C:1]1([H:7])([H:8])[N:2]([H:9])[C@:3]1([C@@:4]1([H:11])[C:5]([H:12])([H:13])[N:6]1[H:14])[H:10]>>[C-:1]1([H:8])[N+:2]([H:7])([H:9])[C@:3]1([C@@:4]1([H:11])[C:5]([H:12])([H:13])[N:6]1[H:14])[H:10]"
C        2.00509188       0.24299919      -0.40212540
N        1.19813285      -1.13086341       0.26393538
C        0.68292522      -0.28722826      -0.80653929
C       -0.56467042       0.46826164      -0.44948811
C       -1.73884248      -0.17472463       0.17383115
N       -0.82235061       0.64035182       0.97183043
H        2.35234630      -1.01205017       0.06421937
H        1.86121296       1.00891547       0.36967684
H        0.82845757      -0.80215493       1.15418593
H        0.60821874      -0.80491753      -1.76091451
H       -0.76571291       1.31136521      -1.10345024
H       -1.71488909      -1.23504973       0.39766166
H       -2.72134362       0.22423047      -0.05176389
H       -1.20857639       1.55086485       1.17894068
14
Frame=3 idx=004188 GeodesicLength=0.16348943932477156 rxn_smarts="[C:1]1([H:7])([H:8])[N:2]([H:9])[C@:3]1([C@@:4]1([H:11])[C:5]([H:12])([H:13])[N:6]1[H:14])[H:10]>>[C-:1]1([H:8])[N+:2]([H:7])([H:9])[C@:3]1([C@@:4]1([H:11])[C:5]([H:12])([H:13])[N:6]1[H:14])[H:10]"
C        2.00338041       0.23752303      -0.39417179
N        1.20386614      -1.12092194       0.26766182
C        0.68083676      -0.28566774      -0.80533209
C       -0.56701923       0.46951738      -0.44935252
C       -1.74134188      -0.17423272       0.17299088
N       -0.82630329       0.64165651       0.97174797
H        2.36838827      -1.02559861       0.04828382
H        1.86536979       1.01078445       0.37064540
H        0.82718989      -0.80029157       1.15756744
H        0.60786023      -0.80628920      -1.75815577
H       -0.76802701       1.31257804      -1.10344345
H       -1.71653955      -1.23453385       0.39700734
H       -2.72407483       0.22357621      -0.05358700
H       -1.21358570       1.55190000       1.17813794
14
Frame=4 idx=004188 GeodesicLength=0.21791374472988084 rxn_smarts="[C:1]1([H:7])([H:8])[N:2]([H:9])[C@:3]1([C@@:4]1([H:11])[C:5]([H:12])([H:13])[N:6]1[H:14])[H:10]>>[C-:1]1([H:8])[N+:2]([H:7])([H:9])[C@:3]1([C@@:4]1([H:11])[C:5]([H:12])([H:13])[N:6]1[H:14])[H:10]"
C        2.00173223       0.23208787      -0.38626967
N        1.20962013      -1.11108317       0.27143018
C        0.67881878      -0.28416010      -0.80402794
C       -0.56931167       0.47073549      -0.44919528
C       -1.74381641      -0.17373897       0.17214730
N       -0.83019969       0.64290032       0.97168855
H        2.38394442      -1.03863425       0.03240388
H        1.86961553       1.01272734       0.37136818
H        0.82576341      -0.79870709       1.16086689
H        0.60755746      -0.80772936      -1.75528045
H       -0.77024248       1.31376936      -1.10340615
H       -1.71822005      -1.23402513       0.39630930
H       -2.72675889       0.22297402      -0.05541248
H       -1.21850275       1.55288367       1.17737766
14
Frame=5 idx=004188 GeodesicLength=0.2723084132635167 rxn_smarts="[C:1]1([H:7])([H:8])[N:2]([H:9])[C@:3]1([C@@:4]1([H:11])[C:5]([H:12])([H:13])[N:6]1[H:14])[H:10]>>[C-:1]1([H:8])[N+:2]([H:7])([H:9])[C@:3]1([C@@:4]1([H:11])[C:5]([H:12])([H:13])[N:6]1[H:14])[H:10]"
C        2.00013787       0.22669829      -0.37842845
N        1.21537006      -1.10135699       0.27523125
C        0.67686535      -0.28270754      -0.80263439
C       -0.57155186       0.47191532      -0.44901882
C       -1.74627061      -0.17324143       0.17129993
N       -0.83404097       0.64408243       0.97165040
H        2.39906142      -1.05115086       0.01661330
H        1.87395010       1.01472060       0.37185867
H        0.82420490      -0.79738639       1.16407866
H        0.60730282      -0.80923503      -1.75229842
H       -0.77236515       1.31493858      -1.10334030
H       -1.71993835      -1.23352145       0.39556865
H       -2.72939979       0.22242827      -0.05723924
H       -1.22332579       1.55381620       1.17665877
14
Frame=6 idx=004188 GeodesicLength=0.32668064800783003 rxn_smarts="[C:1]1([H:7])([H:8])[N:2]([H:9])[C@:3]1([C@@:4]1([H:11])[C:5]([H:12])([H:13])[N:6]1[H:14])[H:10]>>[C-:1]1([H:8])[N+:2]([H:7])([H:9])[C@:3]1([C@@:4]1([H:11])[C:5]([H:12])([H:13])[N:6]1[H:14])[H:10]"
C        1.99858875       0.22135771      -0.37065532
N        1.22109510      -1.09175246       0.27905799
C        0.67497059      -0.28131213      -0.80115939
C       -0.57374492       0.47305728      -0.44882596
C       -1.74870952      -0.17273808       0.17044815
N       -0.83782957       0.64520387       0.97163306
H        2.41378985      -1.06314876       0.00093761
H        1.87837312       1.01674325       0.37213190
H        0.82253975      -0.79631497       1.16720106
H        0.60708927      -0.81080499      -1.74922085
H       -0.77440273       1.31608691      -1.10324926
H       -1.72170101      -1.23302183       0.39478660
H       -2.73200299       0.22194336      -0.05906713
H       -1.22805569       1.55470084       1.17598153
14
Frame=7 idx=004188 GeodesicLength=0.38102003548929125 rxn_smarts="[C:1]1([H:7])([H:8])[N:2]([H:9])[C@:3]1([C@@:4]1([H:11])[C:5]([H:12])([H:13])[N:6]1[H:14])[H:10]>>[C-:1]1([H:8])[N+:2]([H:7])([H:9])[C@:3]1([C@@:4]1([H:11])[C:5]([H:12])([H:13])[N:6]1[H:14])[H:10]"
C        1.99707669       0.21606639      -0.36295542
N        1.22677266      -1.08227401       0.28290385
C        0.67312885      -0.27997574      -0.79960699
C       -0.57589271       0.47415926      -0.44861724
C       -1.75113711      -0.17222701       0.16959164
N       -0.84156674       0.64626205       0.97163229
H        2.42817146      -1.07461893      -0.01460545
H        1.88288320       1.01877412       0.37219836
H        0.82078468      -0.79547548       1.17022863
H        0.60691037      -0.81243610      -1.74605027
H       -0.77635489       1.31721079      -1.10313090
H       -1.72351704      -1.23252130       0.39396357
H       -2.73457031       0.22152248      -0.06089367
H       -1.23268911       1.55553348       1.17534159
14
Frame=8 idx=004188 GeodesicLength=0.43534876106272424 rxn_smarts="[C:1]1([H:7])([H:8])[N:2]([H:9])[C@:3]1([C@@:4]1([H:11])[C:5]([H:12])([H:13])[N:6]1[H:14])[H:10]>>[C-:1]1([H:8])[N+:2]([H:7])([H:9])[C@:3]1([C@@:4]1([H:11])[C:5]([H:12])([H:13])[N:6]1[H:14])[H:10]"
C        1.99559665       0.21082698      -0.35532759
N        1.23238762      -1.07292565       0.28676640
C        0.67133527      -0.27869491      -0.79798209
C       -0.57800106       0.47522513      -0.44839454
C       -1.75355703      -0.17170602       0.16873104
N       -0.84525753       0.64726635       0.97164781
H        2.44225833      -1.08558148      -0.03002030
H        1.88748540       1.02079061       0.37208357
H        0.81896025      -0.79485319       1.17316574
H        0.60676112      -0.81412492      -1.74279398
H       -0.77823625       1.31830875      -1.10299445
H       -1.72538656      -1.23201902       0.39310325
H       -2.73710921       0.22116273      -0.06271945
H       -1.23723700       1.55632465       1.17473458
14
Frame=9 idx=004188 GeodesicLength=0.48965953295298087 rxn_smarts="[C:1]1([H:7])([H:8])[N:2]([H:9])[C@:3]1([C@@:4]1([H:11])[C:5]([H:12])([H:13])[N:6]1[H:14])[H:10]>>[C-:1]1([H:8])[N+:2]([H:7])([H:9])[C@:3]1([C@@:4]1([H:11])[C:5]([H:12])([H:13])[N:6]1[H:14])[H:10]"
C        1.99413958       0.20563894      -0.34777653
N        1.23792422      -1.06371219       0.29064291
C        0.66958387      -0.27747464      -0.79629064
C       -0.58007339       0.47625309      -0.44815998
C       -1.75597447      -0.17117375       0.16786496
N       -0.84890462       0.64821299       0.97167881
H        2.45609657      -1.09603237      -0.04529402
H        1.89217271       1.02278048       0.37179422
H        0.81708141      -0.79443386       1.17601451
H        0.60663576      -0.81587370      -1.73945934
H       -0.78004527       1.31938390      -1.10283770
H       -1.72731883      -1.23151333       0.39220673
H       -2.73962192       0.22087181      -0.06454604
H       -1.24169561       1.55707264       1.17416210
14
Frame=10 idx=004188 GeodesicLength=0.5439546883964927 rxn_smarts="[C:1]1([H:7])([H:8])[N:2]([H:9])[C@:3]1([C@@:4]1([H:11])[C:5]([H:12])([H:13])[N:6]1[H:14])[H:10]>>[C-:1]1([H:8])[N+:2]([H:7])([H:9])[C@:3]1([C@@:4]1([H:11])[C:5]([H:12])([H:13])[N:6]1[H:14])[H:10]"
C        1.99270003       0.20050113      -0.34030153
N        1.24337040      -1.05463679       0.29453303
C        0.66786977      -0.27631645      -0.79453642
C       -0.58211375       0.47724376      -0.44791488
C       -1.75839407      -0.17062846       0.16699272
N       -0.85251208       0.64910474       0.97172460
H        2.46973236      -1.10597802      -0.06043134
H        1.89694415       1.02472935       0.37134470
H        0.81516128      -0.79420373       1.17877971
H        0.60652954      -0.81768351      -1.73605107
H       -0.78178673       1.32043694      -1.10266279
H       -1.72931895      -1.23100286       0.39127542
H       -2.74211346       0.22065223      -0.06637477
H       -1.24606849       1.55778168       1.17362263
14
Frame=11 idx=004188 GeodesicLength=0.5982369974417812 rxn_smarts="[C:1]1([H:7])([H:8])[N:2]([H:9])[C@:3]1([C@@:4]1([H:11])[C:5]([H:12])([H:13])[N:6]1[H:14])[H:10]>>[C-:1]1([H:8])[N+:2]([H:7])([H:9])[C@:3]1([C@@:4]1([H:11])[C:5]([H:12])([H:13])[N:6]1[H:14])[H:10]"
C        1.99127441       0.19541026      -0.33289973
N        1.24871426      -1.04569974       0.29843712
C        0.66618825      -0.27522181      -0.79272085
C       -0.58412535       0.47819656      -0.44765927
C       -1.76082120      -0.17006816       0.16611329
N       -0.85608370       0.64994350       0.97178318
H        2.48320899      -1.11542148      -0.07544286
H        1.90180131       1.02662313       0.37074814
H        0.81321058      -0.79414719       1.18146455
H        0.60643728      -0.81955523      -1.73256979
H       -0.78346300       1.32146521      -1.10246924
H       -1.73139404      -1.23048361       0.39030946
H       -2.74458955       0.22050548      -0.06820704
H       -1.25035825       1.55845308       1.17311304
14
Frame=12 idx=004188 GeodesicLength=0.6525073160713015 rxn_smarts="[C:1]1([H:7])([H:8])[N:2]([H:9])[C@:3]1([C@@:4]1([H:11])[C:5]([H:12])([H:13])[N:6]1[H:14])[H:10]>>[C-:1]1([H:8])[N+:2]([H:7])([H:9])[C@:3]1([C@@:4]1([H:11])[C:5]([H:12])([H:13])[N:6]1[H:14])[H:10]"
C        1.98985614       0.19036418      -0.32556751
N        1.25394994      -1.03690130       0.30236212
C        0.66453530      -0.27419037      -0.79084317
C       -0.58611072       0.47911443      -0.44739346
C       -1.76325605      -0.16949075       0.16522535
N       -0.85962489       0.65073167       0.97185469
H        2.49656280      -1.12437727      -0.09035332
H        1.90673888       1.02845046       0.37001622
H        0.81123714      -0.79425097       1.18408117
H        0.60635588      -0.82149021      -1.72901383
H       -0.78507881       1.32247076      -1.10226250
H       -1.73354328      -1.22995493       0.38930930
H       -2.74704941       0.22043424      -0.07004657
H       -1.25457292       1.55909005       1.17263150
14
Frame=13 idx=004188 GeodesicLength=0.7067677102771412 rxn_smarts="[C:1]1([H:7])([H:8])[N:2]([H:9])[C@:3]1([C@@:4]1([H:11])[C:5]([H:12])([H:13])[N:6]1[H:14])[H:10]>>[C-:1]1([H:8])[N+:2]([H:7])([H:9])[C@:3]1([C@@:4]1([H:11])[C:5]([H:12])([H:13])[N:6]1[H:14])[H:10]"
C        1.98843950       0.18536178      -0.31830100
N        1.25906020      -1.02824083       0.30630567
C        0.66290588      -0.27322253      -0.78890521
C       -0.58807084       0.47999535      -0.44711766
C       -1.76570260      -0.16889634       0.16433020
N       -0.86313756       0.65147191       0.97193482
H        2.50983250      -1.13284349      -0.10517318
H        1.91175773       1.03019804       0.36916263
H        0.80924286      -0.79450378       1.18662937
H        0.60628129      -0.82348678      -1.72538328
H       -0.78663021       1.32344988      -1.10204049
H       -1.73577415      -1.22941412       0.38828078
H       -2.74949488       0.22043603      -0.07189277
H       -1.25870972       1.55969488       1.17217012
14
Frame=14 idx=004188 GeodesicLength=0.7610207231347003 rxn_smarts="[C:1]1([H:7])([H:8])[N:2]([H:9])[C@:3]1([C@@:4]1([H:11])[C:5]([H:12])([H:13])[N:6]1[H:14])[H:10]>>[C-:1]1([H:8])[N+:2]([H:7])([H:9])[C@:3]1([C@@:4]1([H:11])[C:5]([H:12])([H:13])[N:6]1[H:14])[H:10]"
C        1.98702430       0.18039650      -0.31109553
N        1.26404591      -1.01972266       0.31027235
C        0.66129785      -0.27232259      -0.78691027
C       -0.59001136       0.48084032      -0.44683395
C       -1.76816703      -0.16828150       0.16342654
N       -0.86662778       0.65216938       0.97202631
H        2.52306193      -1.14082553      -0.11992233
H        1.91685550       1.03185664       0.36820151
H        0.80723676      -0.79489746       1.18912087
H        0.60621228      -0.82555165      -1.72168488
H       -0.78812599       1.32440479      -1.10180794
H       -1.73808964      -1.22885933       0.38722449
H       -2.75193555       0.22051704      -0.07374863
H       -1.26277718       1.56027606       1.17173146
14
Frame=15 idx=004188 GeodesicLength=0.8152638634322726 rxn_smarts="[C:1]1([H:7])([H:8])[N:2]([H:9])[C@:3]1([C@@:4]1([H:11])[C:5]([H:12])([H:13])[N:6]1[H:14])[H:10]>>[C-:1]1([H:8])[N+:2]([H:7])([H:9])[C@:3]1([C@@:4]1([H:11])[C:5]([H:12])([H:13])[N:6]1[H:14])[H:10]"
C        1.98560565       0.17546462      -0.30394547
N        1.26889783      -1.01134550       0.31426653
C        0.65970736      -0.27149165      -0.78485654
C       -0.59193267       0.48164889      -0.44654171
C       -1.77065110      -0.16764518       0.16251404
N       -0.87009864       0.65282576       0.97212652
H        2.53628254      -1.14832345      -0.13462534
H        1.92202963       1.03341667       0.36714222
H        0.80521803      -0.79542179       1.19156186
H        0.60614574      -0.82768639      -1.71791404
H       -0.78956325       1.32533357      -1.10156480
H       -1.74049389      -1.22828821       0.38614248
H       -2.75437093       0.22067771      -0.07561574
H       -1.26677630       1.56083495       1.17130999
14
Frame=16 idx=004188 GeodesicLength=0.8694976736457329 rxn_smarts="[C:1]1([H:7])([H:8])[N:2]([H:9])[C@:3]1([C@@:4]1([H:11])[C:5]([H:12])([H:13])[N:6]1[H:14])[H:10]>>[C-:1]1([H:8])[N+:2]([H:7])([H:9])[C@:3]1([C@@:4]1([H:11])[C:5]([H:12])([H:13])[N:6]1[H:14])[H:10]"
C        1.98417724       0.17056211      -0.29684252
N        1.27360833      -1.00311243       0.31828896
C        0.65813083      -0.27073128      -0.78274668
C       -0.59383883       0.48241809      -0.44624430
C       -1.77315784      -0.16698538       0.16159381
N       -0.87355109       0.65344415       0.97223213
H        2.54953115      -1.15533277      -0.14929834
H        1.92727358       1.03486563       0.36600268
H        0.80318626      -0.79607285       1.19395668
H        0.60608215      -0.82988928      -1.71407533
H       -0.79094808       1.32623076      -1.10131745
H       -1.74298840      -1.22769727       0.38504208
H       -2.75680359       0.22092269      -0.07749179
H       -1.27070171       1.56137785       1.17090006
