15
Frame=0 idx=009050 GeodesicLength=0.0 rxn_smarts="[N:1]([C@@:2]([C:3]#[N:4])([C:5]1([H:11])[C:6]([H:12])([H:13])[C:7]1([H:14])[H:15])[H:10])([H:8])[H:9]>>[N:1]([N:4]=[C:3]=[C:2]([C:5]1([H:11])[C:6]([H:12])([H:13])[C:7]1([H:14])[H:15])[H:10])([H:8])[H:9]"
N        2.67743269      -0.41387859       0.26427802
C        0.31258406       0.58814323       0.59702321
C        1.32803381       1.46839949       0.39906311
N        2.43375648       1.82740138       0.21039892
C       -0.68309267       0.25481873      -0.41421422
C       -2.14571818       0.18858718      -0.01143807
C       -1.40647329      -1.06604302      -0.30104245
H        3.43077940      -1.11425670       0.16839376
H        2.36963423      -0.30334159      -0.70333512
H        0.14114565       0.27796092       1.62285139
H       -0.47274477       0.61492054      -1.41282698
H       -2.38432405       0.42015740       1.01815306
H       -2.86353321       0.55003815      -0.73526044
H       -1.60886169      -1.58616277      -1.22746093
H       -1.12861846      -1.70674438       0.52541674
15
Frame=1 idx=009050 GeodesicLength=0.05333123185043369 rxn_smarts="[N:1]([C@@:2]([C:3]#[N:4])([C:5]1([H:11])[C:6]([H:12])([H:13])[C:7]1([H:14])[H:15])[H:10])([H:8])[H:9]>>[N:1]([N:4]=[C:3]=[C:2]([C:5]1([H:11])[C:6]([H:12])([H:13])[C:7]1([H:14])[H:15])[H:10])([H:8])[H:9]"
N        2.65451596      -0.41442323       0.25204047
C        0.32550923       0.56162303       0.59648742
C        1.32149640       1.46857677       0.40394106
N        2.43342272       1.81550119       0.22343846
C       -0.67714579       0.24118185      -0.41512524
C       -2.13966640       0.19820459      -0.01298232
C       -1.41835735      -1.06867127      -0.29923999
H        3.46126166      -1.05291429       0.18076322
H        2.36971763      -0.31095483      -0.72266185
H        0.14152114       0.26333025       1.62379623
H       -0.46199600       0.59601682      -1.41475700
H       -2.37573882       0.43518815       1.01602531
H       -2.85300640       0.56733343      -0.73737133
H       -1.62977474      -1.58860669      -1.22377697
H       -1.15175924      -1.71138576       0.52942254
15
Frame=2 idx=009050 GeodesicLength=0.10636254980527751 rxn_smarts="[N:1]([C@@:2]([C:3]#[N:4])([C:5]1([H:11])[C:6]([H:12])([H:13])[C:7]1([H:14])[H:15])[H:10])([H:8])[H:9]>>[N:1]([N:4]=[C:3]=[C:2]([C:5]1([H:11])[C:6]([H:12])([H:13])[C:7]1([H:14])[H:15])[H:10])([H:8])[H:9]"
N        2.63501509      -0.41306431       0.24045528
C        0.33888536       0.53504302       0.59480254
C        1.31482549       1.46824229       0.40786687
N        2.43183898       1.80482366       0.23333059
C       -0.67154602       0.22787715      -0.41641100
C       -2.13316749       0.20740623      -0.01358177
C       -1.42997107      -1.07098115      -0.29827772
H        3.48469117      -0.99282702       0.19784238
H        2.37161575      -0.31939524      -0.74052694
H        0.14369260       0.24699453       1.62312499
H       -0.45275771       0.57829908      -1.41694462
H       -2.36560325       0.44886823       1.01526553
H       -2.84269582       0.58464471      -0.73752970
H       -1.65121545      -1.58980929      -1.22117438
H       -1.17360765      -1.71612189       0.53175794
15
Frame=3 idx=009050 GeodesicLength=0.1591265243162828 rxn_smarts="[N:1]([C@@:2]([C:3]#[N:4])([C:5]1([H:11])[C:6]([H:12])([H:13])[C:7]1([H:14])[H:15])[H:10])([H:8])[H:9]>>[N:1]([N:4]=[C:3]=[C:2]([C:5]1([H:11])[C:6]([H:12])([H:13])[C:7]1([H:14])[H:15])[H:10])([H:8])[H:9]"
N        2.61800096      -0.41038792       0.22937663
C        0.35239342       0.50892271       0.59244148
C        1.30806238       1.46763795       0.41138513
N        2.42938947       1.79516807       0.24087706
C       -0.66613325       0.21497512      -0.41788602
C       -2.12633524       0.21618795      -0.01360456
C       -1.44105167      -1.07302107      -0.29779434
H        3.50214902      -0.93432743       0.21740004
H        2.37457848      -0.32859281      -0.75709141
H        0.14701855       0.22960825       1.62138241
H       -0.44444481       0.56159685      -1.41923415
H       -2.35456359       0.46146492       1.01532316
H       -2.83248315       0.60166567      -0.73651006
H       -1.67240680      -1.59014403      -1.21918536
H       -1.19417378      -1.72075425       0.53312001
15
Frame=4 idx=009050 GeodesicLength=0.2117513423293561 rxn_smarts="[N:1]([C@@:2]([C:3]#[N:4])([C:5]1([H:11])[C:6]([H:12])([H:13])[C:7]1([H:14])[H:15])[H:10])([H:8])[H:9]>>[N:1]([N:4]=[C:3]=[C:2]([C:5]1([H:11])[C:6]([H:12])([H:13])[C:7]1([H:14])[H:15])[H:10])([H:8])[H:9]"
N        2.60247837      -0.40686732       0.21875482
C        0.36580269       0.48391371       0.58975635
C        1.30129511       1.46707333       0.41473740
N        2.42636492       1.78630655       0.24646065
C       -0.66080013       0.20274117      -0.41944141
C       -2.11916954       0.22441318      -0.01321918
C       -1.45110292      -1.07480716      -0.29766015
H        3.51378372      -0.87815812       0.23821292
H        2.37778352      -0.33862614      -0.77249582
H        0.15110412       0.21200226       1.61905157
H       -0.43683204       0.54616852      -1.42156215
H       -2.34295952       0.47286802       1.01600216
H       -2.82234191       0.61796262      -0.73471698
H       -1.69246682      -1.58981977      -1.21770452
H       -1.21293956      -1.72517083       0.53382434
15
Frame=5 idx=009050 GeodesicLength=0.2645384528507151 rxn_smarts="[N:1]([C@@:2]([C:3]#[N:4])([C:5]1([H:11])[C:6]([H:12])([H:13])[C:7]1([H:14])[H:15])[H:10])([H:8])[H:9]>>[N:1]([N:4]=[C:3]=[C:2]([C:5]1([H:11])[C:6]([H:12])([H:13])[C:7]1([H:14])[H:15])[H:10])([H:8])[H:9]"
N        2.58843191      -0.40234983       0.20862166
C        0.37915920       0.45955773       0.58683040
C        1.29439377       1.46635552       0.41834288
N        2.42257667       1.77831055       0.25064118
C       -0.65544369       0.19077306      -0.42101538
C       -2.11159707       0.23231293      -0.01266645
C       -1.46059454      -1.07638690      -0.29767689
H        3.52093628      -0.82354297       0.25909336
H        2.38116337      -0.34925717      -0.78663057
H        0.15585272       0.19379306       1.61613228
H       -0.42949217       0.53123652      -1.42381167
H       -2.33074438       0.48367940       1.01686918
H       -2.81187876       0.63382690      -0.73254383
H       -1.71194431      -1.58903976      -1.21637362
H       -1.23081900      -1.72926904       0.53418748
15
Frame=6 idx=009050 GeodesicLength=0.3170651695667496 rxn_smarts="[N:1]([C@@:2]([C:3]#[N:4])([C:5]1([H:11])[C:6]([H:12])([H:13])[C:7]1([H:14])[H:15])[H:10])([H:8])[H:9]>>[N:1]([N:4]=[C:3]=[C:2]([C:5]1([H:11])[C:6]([H:12])([H:13])[C:7]1([H:14])[H:15])[H:10])([H:8])[H:9]"
N        2.57605426      -0.39685580       0.19909987
C        0.39244840       0.43578329       0.58355267
C        1.28727953       1.46558152       0.42197732
N        2.41811631       1.77131334       0.25345791
C       -0.65022593       0.17910356      -0.42272820
C       -2.10391868       0.23994758      -0.01188554
C       -1.46969558      -1.07779621      -0.29784093
H        3.52466415      -0.77085979       0.28026008
H        2.38538274      -0.36041312      -0.79956637
H        0.16118887       0.17494148       1.61270160
H       -0.42262439       0.51691361      -1.42624456
H       -2.31820621       0.49391466       1.01811428
H       -2.80151176       0.64943435      -0.72995247
H       -1.73106722      -1.58780784      -1.21524713
H       -1.24788448      -1.73320061       0.53430147
15
Frame=7 idx=009050 GeodesicLength=0.3697714553170176 rxn_smarts="[N:1]([C@@:2]([C:3]#[N:4])([C:5]1([H:11])[C:6]([H:12])([H:13])[C:7]1([H:14])[H:15])[H:10])([H:8])[H:9]>>[N:1]([N:4]=[C:3]=[C:2]([C:5]1([H:11])[C:6]([H:12])([H:13])[C:7]1([H:14])[H:15])[H:10])([H:8])[H:9]"
N        2.56525631      -0.39020982       0.19030432
C        0.40578752       0.41226362       0.57943076
C        1.27977492       1.46459933       0.42528292
N        2.41268737       1.76537103       0.25497507
C       -0.64527793       0.16759204      -0.42473279
C       -2.09599617       0.24737317      -0.01069053
C       -1.47867147      -1.07901037      -0.29824328
H        3.52531294      -0.71992104       0.30256310
H        2.39115603      -0.37196506      -0.81118803
H        0.16733215       0.15526625       1.60822598
H       -0.41660062       0.50303476      -1.42894219
H       -2.30483067       0.50365062       1.01991056
H       -2.79114703       0.66494458      -0.72646043
H       -1.75046190      -1.58602837      -1.21431019
H       -1.26432145      -1.73696074       0.53387473
15
Frame=8 idx=009050 GeodesicLength=0.422603882383487 rxn_smarts="[N:1]([C@@:2]([C:3]#[N:4])([C:5]1([H:11])[C:6]([H:12])([H:13])[C:7]1([H:14])[H:15])[H:10])([H:8])[H:9]>>[N:1]([N:4]=[C:3]=[C:2]([C:5]1([H:11])[C:6]([H:12])([H:13])[C:7]1([H:14])[H:15])[H:10])([H:8])[H:9]"
N        2.55496290      -0.38302229       0.18180325
C        0.41883304       0.38971542       0.57551185
C        1.27206299       1.46367031       0.42925966
N        2.40663964       1.76004098       0.25585804
C       -0.64017766       0.15640102      -0.42660077
C       -2.08772479       0.25452218      -0.00960299
C       -1.48685149      -1.08006335      -0.29859332
H        3.52289639      -0.67079733       0.32320605
H        2.39630991      -0.38412587      -0.82170800
H        0.17356899       0.13557884       1.60371170
H       -0.41039135       0.48952704      -1.43143043
H       -2.29130337       0.51304600       1.02151867
H       -2.78032287       0.67989785      -0.72318257
H       -1.76865818      -1.58407964      -1.21329594
H       -1.27984416      -1.74031117       0.53354481
15
Frame=9 idx=009050 GeodesicLength=0.47527614326002865 rxn_smarts="[N:1]([C@@:2]([C:3]#[N:4])([C:5]1([H:11])[C:6]([H:12])([H:13])[C:7]1([H:14])[H:15])[H:10])([H:8])[H:9]>>[N:1]([N:4]=[C:3]=[C:2]([C:5]1([H:11])[C:6]([H:12])([H:13])[C:7]1([H:14])[H:15])[H:10])([H:8])[H:9]"
N        2.54580137      -0.37510057       0.17378363
C        0.43177628       0.36769856       0.57135028
C        1.26415847       1.46267085       0.43346206
N        2.40009516       1.75552188       0.25598553
C       -0.63521424       0.14540661      -0.42858371
C       -2.07944272       0.26147577      -0.00845197
C       -1.49483648      -1.08098332      -0.29896024
H        3.51857409      -0.62324456       0.34336124
H        2.40221305      -0.39666782      -0.83112009
H        0.18015390       0.11542078       1.59886262
H       -0.40447506       0.47636576      -1.43409510
H       -2.27763193       0.52210385       1.02326525
H       -2.76957233       0.69461686      -0.71980047
H       -1.78667494      -1.58183882      -1.21229089
H       -1.29492462      -1.74344582       0.53323184
15
Frame=10 idx=009050 GeodesicLength=0.5281766260759341 rxn_smarts="[N:1]([C@@:2]([C:3]#[N:4])([C:5]1([H:11])[C:6]([H:12])([H:13])[C:7]1([H:14])[H:15])[H:10])([H:8])[H:9]>>[N:1]([N:4]=[C:3]=[C:2]([C:5]1([H:11])[C:6]([H:12])([H:13])[C:7]1([H:14])[H:15])[H:10])([H:8])[H:9]"
N        2.53763361      -0.36636741       0.16621779
C        0.44466562       0.34594858       0.56658917
C        1.25583269       1.46145307       0.43768233
N        2.39266293       1.75181035       0.25542838
C       -0.63043665       0.13446998      -0.43076929
C       -2.07094809       0.26832230      -0.00710808
C       -1.50274180      -1.08175186      -0.29937786
H        3.51235951      -0.57698602       0.36361602
H        2.40931956      -0.40950620      -0.83937462
H        0.18722751       0.09459173       1.59324990
H       -0.39905021       0.46334815      -1.43694946
H       -2.26335659       0.53098226       1.02523766
H       -2.75865284       0.70928657      -0.71597206
H       -1.80485458      -1.57925917      -1.21121966
H       -1.30966066      -1.74634234       0.53274975
15
Frame=11 idx=009050 GeodesicLength=0.5810951194815691 rxn_smarts="[N:1]([C@@:2]([C:3]#[N:4])([C:5]1([H:11])[C:6]([H:12])([H:13])[C:7]1([H:14])[H:15])[H:10])([H:8])[H:9]>>[N:1]([N:4]=[C:3]=[C:2]([C:5]1([H:11])[C:6]([H:12])([H:13])[C:7]1([H:14])[H:15])[H:10])([H:8])[H:9]"
N        2.53001523      -0.35715953       0.15903039
C        0.45734903       0.32485098       0.56179568
C        1.24726175       1.46017558       0.44235697
N        2.38464406       1.74868101       0.25432616
C       -0.62568131       0.12376344      -0.43294290
C       -2.06230418       0.27498766      -0.00579824
C       -1.51023340      -1.08237311      -0.29978609
H        3.50454933      -0.53205100       0.38260720
H        2.41645160      -0.42297697      -0.84643277
H        0.19440537       0.07360338       1.58745709
H       -0.39368572       0.45064157      -1.43976662
H       -2.24895918       0.53958874       1.02715660
H       -2.74753231       0.72366284      -0.71219858
H       -1.82243931      -1.57644988      -1.21010807
H       -1.32384098      -1.74894471       0.53230319
15
Frame=12 idx=009050 GeodesicLength=0.6340743797355226 rxn_smarts="[N:1]([C@@:2]([C:3]#[N:4])([C:5]1([H:11])[C:6]([H:12])([H:13])[C:7]1([H:14])[H:15])[H:10])([H:8])[H:9]>>[N:1]([N:4]=[C:3]=[C:2]([C:5]1([H:11])[C:6]([H:12])([H:13])[C:7]1([H:14])[H:15])[H:10])([H:8])[H:9]"
N        2.52305874      -0.34739221       0.15215166
C        0.46990409       0.30424479       0.55666293
C        1.23843093       1.45876657       0.44719356
N        2.37605923       1.74613569       0.25276091
C       -0.62107615       0.11322967      -0.43523840
C       -2.05358940       0.28148922      -0.00440965
C       -1.51753079      -1.08284858      -0.30019455
H        3.49534020      -0.48842570       0.40110674
H        2.42437929      -0.43681655      -0.85238903
H        0.20183191       0.05231451       1.58122168
H       -0.38864322       0.43820073      -1.44271848
H       -2.23431543       0.54794209       1.02917601
H       -2.73638672       0.73781153      -0.70824702
H       -1.83986985      -1.57336744      -1.20891977
H       -1.33759283      -1.75128432       0.53184341
15
Frame=13 idx=009050 GeodesicLength=0.6871079500302562 rxn_smarts="[N:1]([C@@:2]([C:3]#[N:4])([C:5]1([H:11])[C:6]([H:12])([H:13])[C:7]1([H:14])[H:15])[H:10])([H:8])[H:9]>>[N:1]([N:4]=[C:3]=[C:2]([C:5]1([H:11])[C:6]([H:12])([H:13])[C:7]1([H:14])[H:15])[H:10])([H:8])[H:9]"
N        2.51672917      -0.33713604       0.14563557
C        0.48234622       0.28407627       0.55120376
C        1.22933969       1.45721710       0.45224044
N        2.36687639       1.74417976       0.25067582
C       -0.61663124       0.10285686      -0.43765665
C       -2.04480371       0.28785753      -0.00294847
C       -1.52467922      -1.08319678      -0.30063100
H        3.48503294      -0.44583729       0.41902082
H        2.43300942      -0.45119986      -0.85711380
H        0.20950610       0.03069869       1.57456117
H       -0.38393635       0.42603336      -1.44580448
H       -2.21940248       0.55606719       1.03129992
H       -2.72519602       0.75181940      -0.70412417
H       -1.85721163      -1.57001939      -1.20769904
H       -1.35097927      -1.75341681       0.53134012
15
Frame=14 idx=009050 GeodesicLength=0.7402531560257035 rxn_smarts="[N:1]([C@@:2]([C:3]#[N:4])([C:5]1([H:11])[C:6]([H:12])([H:13])[C:7]1([H:14])[H:15])[H:10])([H:8])[H:9]>>[N:1]([N:4]=[C:3]=[C:2]([C:5]1([H:11])[C:6]([H:12])([H:13])[C:7]1([H:14])[H:15])[H:10])([H:8])[H:9]"
N        2.51092861      -0.32642774       0.13943475
C        0.49466727       0.26434363       0.54536738
C        1.21999744       1.45549154       0.45743309
N        2.35711132       1.74272089       0.24807765
C       -0.61235563       0.09266331      -0.44020106
C       -2.03595115       0.29407564      -0.00139189
C       -1.53167101      -1.08339495      -0.30109394
H        3.47368583      -0.40421696       0.43641636
H        2.44240434      -0.46613353      -0.86055878
H        0.21739144       0.00880768       1.56741299
H       -0.37958319       0.41417386      -1.44900705
H       -2.20422211       0.56392017       1.03353408
H       -2.71396480       0.76565906      -0.69976996
H       -1.87445377      -1.56636340      -1.20641880
H       -1.36398460      -1.75531921       0.53076518
15
Frame=15 idx=009050 GeodesicLength=0.7934378751676332 rxn_smarts="[N:1]([C@@:2]([C:3]#[N:4])([C:5]1([H:11])[C:6]([H:12])([H:13])[C:7]1([H:14])[H:15])[H:10])([H:8])[H:9]>>[N:1]([N:4]=[C:3]=[C:2]([C:5]1([H:11])[C:6]([H:12])([H:13])[C:7]1([H:14])[H:15])[H:10])([H:8])[H:9]"
N        2.50542775      -0.31543249       0.13349979
C        0.50682339       0.24528149       0.53925013
C        1.21052797       1.45372809       0.46272085
N        2.34694534       1.74164983       0.24495570
C       -0.60825453       0.08281794      -0.44283798
C       -2.02709005       0.30007349       0.00027202
C       -1.53832481      -1.08345483      -0.30162907
H        3.46125811      -0.36381029       0.45321795
H        2.45230014      -0.48180155      -0.86269030
H        0.22540595      -0.01296934       1.55990942
H       -0.37563329       0.40287863      -1.45228621
H       -2.18891813       0.57134425       1.03591241
H       -2.70284387       0.77916870      -0.69517561
H       -1.89130126      -1.56243960      -1.20517300
H       -1.37632270      -1.75703431       0.53005391
15
Frame=16 idx=009050 GeodesicLength=0.8466420034460691 rxn_smarts="[N:1]([C@@:2]([C:3]#[N:4])([C:5]1([H:11])[C:6]([H:12])([H:13])[C:7]1([H:14])[H:15])[H:10])([H:8])[H:9]>>[N:1]([N:4]=[C:3]=[C:2]([C:5]1([H:11])[C:6]([H:12])([H:13])[C:7]1([H:14])[H:15])[H:10])([H:8])[H:9]"
N        2.50007309      -0.30426145       0.12778702
C        0.51878648       0.22703991       0.53285360
C        1.20103949       1.45200650       0.46796575
N        2.33654434       1.74085706       0.24128421
C       -0.60435020       0.07345324      -0.44555949
C       -2.01827628       0.30578726       0.00208342
C       -1.54453522      -1.08337173      -0.30227283
H        3.44771617      -0.32477833       0.46950987
H        2.46262395      -0.49831527      -0.86344494
H        0.23349164      -0.03434225       1.55207258
H       -0.37216176       0.39236088      -1.45561763
H       -2.17359119       0.57818468       1.03848449
H       -2.69197442       0.79221518      -0.69025833
H       -1.90758817      -1.55824514      -1.20401255
H       -1.38779792      -1.75859052       0.52912482
