15
Frame=0 idx=010997 GeodesicLength=0.0 rxn_smarts="[C:1]([C@@:2]1([O:3][H:11])[C:4]([H:12])([H:13])[C@@:5]2([H:14])[O:6][C@@:7]12[H:15])([H:8])([H:9])[H:10]>>[C:1](=[C:2]([O:3][H:11])[C:4]([C@@:5]1([H:14])[O+:6]=[C-:7]1)([H:12])[H:13])([H:8])[H:9].[H:10][H:15]"
C        1.37723349       0.78942484      -0.28387445
C        0.34971550       0.23000399       0.47169529
O        0.74967017      -0.26269339       1.71355110
C       -1.15372296       0.74476313       0.46959481
C       -1.70003087      -0.46759166      -0.23985533
O       -0.99443674      -0.50082898      -1.49852846
C       -0.34497466      -1.01440852      -0.42186156
H        1.14842371       1.35447870      -1.17854250
H        2.37094838       0.87671261       0.13484441
H        1.77301447      -0.73137901      -1.08027200
H        0.59635242      -1.21285352       1.71094224
H       -1.48307366       0.86387404       1.50004155
H       -1.27248609       1.66977863      -0.09288402
H       -2.65940540      -0.95818875      -0.18298838
H        1.24277220      -1.38109204      -1.02186269
15
Frame=1 idx=010997 GeodesicLength=0.09684593169601942 rxn_smarts="[C:1]([C@@:2]1([O:3][H:11])[C:4]([H:12])([H:13])[C@@:5]2([H:14])[O:6][C@@:7]12[H:15])([H:8])([H:9])[H:10]>>[C:1](=[C:2]([O:3][H:11])[C:4]([C@@:5]1([H:14])[O+:6]=[C-:7]1)([H:12])[H:13])([H:8])[H:9].[H:10][H:15]"
C        1.38053674       0.78673232      -0.27981367
C        0.34563295       0.23152699       0.47208614
O        0.73174375      -0.26036945       1.71740299
C       -1.15243455       0.74827232       0.46473832
C       -1.70348182      -0.46478067      -0.24117688
O       -1.00540494      -0.50892664      -1.50332743
C       -0.35697093      -1.03049780      -0.43039572
H        1.15142262       1.35875606      -1.17021203
H        2.36557246       0.89454147       0.15460920
H        1.78067805      -0.73754446      -1.06802411
H        0.65913471      -1.21930797       1.69393947
H       -1.48808027       0.86870565       1.49314751
H       -1.26781843       1.67325050      -0.09862650
H       -2.66706130      -0.94656045      -0.17887168
H        1.22653096      -1.39379787      -1.02547561
15
Frame=2 idx=010997 GeodesicLength=0.19345805478972067 rxn_smarts="[C:1]([C@@:2]1([O:3][H:11])[C:4]([H:12])([H:13])[C@@:5]2([H:14])[O:6][C@@:7]12[H:15])([H:8])([H:9])[H:10]>>[C:1](=[C:2]([O:3][H:11])[C:4]([C@@:5]1([H:14])[O+:6]=[C-:7]1)([H:12])[H:13])([H:8])[H:9].[H:10][H:15]"
C        1.38405779       0.78374911      -0.27548976
C        0.34168125       0.23280684       0.47252417
O        0.71379984      -0.26084532       1.72014227
C       -1.15101611       0.75147032       0.45994236
C       -1.70681916      -0.46204817      -0.24264602
O       -1.01637494      -0.51697316      -1.50813579
C       -0.36932446      -1.04696902      -0.43905783
H        1.15457558       1.36300899      -1.16131091
H        2.35961317       0.91253249       0.17460171
H        1.78807658      -0.74356338      -1.05624778
H        0.72213389      -1.22136646       1.67792315
H       -1.49281166       0.87311186       1.48629601
H       -1.26288009       1.67648938      -0.10408075
H       -2.67467409      -0.93462918      -0.17517360
H        1.20996242      -1.40677427      -1.02928723
15
Frame=3 idx=010997 GeodesicLength=0.2901809755262581 rxn_smarts="[C:1]([C@@:2]1([O:3][H:11])[C:4]([H:12])([H:13])[C@@:5]2([H:14])[O:6][C@@:7]12[H:15])([H:8])([H:9])[H:10]>>[C:1](=[C:2]([O:3][H:11])[C:4]([C@@:5]1([H:14])[O+:6]=[C-:7]1)([H:12])[H:13])([H:8])[H:9].[H:10][H:15]"
C        1.38779396       0.78063929      -0.27092665
C        0.33791857       0.23392519       0.47307810
O        0.69599736      -0.26412258       1.72194354
C       -1.14942728       0.75444148       0.45525972
C       -1.71000513      -0.45942631      -0.24426781
O       -1.02741441      -0.52491718      -1.51311100
C       -0.38200561      -1.06381909      -0.44798487
H        1.15785741       1.36729133      -1.15203152
H        2.35310661       0.93072827       0.19473231
H        1.79529893      -0.74943120      -1.04498354
H        0.78473849      -1.21929552       1.66283464
H       -1.49717044       0.87719080       1.47963271
H       -1.25769447       1.67963881      -0.10926337
H       -2.68211262      -0.92262514      -0.17174335
H        1.19311864      -1.42021815      -1.03316891
15
Frame=4 idx=010997 GeodesicLength=0.3867081756408035 rxn_smarts="[C:1]([C@@:2]1([O:3][H:11])[C:4]([H:12])([H:13])[C@@:5]2([H:14])[O:6][C@@:7]12[H:15])([H:8])([H:9])[H:10]>>[C:1](=[C:2]([O:3][H:11])[C:4]([C@@:5]1([H:14])[O+:6]=[C-:7]1)([H:12])[H:13])([H:8])[H:9].[H:10][H:15]"
C        1.39173410       0.77744430      -0.26613041
C        0.33436722       0.23492375       0.47374578
O        0.67839814      -0.27013824       1.72269887
C       -1.14764829       0.75714516       0.45070066
C       -1.71299950      -0.45688086      -0.24598283
O       -1.03851883      -0.53264430      -1.51815443
C       -0.39499085      -1.08089921      -0.45721316
H        1.16127212       1.37148156      -1.14239538
H        2.34608982       0.94898701       0.21482626
H        1.80244308      -0.75501227      -1.03414389
H        0.84647196      -1.21315343       1.64833565
H       -1.50112970       0.88088793       1.47311359
H       -1.25226978       1.68257763      -0.11415070
H       -2.68927593      -0.91059472      -0.16841143
H        1.17605645      -1.43412431      -1.03683859
15
Frame=5 idx=010997 GeodesicLength=0.4832619494879342 rxn_smarts="[C:1]([C@@:2]1([O:3][H:11])[C:4]([H:12])([H:13])[C@@:5]2([H:14])[O:6][C@@:7]12[H:15])([H:8])([H:9])[H:10]>>[C:1](=[C:2]([O:3][H:11])[C:4]([C@@:5]1([H:14])[O+:6]=[C-:7]1)([H:12])[H:13])([H:8])[H:9].[H:10][H:15]"
C        1.39590993       0.77417683      -0.26128937
C        0.33112255       0.23573559       0.47440702
O        0.66128043      -0.27862596       1.72234081
C       -1.14560519       0.75951878       0.44636873
C       -1.71576706      -0.45441951      -0.24787221
O       -1.04966049      -0.54010376      -1.52340060
C       -0.40828975      -1.09828764      -0.46685947
H        1.16473905       1.37570036      -1.13254396
H        2.33852124       0.96755103       0.23473890
H        1.80959012      -0.76034937      -1.02389847
H        0.90675825      -1.20311753       1.63535069
H       -1.50455289       0.88395338       1.46693186
H       -1.24658279       1.68538539      -0.11848265
H       -2.69620381      -0.89841841      -0.16541054
H        1.15874042      -1.44869917      -1.04038075
15
Frame=6 idx=010997 GeodesicLength=0.57977505999662 rxn_smarts="[C:1]([C@@:2]1([O:3][H:11])[C:4]([H:12])([H:13])[C@@:5]2([H:14])[O:6][C@@:7]12[H:15])([H:8])([H:9])[H:10]>>[C:1](=[C:2]([O:3][H:11])[C:4]([C@@:5]1([H:14])[O+:6]=[C-:7]1)([H:12])[H:13])([H:8])[H:9].[H:10][H:15]"
C        1.40031737       0.77090383      -0.25646749
C        0.32822800       0.23638335       0.47503925
O        0.64481709      -0.28939731       1.72083138
C       -1.14327089       0.76154575       0.44230976
C       -1.71827407      -0.45202785      -0.24993074
O       -1.06083603      -0.54721428      -1.52886718
C       -0.42189327      -1.11592681      -0.47699692
H        1.16821980       1.37992512      -1.12257996
H        2.33041781       0.98643290       0.25430710
H        1.81685632      -0.76538234      -1.01421477
H        0.96511476      -1.18945054       1.62395905
H       -1.50739099       0.88630522       1.46114978
H       -1.24065490       1.68805627      -0.12217600
H       -2.70284284      -0.88610947      -0.16271159
H        1.14119184      -1.46404384      -1.04365165
15
Frame=7 idx=010997 GeodesicLength=0.6762042443294475 rxn_smarts="[C:1]([C@@:2]1([O:3][H:11])[C:4]([H:12])([H:13])[C@@:5]2([H:14])[O:6][C@@:7]12[H:15])([H:8])([H:9])[H:10]>>[C:1](=[C:2]([O:3][H:11])[C:4]([C@@:5]1([H:14])[O+:6]=[C-:7]1)([H:12])[H:13])([H:8])[H:9].[H:10][H:15]"
C        1.40497153       0.76766572      -0.25177419
C        0.32574045       0.23685290       0.47555651
O        0.62919955      -0.30214330       1.71810218
C       -1.14060959       0.76318134       0.43857746
C       -1.72049418      -0.44969469      -0.25218171
O       -1.07203741      -0.55389457      -1.53459123
C       -0.43581024      -1.13378792      -0.48771011
H        1.17166831       1.38417380      -1.11260506
H        2.32179338       1.00567781       0.27335338
H        1.82437169      -0.77008406      -1.00506703
H        1.02108655      -1.17244186       1.61459717
H       -1.50958052       0.88777715       1.45584810
H       -1.23450232       1.69059478      -0.12507512
H       -2.70917308      -0.87363809      -0.16036185
H        1.12337589      -1.48023900      -1.04666848
15
Frame=8 idx=010997 GeodesicLength=0.7725365682822953 rxn_smarts="[C:1]([C@@:2]1([O:3][H:11])[C:4]([H:12])([H:13])[C@@:5]2([H:14])[O:6][C@@:7]12[H:15])([H:8])([H:9])[H:10]>>[C:1](=[C:2]([O:3][H:11])[C:4]([C@@:5]1([H:14])[O+:6]=[C-:7]1)([H:12])[H:13])([H:8])[H:9].[H:10][H:15]"
C        1.40979714       0.76456534      -0.24711042
C        0.32360434       0.23722994       0.47608138
O        0.61435792      -0.31690528       1.71420043
C       -1.13766628       0.76446357       0.43515829
C       -1.72244436      -0.44739241      -0.25460392
O       -1.08325653      -0.56009707      -1.54052351
C       -0.45008620      -1.15178122      -0.49897497
H        1.17506979       1.38837424      -1.10262478
H        2.31273402       1.02502402       0.29180139
H        1.83219479      -0.77433919      -0.99626372
H        1.07497011      -1.15216408       1.60656344
H       -1.51120108       0.88847001       1.45097241
H       -1.22816187       1.69296523      -0.12728201
H       -2.71518556      -0.86102835      -0.15832738
H        1.10527375      -1.49738476      -1.04906662
15
Frame=9 idx=010997 GeodesicLength=0.8688509205982066 rxn_smarts="[C:1]([C@@:2]1([O:3][H:11])[C:4]([H:12])([H:13])[C@@:5]2([H:14])[O:6][C@@:7]12[H:15])([H:8])([H:9])[H:10]>>[C:1](=[C:2]([O:3][H:11])[C:4]([C@@:5]1([H:14])[O+:6]=[C-:7]1)([H:12])[H:13])([H:8])[H:9].[H:10][H:15]"
C        1.41485474       0.76156664      -0.24264932
C        0.32189839       0.23743321       0.47645791
O        0.60045518      -0.33339384       1.70903069
C       -1.13438608       0.76535009       0.43211433
C       -1.72411274      -0.44510439      -0.25725722
O       -1.09450571      -0.56574790      -1.54677651
C       -0.46475975      -1.16994354      -0.51092702
H        1.17838442       1.39256954      -1.09277276
H        2.30313203       1.04475887       0.30960138
H        1.84047108      -0.77823064      -0.98786232
H        1.12645471      -1.12886885       1.60073213
H       -1.51215196       0.88818966       1.44665491
H       -1.22162307       1.69524396      -0.12857753
H       -2.72089205      -0.84820314      -0.15668407
H        1.08678081      -1.51561965      -1.05108462
15
Frame=10 idx=010997 GeodesicLength=0.9651262663722419 rxn_smarts="[C:1]([C@@:2]1([O:3][H:11])[C:4]([H:12])([H:13])[C@@:5]2([H:14])[O:6][C@@:7]12[H:15])([H:8])([H:9])[H:10]>>[C:1](=[C:2]([O:3][H:11])[C:4]([C@@:5]1([H:14])[O+:6]=[C-:7]1)([H:12])[H:13])([H:8])[H:9].[H:10][H:15]"
C        1.42009703       0.75876006      -0.23836732
C        0.32060558       0.23751199       0.47674217
O        0.58756748      -0.35154459       1.70260678
C       -1.13079891       0.76585620       0.42946917
C       -1.72549877      -0.44281792      -0.26013027
O       -1.10577141      -0.57080149      -1.55334753
C       -0.47985394      -1.18822613      -0.52358158
H        1.18157499       1.39672415      -1.08311812
H        2.29307235       1.06473207       0.32664016
H        1.84933454      -0.78169514      -0.97969150
H        1.17551084      -1.10267583       1.59684571
H       -1.51247521       0.88694328       1.44291887
H       -1.21494251       1.69742767      -0.12896548
H       -2.72628661      -0.83515907      -0.15543706
H        1.06786454      -1.53503525      -1.05258399
15
Frame=11 idx=010997 GeodesicLength=1.061308632323709 rxn_smarts="[C:1]([C@@:2]1([O:3][H:11])[C:4]([H:12])([H:13])[C@@:5]2([H:14])[O:6][C@@:7]12[H:15])([H:8])([H:9])[H:10]>>[C:1](=[C:2]([O:3][H:11])[C:4]([C@@:5]1([H:14])[O+:6]=[C-:7]1)([H:12])[H:13])([H:8])[H:9].[H:10][H:15]"
C        1.42557201       0.75614781      -0.23436191
C        0.31978000       0.23742741       0.47680788
O        0.57581970      -0.37108111       1.69481546
C       -1.12686287       0.76593451       0.42724458
C       -1.72659145      -0.44052857      -0.26324166
O       -1.11707462      -0.57520007      -1.56026189
C       -0.49541452      -1.20660799      -0.53702240
H        1.18463390       1.40085210      -1.07372893
H        2.28254874       1.08502643       0.34283127
H        1.85892448      -0.78471033      -0.97172388
H        1.22182339      -1.07378858       1.59544790
H       -1.51209450       0.88457913       1.43980393
H       -1.20811468       1.69951358      -0.12831279
H       -2.73134862      -0.82189397      -0.15456340
H        1.04839905      -1.55567035      -1.05373416
15
Frame=12 idx=010997 GeodesicLength=1.157445030911955 rxn_smarts="[C:1]([C@@:2]1([O:3][H:11])[C:4]([H:12])([H:13])[C@@:5]2([H:14])[O:6][C@@:7]12[H:15])([H:8])([H:9])[H:10]>>[C:1](=[C:2]([O:3][H:11])[C:4]([C@@:5]1([H:14])[O+:6]=[C-:7]1)([H:12])[H:13])([H:8])[H:9].[H:10][H:15]"
C        1.43117823       0.75382474      -0.23054073
C        0.31936028       0.23724036       0.47679605
O        0.56522444      -0.39216322       1.68565519
C       -1.12262365       0.76559886       0.42545582
C       -1.72740389      -0.43822641      -0.26657670
O       -1.12838018      -0.57891207      -1.56747377
C       -0.51150108      -1.22504073      -0.55121567
H        1.18751114       1.40490868      -1.06460848
H        2.27168421       1.10538123       0.35811305
H        1.86934240      -0.78719730      -0.96369522
H        1.26567464      -1.04201034       1.59588820
H       -1.51108136       0.88114557       1.43729091
H       -1.20117097       1.70146105      -0.12667386
H       -2.73611438      -0.80835473      -0.15415719
H        1.02830016      -1.57765568      -1.05425759
15
Frame=13 idx=010997 GeodesicLength=1.253494319027343 rxn_smarts="[C:1]([C@@:2]1([O:3][H:11])[C:4]([H:12])([H:13])[C@@:5]2([H:14])[O:6][C@@:7]12[H:15])([H:8])([H:9])[H:10]>>[C:1](=[C:2]([O:3][H:11])[C:4]([C@@:5]1([H:14])[O+:6]=[C-:7]1)([H:12])[H:13])([H:8])[H:9].[H:10][H:15]"
C        1.43702006       0.75177687      -0.22704836
C        0.31943320       0.23690843       0.47652281
O        0.55595644      -0.41445213       1.67501382
C       -1.11803046       0.76482466       0.42412424
C       -1.72791606      -0.43591785      -0.27014020
O       -1.13973107      -0.58189834      -1.57504911
C       -0.52813901      -1.24353217      -0.56627738
H        1.19021795       1.40894842      -1.05586235
H        2.26042815       1.12600160       0.37245750
H        1.88077581      -0.78914256      -0.95571718
H        1.30652503      -1.00768403       1.59896685
H       -1.50932749       0.87651700       1.43545853
H       -1.19412944       1.70331615      -0.12391425
H       -2.74053028      -0.79458825      -0.15409436
H        1.00744719      -1.60107780      -1.05444056
15
Frame=14 idx=010997 GeodesicLength=1.3492971353525083 rxn_smarts="[C:1]([C@@:2]1([O:3][H:11])[C:4]([H:12])([H:13])[C@@:5]2([H:14])[O:6][C@@:7]12[H:15])([H:8])([H:9])[H:10]>>[C:1](=[C:2]([O:3][H:11])[C:4]([C@@:5]1([H:14])[O+:6]=[C-:7]1)([H:12])[H:13])([H:8])[H:9].[H:10][H:15]"
C        1.44306296       0.75015941      -0.22387429
C        0.31999262       0.23654919       0.47601902
O        0.54825634      -0.43755542       1.66298685
C       -1.11311298       0.76363664       0.42325061
C       -1.72807761      -0.43366260      -0.27382328
O       -1.15109952      -0.58420427      -1.58289691
C       -0.54528615      -1.26204706      -0.58213208
H        1.19272584       1.41304705      -1.04754413
H        2.24901526       1.14669869       0.38570833
H        1.89347689      -0.79039465      -0.94753128
H        1.34373653      -0.97139514       1.60422667
H       -1.50686787       0.87075770       1.43429410
H       -1.18708897       1.70503942      -0.12012513
H       -2.74452635      -0.78069469      -0.15425685
H        0.98579301      -1.62593427      -1.05430163
15
Frame=15 idx=010997 GeodesicLength=1.445199177106495 rxn_smarts="[C:1]([C@@:2]1([O:3][H:11])[C:4]([H:12])([H:13])[C@@:5]2([H:14])[O:6][C@@:7]12[H:15])([H:8])([H:9])[H:10]>>[C:1](=[C:2]([O:3][H:11])[C:4]([C@@:5]1([H:14])[O+:6]=[C-:7]1)([H:12])[H:13])([H:8])[H:9].[H:10][H:15]"
C        1.44929505       0.74878802      -0.22101520
C        0.32102625       0.23592706       0.47526783
O        0.54194914      -0.46226473       1.64921604
C       -1.10783512       0.76193452       0.42290407
C       -1.72799594      -0.43133417      -0.27780566
O       -1.16252069      -0.58565008      -1.59115704
C       -0.56320163      -1.28058453      -0.59896683
H        1.19502494       1.41695398      -1.03970126
H        2.23714338       1.16765824       0.39804451
H        1.90748971      -0.79110327      -0.93911883
H        1.37846312      -0.93169517       1.61227609
H       -1.50362846       0.86359670       1.43388616
H       -1.17990221       1.70663594      -0.11503618
H       -2.74830321      -0.76630350      -0.15497950
H        0.96299566      -1.65255901      -1.05381421
15
Frame=16 idx=010997 GeodesicLength=1.5410292494821076 rxn_smarts="[C:1]([C@@:2]1([O:3][H:11])[C:4]([H:12])([H:13])[C@@:5]2([H:14])[O:6][C@@:7]12[H:15])([H:8])([H:9])[H:10]>>[C:1](=[C:2]([O:3][H:11])[C:4]([C@@:5]1([H:14])[O+:6]=[C-:7]1)([H:12])[H:13])([H:8])[H:9].[H:10][H:15]"
C        1.45579735       0.74777985      -0.21854093
C        0.32260283       0.23511783       0.47413046
O        0.53735311      -0.48805706       1.63364016
C       -1.10215725       0.75970984       0.42307493
C       -1.72760551      -0.42901177      -0.28198039
O       -1.17401042      -0.58629775      -1.59975380
C       -0.58186067      -1.29913194      -0.61676247
H        1.19715501       1.42080022      -1.03238207
H        2.22498888       1.18884226       0.40934790
H        1.92308716      -0.79106350      -0.93047265
H        1.40958673      -0.88920978       1.62331608
H       -1.49950913       0.85501054       1.43423558
H       -1.17262285       1.70807252      -0.10865703
H       -2.75173556      -0.75159507      -0.15600293
H        0.93893032      -1.68096617      -1.05319285
