9
Frame=0 idx=001985 GeodesicLength=0.0 rxn_smarts="[O:1]=[C:2]1[C:3]([H:6])([H:7])[O:4][C:5]1([H:8])[H:9]>>[H:8][H:9].[O-:1][C:2]1=[C:5]=[O+:4][C:3]1([H:6])[H:7]"
O        0.11091287       1.99295381       0.46521552
C        0.07115668       0.81600104       0.34591164
C        1.07908192      -0.28503039      -0.01636710
O        0.02687259      -1.23033996       0.31649022
C       -0.93439450      -0.34545066       0.62537624
H        1.96456417      -0.40294410       0.60864942
H        1.32923631      -0.34005873      -1.07871000
H       -1.66242243       0.07244605      -0.98242531
H       -1.98500759      -0.27757703      -0.28414060
9
Frame=1 idx=001985 GeodesicLength=0.048388417922515296 rxn_smarts="[O:1]=[C:2]1[C:3]([H:6])([H:7])[O:4][C:5]1([H:8])[H:9]>>[H:8][H:9].[O-:1][C:2]1=[C:5]=[O+:4][C:3]1([H:6])[H:7]"
O        0.11475770       1.99290444       0.46552114
C        0.07621338       0.81596461       0.34546624
C        1.08483253      -0.28455738      -0.01550503
O        0.03150866      -1.23111662       0.30958581
C       -0.93247536      -0.34445785       0.61006792
H        1.96616716      -0.40358446       0.61534214
H        1.34323885      -0.33638769      -1.07597630
H       -1.67002800       0.05862756      -0.98283678
H       -2.01421491      -0.26739263      -0.27166513
9
Frame=2 idx=001985 GeodesicLength=0.09674944461495674 rxn_smarts="[O:1]=[C:2]1[C:3]([H:6])([H:7])[O:4][C:5]1([H:8])[H:9]>>[H:8][H:9].[O-:1][C:2]1=[C:5]=[O+:4][C:3]1([H:6])[H:7]"
O        0.11851151       1.99276774       0.46582765
C        0.08123961       0.81583569       0.34503573
C        1.09065279      -0.28409801      -0.01459784
O        0.03630851      -1.23193882       0.30275177
C       -0.93060094      -0.34355380       0.59409850
H        1.96775155      -0.40419487       0.62212832
H        1.35738389      -0.33274737      -1.07310277
H       -1.67853738       0.04451409      -0.98308492
H       -2.04270954      -0.25658466      -0.25905644
9
Frame=3 idx=001985 GeodesicLength=0.1450769764483911 rxn_smarts="[O:1]=[C:2]1[C:3]([H:6])([H:7])[O:4][C:5]1([H:8])[H:9]>>[H:8][H:9].[O-:1][C:2]1=[C:5]=[O+:4][C:3]1([H:6])[H:7]"
O        0.12218886       1.99256374       0.46616160
C        0.08623487       0.81563028       0.34465029
C        1.09651789      -0.28365097      -0.01364988
O        0.04124592      -1.23279106       0.29603666
C       -0.92876910      -0.34269985       0.57748638
H        1.96931276      -0.40478080       0.62897168
H        1.37160196      -0.32914813      -1.07010659
H       -1.68789260       0.03016043      -0.98319939
H       -2.07044056      -0.24528363      -0.24635075
9
Frame=4 idx=001985 GeodesicLength=0.1933980046555105 rxn_smarts="[O:1]=[C:2]1[C:3]([H:6])([H:7])[O:4][C:5]1([H:8])[H:9]>>[H:8][H:9].[O-:1][C:2]1=[C:5]=[O+:4][C:3]1([H:6])[H:7]"
O        0.12581254       1.99231098       0.46654732
C        0.09120381       0.81536303       0.34434465
C        1.10240344      -0.28321310      -0.01266434
O        0.04628751      -1.23365427       0.28948467
C       -0.92697713      -0.34185211       0.56024840
H        1.97084814      -0.40534818       0.63583515
H        1.38582306      -0.32559539      -1.06700230
H       -1.69802703       0.01561349      -0.98322021
H       -2.09737434      -0.23362446      -0.23357333
9
Frame=5 idx=001985 GeodesicLength=0.24176221158949815 rxn_smarts="[O:1]=[C:2]1[C:3]([H:6])([H:7])[O:4][C:5]1([H:8])[H:9]>>[H:8][H:9].[O-:1][C:2]1=[C:5]=[O+:4][C:3]1([H:6])[H:7]"
O        0.12939176       1.99209099       0.46702805
C        0.09614204       0.81507665       0.34416657
C        1.10829531      -0.28279132      -0.01165389
O        0.05138914      -1.23453920       0.28314246
C       -0.92524443      -0.34095875       0.54242331
H        1.97236215      -0.40593110       0.64267774
H        1.40001498      -0.32210061      -1.06384031
H       -1.70885776       0.00088244      -0.98320132
H       -2.12349319      -0.22172911      -0.22074261
9
Frame=6 idx=001985 GeodesicLength=0.28988801150011656 rxn_smarts="[O:1]=[C:2]1[C:3]([H:6])([H:7])[O:4][C:5]1([H:8])[H:9]>>[H:8][H:9].[O-:1][C:2]1=[C:5]=[O+:4][C:3]1([H:6])[H:7]"
O        0.13291021       1.99155063       0.46737319
C        0.10107008       0.81460913       0.34411158
C        1.11416089      -0.28234760      -0.01056422
O        0.05660232      -1.23528353       0.27701097
C       -0.92344907      -0.34006902       0.52389441
H        1.97387572      -0.40641993       0.64950391
H        1.41400869      -0.31863085      -1.06044232
H       -1.72033164      -0.01368670      -0.98292900
H       -2.14884719      -0.20972213      -0.20795851
9
Frame=7 idx=001985 GeodesicLength=0.33809227749875354 rxn_smarts="[O:1]=[C:2]1[C:3]([H:6])([H:7])[O:4][C:5]1([H:8])[H:9]>>[H:8][H:9].[O-:1][C:2]1=[C:5]=[O+:4][C:3]1([H:6])[H:7]"
O        0.13642807       1.99117391       0.46793480
C        0.10596569       0.81420759       0.34418793
C        1.12000885      -0.28192725      -0.00946853
O        0.06179827      -1.23604013       0.27108810
C       -0.92170696      -0.33901541       0.50483308
H        1.97533572      -0.40700348       0.65627776
H        1.42795333      -0.31522226      -1.05702966
H       -1.73242748      -0.02854890      -0.98276062
H       -2.17335550      -0.19762406      -0.19506286
9
Frame=8 idx=001985 GeodesicLength=0.38604841823998787 rxn_smarts="[O:1]=[C:2]1[C:3]([H:6])([H:7])[O:4][C:5]1([H:8])[H:9]>>[H:8][H:9].[O-:1][C:2]1=[C:5]=[O+:4][C:3]1([H:6])[H:7]"
O        0.13992934       1.99074927       0.46852711
C        0.11084472       0.81376251       0.34442394
C        1.12581856      -0.28150799      -0.00833626
O        0.06699471      -1.23673110       0.26539092
C       -0.91992558      -0.33787091       0.48515689
H        1.97674494      -0.40757978       0.66302596
H        1.44175679      -0.31186651      -1.05354753
H       -1.74505837      -0.04342449      -0.98244093
H       -2.19710511      -0.18553101      -0.18220010
9
Frame=9 idx=001985 GeodesicLength=0.43404609566172375 rxn_smarts="[O:1]=[C:2]1[C:3]([H:6])([H:7])[O:4][C:5]1([H:8])[H:9]>>[H:8][H:9].[O-:1][C:2]1=[C:5]=[O+:4][C:3]1([H:6])[H:7]"
O        0.14344779       1.99034912       0.46915220
C        0.11571322       0.81331881       0.34478270
C        1.13161310      -0.28109606      -0.00716251
O        0.07214359      -1.23734484       0.25979697
C       -0.91811448      -0.33654635       0.46484204
H        1.97807813      -0.40823308       0.66979452
H        1.45554357      -0.30853592      -1.04994985
H       -1.75829645      -0.05834744      -0.98208486
H       -2.22012847      -0.17356425      -0.16917121
9
Frame=10 idx=001985 GeodesicLength=0.48196970351304264 rxn_smarts="[O:1]=[C:2]1[C:3]([H:6])([H:7])[O:4][C:5]1([H:8])[H:9]>>[H:8][H:9].[O-:1][C:2]1=[C:5]=[O+:4][C:3]1([H:6])[H:7]"
O        0.14698854       1.98995320       0.46975380
C        0.12056720       0.81287662       0.34519940
C        1.13739732      -0.28068576      -0.00593671
O        0.07720142      -1.23785585       0.25419260
C       -0.91624916      -0.33501436       0.44382875
H        1.97929853      -0.40900366       0.67666679
H        1.46939348      -0.30518980      -1.04619219
H       -1.77218641      -0.07329733      -0.98165162
H       -2.24241092      -0.16178306      -0.15586082
9
Frame=11 idx=001985 GeodesicLength=0.529846803092217 rxn_smarts="[O:1]=[C:2]1[C:3]([H:6])([H:7])[O:4][C:5]1([H:8])[H:9]>>[H:8][H:9].[O-:1][C:2]1=[C:5]=[O+:4][C:3]1([H:6])[H:7]"
O        0.15057139       1.98956296       0.47035597
C        0.12541736       0.81243582       0.34572724
C        1.14314961      -0.28027704      -0.00466225
O        0.08217422      -1.23824019       0.24862945
C       -0.91427967      -0.33326504       0.42210473
H        1.98037406      -0.40985332       0.68359867
H        1.48324314      -0.30187054      -1.04230239
H       -1.78661595      -0.08826380      -0.98111448
H       -2.26403416      -0.15022884      -0.14233694
9
Frame=12 idx=001985 GeodesicLength=0.577700625112959 rxn_smarts="[O:1]=[C:2]1[C:3]([H:6])([H:7])[O:4][C:5]1([H:8])[H:9]>>[H:8][H:9].[O-:1][C:2]1=[C:5]=[O+:4][C:3]1([H:6])[H:7]"
O        0.15420602       1.98921020       0.47091329
C        0.13025447       0.81201686       0.34628768
C        1.14889408      -0.27987187      -0.00332704
O        0.08700759      -1.23850777       0.24296625
C       -0.91221895      -0.33124842       0.39958096
H        1.98128248      -0.41084713       0.69068921
H        1.49723076      -0.29852997      -1.03822441
H       -1.80167423      -0.10326303      -0.98048218
H       -2.28498223      -0.13895888      -0.12840376
9
Frame=13 idx=001985 GeodesicLength=0.6255821124140646 rxn_smarts="[O:1]=[C:2]1[C:3]([H:6])([H:7])[O:4][C:5]1([H:8])[H:9]>>[H:8][H:9].[O-:1][C:2]1=[C:5]=[O+:4][C:3]1([H:6])[H:7]"
O        0.15791524       1.98889767       0.47137707
C        0.13508107       0.81163006       0.34679181
C        1.15465052      -0.27946831      -0.00191613
O        0.09167436      -1.23863822       0.23704849
C       -0.91002203      -0.32893264       0.37614876
H        1.98194890      -0.41201770       0.69805169
H        1.51150515      -0.29514796      -1.03390148
H       -1.81744891      -0.11828336      -0.97970286
H       -2.30530431      -0.12803952      -0.11389734
9
Frame=14 idx=001985 GeodesicLength=0.6733692708749296 rxn_smarts="[O:1]=[C:2]1[C:3]([H:6])([H:7])[O:4][C:5]1([H:8])[H:9]>>[H:8][H:9].[O-:1][C:2]1=[C:5]=[O+:4][C:3]1([H:6])[H:7]"
O        0.16170948       1.98862784       0.47176073
C        0.13989628       0.81128719       0.34727887
C        1.16039252      -0.27906750      -0.00043047
O        0.09615140      -1.23857734       0.23090614
C       -0.90767828      -0.32625631       0.35176412
H        1.98234754      -0.41338137       0.70563760
H        1.52600891      -0.29175049      -1.02931929
H       -1.83386658      -0.13332771      -0.97876635
H       -2.32496127      -0.11755431      -0.09883135
9
Frame=15 idx=001985 GeodesicLength=0.721171894310007 rxn_smarts="[O:1]=[C:2]1[C:3]([H:6])([H:7])[O:4][C:5]1([H:8])[H:9]>>[H:8][H:9].[O-:1][C:2]1=[C:5]=[O+:4][C:3]1([H:6])[H:7]"
O        0.16560489       1.98842014       0.47199387
C        0.14469706       0.81100011       0.34764347
C        1.16614556      -0.27867134       0.00115248
O        0.10040407      -1.23833475       0.22436174
C       -0.90515631      -0.32318885       0.32626102
H        1.98240072      -0.41497746       0.71359405
H        1.54091782      -0.28830392      -1.02440647
H       -1.85104152      -0.14837656      -0.97763323
H       -2.34397230      -0.10756737      -0.08296692
9
Frame=16 idx=001985 GeodesicLength=0.7689770931514942 rxn_smarts="[O:1]=[C:2]1[C:3]([H:6])([H:7])[O:4][C:5]1([H:8])[H:9]>>[H:8][H:9].[O-:1][C:2]1=[C:5]=[O+:4][C:3]1([H:6])[H:7]"
O        0.16962037       1.98828687       0.47201619
C        0.14947906       0.81078712       0.34778591
C        1.17192347      -0.27828060       0.00285269
O        0.10439545      -1.23787980       0.21724055
C       -0.90242368      -0.31966895       0.29945720
H        1.98200541      -0.41685645       0.72204380
H        1.55639375      -0.28479371      -1.01907227
H       -1.86908381      -0.16341429      -0.97623244
H       -2.36231002      -0.09818018      -0.06609163
