10
Frame=0 idx=007197 GeodesicLength=0.0 rxn_smarts="[N:1](=[C:2](\[O:3][C:4](=[O:5])[H:9])[C:6](=[O:7])[H:10])\[H:8]>>[N:1]([C+:2]([C:4](=[O:3])[H:9])[C:6](=[O:7])[H:10])([O-:5])[H:8]"
N       -0.02261367       0.83990092      -0.58130445
C       -0.28341310      -0.19186701       0.11251713
O        2.00785091      -1.45278922      -0.79145769
C        1.60432544      -0.50688910      -0.20954327
O        1.21649479       0.82602315      -1.06532507
C       -1.62707422      -0.32275313       0.72320610
O       -2.63569710      -0.03190499       0.13228083
H       -0.58898754       1.66018803      -0.78825412
H        1.97937927      -0.07303616       0.72651327
H       -1.65026477      -0.74687248       1.74136727
10
Frame=1 idx=007197 GeodesicLength=0.1402646220742102 rxn_smarts="[N:1](=[C:2](\[O:3][C:4](=[O:5])[H:9])[C:6](=[O:7])[H:10])\[H:8]>>[N:1]([C+:2]([C:4](=[O:3])[H:9])[C:6](=[O:7])[H:10])([O-:5])[H:8]"
N       -0.01182908       0.89754295      -0.53523928
C       -0.27579461      -0.17924605       0.08564949
O        1.86911571      -1.48838742      -0.80895837
C        1.60110623      -0.50070332      -0.20934870
O        1.25852763       0.88596869      -1.00684221
C       -1.60992752      -0.34418154       0.70463652
O       -2.62460789      -0.20484067       0.07159783
H       -0.61694989       1.67127248      -0.80111664
H        2.03368403      -0.12411863       0.72494842
H       -1.62332461      -0.61330649       1.77467293
10
Frame=2 idx=007197 GeodesicLength=0.2824868351944637 rxn_smarts="[N:1](=[C:2](\[O:3][C:4](=[O:5])[H:9])[C:6](=[O:7])[H:10])\[H:8]>>[N:1]([C+:2]([C:4](=[O:3])[H:9])[C:6](=[O:7])[H:10])([O-:5])[H:8]"
N       -0.00574928       0.94934485      -0.49067811
C       -0.26930598      -0.16458964       0.06240892
O        1.73858650      -1.50847063      -0.82346456
C        1.59566902      -0.49744818      -0.21033824
O        1.29788409       0.93916389      -0.94614211
C       -1.59289409      -0.36320141       0.69029343
O       -2.59907129      -0.37570192       0.03017414
H       -0.63860475       1.67752592      -0.81420660
H        2.08798721      -0.17806380       0.71426506
H       -1.61450143      -0.47855908       1.78768807
10
Frame=3 idx=007197 GeodesicLength=0.4260581736917324 rxn_smarts="[N:1](=[C:2](\[O:3][C:4](=[O:5])[H:9])[C:6](=[O:7])[H:10])\[H:8]>>[N:1]([C+:2]([C:4](=[O:3])[H:9])[C:6](=[O:7])[H:10])([O-:5])[H:8]"
N       -0.00505715       0.99397244      -0.45426476
C       -0.26624848      -0.15066899       0.03552942
O        1.61983635      -1.51591026      -0.83480157
C        1.58777972      -0.49610156      -0.21044960
O        1.33648288       0.98724066      -0.88075660
C       -1.57589662      -0.37914714       0.67932132
O       -2.56400550      -0.53919508       0.01223674
H       -0.65448760       1.68295167      -0.82756049
H        2.13775772      -0.23490027       0.69865737
H       -1.61616133      -0.34824147       1.78208818
10
Frame=4 idx=007197 GeodesicLength=0.5704103520857089 rxn_smarts="[N:1](=[C:2](\[O:3][C:4](=[O:5])[H:9])[C:6](=[O:7])[H:10])\[H:8]>>[N:1]([C+:2]([C:4](=[O:3])[H:9])[C:6](=[O:7])[H:10])([O-:5])[H:8]"
N       -0.00852724       1.03367844      -0.42498351
C       -0.26651991      -0.13645942       0.00507515
O        1.51145902      -1.51402169      -0.84404545
C        1.57727813      -0.49614519      -0.20896031
O        1.37427165       1.03039219      -0.80983385
C       -1.55906822      -0.39173742       0.67076929
O       -2.52022541      -0.69643936       0.01580368
H       -0.66577416       1.68963437      -0.84220911
H        2.18367713      -0.29463564       0.67822176
H       -1.62657099      -0.22426628       1.76016236
10
Frame=5 idx=007197 GeodesicLength=0.7150539439474678 rxn_smarts="[N:1](=[C:2](\[O:3][C:4](=[O:5])[H:9])[C:6](=[O:7])[H:10])\[H:8]>>[N:1]([C+:2]([C:4](=[O:3])[H:9])[C:6](=[O:7])[H:10])([O-:5])[H:8]"
N       -0.01527034       1.07007007      -0.40184531
C       -0.27008055      -0.12143396      -0.02924674
O        1.41225084      -1.50502390      -0.85196313
C        1.56403993      -0.49722688      -0.20512446
O        1.41076352       1.06854768      -0.73256942
C       -1.54243445      -0.40113941       0.66359831
O       -2.46764641      -0.84713805       0.03958395
H       -0.67317183       1.69862648      -0.85896772
H        2.22610256      -0.35696155       0.65274168
H       -1.64455328      -0.10832046       1.72379284
10
Frame=6 idx=007197 GeodesicLength=0.8595383017082183 rxn_smarts="[N:1](=[C:2](\[O:3][C:4](=[O:5])[H:9])[C:6](=[O:7])[H:10])\[H:8]>>[N:1]([C+:2]([C:4](=[O:3])[H:9])[C:6](=[O:7])[H:10])([O-:5])[H:8]"
N       -0.02459002       1.10409585      -0.38386842
C       -0.27665865      -0.10531375      -0.06719749
O        1.32106418      -1.49083486      -0.85855283
C        1.54802753      -0.49921591      -0.19820389
O        1.44500682       1.10113141      -0.64906563
C       -1.52601078      -0.40780094       0.65680157
O       -2.40560564      -0.98986307       0.08185620
H       -0.67712520       1.71063468      -0.87753454
H        2.26570288      -0.42083787       0.62124518
H       -1.66981110      -0.00199553       1.67451985
10
Frame=7 idx=007197 GeodesicLength=1.0035449282515643 rxn_smarts="[N:1](=[C:2](\[O:3][C:4](=[O:5])[H:9])[C:6](=[O:7])[H:10])\[H:8]>>[N:1]([C+:2]([C:4](=[O:3])[H:9])[C:6](=[O:7])[H:10])([O-:5])[H:8]"
N       -0.03591306       1.13617645      -0.36988890
C       -0.28549275      -0.08801373      -0.10711704
O        1.23671065      -1.47267894      -0.86418456
C        1.52944698      -0.50221770      -0.18770654
O        1.47605255       1.12771329      -0.55916373
C       -1.50989455      -0.41214601       0.64990253
O       -2.33295284      -1.12272587       0.14055169
H       -0.67800666       1.72519522      -0.89775862
H        2.30348355      -0.48540191       0.58193053
H       -1.70343387       0.09409919       1.61343463
10
Frame=8 idx=007197 GeodesicLength=1.1468874913146896 rxn_smarts="[N:1](=[C:2](\[O:3][C:4](=[O:5])[H:9])[C:6](=[O:7])[H:10])\[H:8]>>[N:1]([C+:2]([C:4](=[O:3])[H:9])[C:6](=[O:7])[H:10])([O-:5])[H:8]"
N       -0.04869070       1.16629779      -0.35873920
C       -0.29558714      -0.06988785      -0.14692285
O        1.15838015      -1.45153234      -0.86879626
C        1.50879025      -0.50651010      -0.17311789
O        1.50304446       1.14784706      -0.46289751
C       -1.49437857      -0.41454087       0.64266866
O       -2.24955478      -1.24274210       0.21340970
H       -0.67597486       1.74122189      -0.91934974
H        2.34030264      -0.54920571       0.53252934
H       -1.74633145       0.17905220       1.54121575
10
Frame=9 idx=007197 GeodesicLength=1.28941921791028 rxn_smarts="[N:1](=[C:2](\[O:3][C:4](=[O:5])[H:9])[C:6](=[O:7])[H:10])\[H:8]>>[N:1]([C+:2]([C:4](=[O:3])[H:9])[C:6](=[O:7])[H:10])([O-:5])[H:8]"
N       -0.06234951       1.19420175      -0.34952949
C       -0.30584400      -0.05165154      -0.18494304
O        1.08575899      -1.42828221      -0.87207135
C        1.48686136      -0.51241851      -0.15413943
O        1.52536306       1.16126912      -0.36033143
C       -1.47977220      -0.41541655       0.63498158
O       -2.15719516      -1.34636861       0.29797649
H       -0.67095491       1.75734170      -0.94213448
H        2.37581802      -0.61008534       0.47137291
H       -1.79768565       0.25141019       1.45881823
10
Frame=10 idx=007197 GeodesicLength=1.4311121976382433 rxn_smarts="[N:1](=[C:2](\[O:3][C:4](=[O:5])[H:9])[C:6](=[O:7])[H:10])\[H:8]>>[N:1]([C+:2]([C:4](=[O:3])[H:9])[C:6](=[O:7])[H:10])([O-:5])[H:8]"
N       -0.07612143       1.21975041      -0.34143197
C       -0.31511639      -0.03391131      -0.22002345
O        1.01842704      -1.40400385      -0.87363104
C        1.46461029      -0.52026944      -0.13135097
O        1.54277925       1.16775187      -0.25232927
C       -1.46642145      -0.41503133       0.62636882
O       -2.05811194      -1.43124603       0.39196336
H       -0.66267995       1.77262668      -0.96542236
H        2.40790351      -0.66544683       0.39841923
H       -1.85526893       0.30977982       1.36743765
10
Frame=11 idx=007197 GeodesicLength=1.572257895815797 rxn_smarts="[N:1](=[C:2](\[O:3][C:4](=[O:5])[H:9])[C:6](=[O:7])[H:10])\[H:8]>>[N:1]([C+:2]([C:4](=[O:3])[H:9])[C:6](=[O:7])[H:10])([O-:5])[H:8]"
N       -0.08901698       1.24313948      -0.33233941
C       -0.32215519      -0.01696311      -0.24988169
O        0.95544420      -1.38014139      -0.87242188
C        1.44308916      -0.53079557      -0.10526188
O        1.55600557       1.16695460      -0.14107815
C       -1.45493090      -0.41386370       0.61698457
O       -1.95417232      -1.49630759       0.49329779
H       -0.65032624       1.78639202      -0.98755562
H        2.43592486      -0.71222245       0.31200431
H       -1.91986214       0.35380772       1.26625196
10
Frame=12 idx=007197 GeodesicLength=1.7131362419343334 rxn_smarts="[N:1](=[C:2](\[O:3][C:4](=[O:5])[H:9])[C:6](=[O:7])[H:10])\[H:8]>>[N:1]([C+:2]([C:4](=[O:3])[H:9])[C:6](=[O:7])[H:10])([O-:5])[H:8]"
N       -0.10062812       1.26451664      -0.32235395
C       -0.32654043      -0.00108099      -0.27645936
O        0.89607016      -1.35770438      -0.87001485
C        1.42313799      -0.54366767      -0.07966478
O        1.56527209       1.15911437      -0.02635310
C       -1.44470034      -0.41269260       0.60575351
O       -1.84647336      -1.54110318       0.60335254
H       -0.63407113       1.79936903      -1.00740980
H        2.45470443      -0.74928800       0.21757406
H       -1.98677129       0.38253679       1.15557572
10
Frame=13 idx=007197 GeodesicLength=1.8542131068093213 rxn_smarts="[N:1](=[C:2](\[O:3][C:4](=[O:5])[H:9])[C:6](=[O:7])[H:10])\[H:8]>>[N:1]([C+:2]([C:4](=[O:3])[H:9])[C:6](=[O:7])[H:10])([O-:5])[H:8]"
N       -0.11090732       1.28401038      -0.30986782
C       -0.32782119       0.01381779      -0.29847688
O        0.83891663      -1.33817131      -0.86413122
C        1.40505582      -0.55932072      -0.05447027
O        1.57136928       1.14377179       0.08866090
C       -1.43542003      -0.41211577       0.59336615
O       -1.73806944      -1.56350758       0.71774075
H       -0.61341882       1.81099782      -1.02413973
H        2.46460195      -0.77367705       0.11488253
H       -2.05430688       0.39419465       1.03643559
10
Frame=14 idx=007197 GeodesicLength=1.9956321259569216 rxn_smarts="[N:1](=[C:2](\[O:3][C:4](=[O:5])[H:9])[C:6](=[O:7])[H:10])\[H:8]>>[N:1]([C+:2]([C:4](=[O:3])[H:9])[C:6](=[O:7])[H:10])([O-:5])[H:8]"
N       -0.11998215       1.30188591      -0.29514149
C       -0.32598383       0.02765153      -0.31764020
O        0.78354165      -1.32250520      -0.85554314
C        1.38954320      -0.57685993      -0.03243831
O        1.57526189       1.12153694       0.20245537
C       -1.42570219      -0.41306357       0.58050128
O       -1.63185445      -1.56345615       0.83573934
H       -0.59030054       1.82244614      -1.03593096
H        2.46415803      -0.78611775       0.00895319
H       -2.11868162       0.38848208       0.90904491
10
Frame=15 idx=007197 GeodesicLength=2.1380294429710522 rxn_smarts="[N:1](=[C:2](\[O:3][C:4](=[O:5])[H:9])[C:6](=[O:7])[H:10])\[H:8]>>[N:1]([C+:2]([C:4](=[O:3])[H:9])[C:6](=[O:7])[H:10])([O-:5])[H:8]"
N       -0.12875837       1.31826556      -0.27924687
C       -0.32156375       0.04046103      -0.33491817
O        0.72960055      -1.31091157      -0.84375463
C        1.37613167      -0.59638172      -0.01275284
O        1.57666815       1.09258898       0.31460661
C       -1.41603581      -0.41572190       0.56624257
O       -1.53078204      -1.54163482       0.95191802
H       -0.56463493       1.83318581      -1.04505207
H        2.45356050      -0.78573589      -0.09798667
H       -2.17418596       0.36588451       0.78094405
10
Frame=16 idx=007197 GeodesicLength=2.2818722705135626 rxn_smarts="[N:1](=[C:2](\[O:3][C:4](=[O:5])[H:9])[C:6](=[O:7])[H:10])\[H:8]>>[N:1]([C+:2]([C:4](=[O:3])[H:9])[C:6](=[O:7])[H:10])([O-:5])[H:8]"
N       -0.13767117       1.33266510      -0.26370022
C       -0.31437176       0.05206806      -0.35066004
O        0.67767438      -1.30217113      -0.82850046
C        1.36457953      -0.61670282       0.00553698
O        1.57653168       1.05838476       0.42086841
C       -1.40406118      -0.42012159       0.55253567
O       -1.43958805      -1.50210773       1.05816031
H       -0.54002216       1.84217906      -1.05151425
H        2.43219165      -0.77445605      -0.20087062
H       -2.21526293       0.33026233       0.65814421
