17
Frame=0 idx=009555 GeodesicLength=0.0 rxn_smarts="[C:1]([O:2][C@@:3]1([H:11])[C@@:4]2([H:12])[C:5]([H:13])([H:14])[C:6]([H:15])([H:16])[C@@:7]12[H:17])([H:8])([H:9])[H:10]>>[C:1]([O:2][C@@:3]1([H:11])[C@:4]([C:5]([H:13])([H:14])[H:15])([H:12])[C@:7]1([C:6][H:16])[H:17])([H:8])([H:9])[H:10]"
C        2.28372153       0.14357532       0.57598356
O        0.98288684      -0.28393508       0.90814798
C        0.33626670      -0.88260523      -0.15809673
C       -1.14696735      -0.83504784      -0.20854531
C       -1.85055530       0.22544169       0.61627796
C       -0.72120387       1.35411224      -0.90329030
C       -0.33748339      -0.05713930      -1.22332328
H        2.69999919       0.63044608       1.45647463
H        2.26776913       0.85275948      -0.25986104
H        2.92211459      -0.70470324       0.30100422
H        0.78668674      -1.81646130      -0.49204428
H       -1.68224797      -1.74107237      -0.46107053
H       -2.93273109       0.09239956       0.63261376
H       -1.46178522       0.36326623       1.62219142
H       -1.83977660       1.23661010       0.01372317
H       -0.02863221       1.77069938      -0.15490540
H       -0.27806173      -0.34834579      -2.26527986
17
Frame=1 idx=009555 GeodesicLength=0.059381219799167904 rxn_smarts="[C:1]([O:2][C@@:3]1([H:11])[C@@:4]2([H:12])[C:5]([H:13])([H:14])[C:6]([H:15])([H:16])[C@@:7]12[H:17])([H:8])([H:9])[H:10]>>[C:1]([O:2][C@@:3]1([H:11])[C@:4]([C:5]([H:13])([H:14])[H:15])([H:12])[C@:7]1([C:6][H:16])[H:17])([H:8])([H:9])[H:10]"
C        2.28444754       0.14071424       0.57694605
O        0.98453575      -0.28896309       0.91046173
C        0.33558424      -0.88475836      -0.15495825
C       -1.14568747      -0.83627418      -0.20589569
C       -1.84835959       0.22921126       0.61291033
C       -0.71539694       1.35235843      -0.89802796
C       -0.33567745      -0.05558110      -1.22301806
H        2.70334618       0.62193406       1.45925164
H        2.26408720       0.85556872      -0.25408389
H        2.92200871      -0.70546799       0.29384801
H        0.78774778      -1.81555659      -0.49500029
H       -1.68167148      -1.74012457      -0.46461616
H       -2.92741101       0.07672599       0.65001069
H       -1.45229083       0.38211265       1.61390765
H       -1.87013250       1.24446763      -0.01072871
H       -0.02950141       1.77353900      -0.14701107
H       -0.27562873      -0.34990606      -2.26399602
17
Frame=2 idx=009555 GeodesicLength=0.11864598799238169 rxn_smarts="[C:1]([O:2][C@@:3]1([H:11])[C@@:4]2([H:12])[C:5]([H:13])([H:14])[C:6]([H:15])([H:16])[C@@:7]12[H:17])([H:8])([H:9])[H:10]>>[C:1]([O:2][C@@:3]1([H:11])[C@:4]([C:5]([H:13])([H:14])[H:15])([H:12])[C@:7]1([C:6][H:16])[H:17])([H:8])([H:9])[H:10]"
C        2.28507651       0.13795053       0.57792828
O        0.98610192      -0.29395618       0.91275618
C        0.33489467      -0.88693530      -0.15184969
C       -1.14443008      -0.83761621      -0.20317542
C       -1.84617960       0.23289507       0.60960213
C       -0.71003116       1.35052875      -0.89253904
C       -0.33396514      -0.05400884      -1.22266497
H        2.70655490       0.61355474       1.46200117
H        2.26029640       0.85841109      -0.24825320
H        2.92182441      -0.70605687       0.28676882
H        0.78883751      -1.81459840      -0.49799900
H       -1.68112678      -1.73923186      -0.46810917
H       -2.92156450       0.06226266       0.66712492
H       -1.44311871       0.40021566       1.60561860
H       -1.89950991       1.25154242      -0.03503444
H       -0.03029621       1.77641522      -0.13949605
H       -0.27336423      -0.35137249      -2.26267913
17
Frame=3 idx=009555 GeodesicLength=0.17781287429790893 rxn_smarts="[C:1]([O:2][C@@:3]1([H:11])[C@@:4]2([H:12])[C:5]([H:13])([H:14])[C:6]([H:15])([H:16])[C@@:7]12[H:17])([H:8])([H:9])[H:10]>>[C:1]([O:2][C@@:3]1([H:11])[C@:4]([C:5]([H:13])([H:14])[H:15])([H:12])[C@:7]1([C:6][H:16])[H:17])([H:8])([H:9])[H:10]"
C        2.28561798       0.13527873       0.57892396
O        0.98759430      -0.29891190       0.91503147
C        0.33419748      -0.88913178      -0.14876617
C       -1.14319525      -0.83906361      -0.20038864
C       -1.84401283       0.23647744       0.60636993
C       -0.70506852       1.34863002      -0.88685803
C       -0.33234227      -0.05242349      -1.22226644
H        2.70964250       0.60530079       1.46471558
H        2.25640608       0.86128023      -0.24237652
H        2.92156570      -0.70647989       0.27975821
H        0.78995050      -1.81358627      -0.50102993
H       -1.68060671      -1.73838944      -0.47154955
H       -2.91526188       0.04893112       0.68392570
H       -1.43424127       0.41758485       1.59735910
H       -1.92796810       1.25793941      -0.05918701
H       -0.03102337       1.77932297      -0.13233300
H       -0.27125434      -0.35275920      -2.26132867
17
Frame=4 idx=009555 GeodesicLength=0.23689747141926557 rxn_smarts="[C:1]([O:2][C@@:3]1([H:11])[C@@:4]2([H:12])[C:5]([H:13])([H:14])[C:6]([H:15])([H:16])[C@@:7]12[H:17])([H:8])([H:9])[H:10]>>[C:1]([O:2][C@@:3]1([H:11])[C@:4]([C:5]([H:13])([H:14])[H:15])([H:12])[C@:7]1([C:6][H:16])[H:17])([H:8])([H:9])[H:10]"
C        2.28608102       0.13269320       0.57992737
O        0.98902199      -0.30383015       0.91728798
C        0.33349277      -0.89134484      -0.14570343
C       -1.14198245      -0.84060691      -0.19753858
C       -1.84185558       0.23994787       0.60322741
C       -0.70047208       1.34666852      -0.88101279
C       -0.33080416      -0.05082583      -1.22182420
H        2.71262529       0.59716363       1.46738842
H        2.25242457       0.86417124      -0.23645935
H        2.92123682      -0.70674594       0.27280649
H        0.79108188      -1.81252075      -0.50408436
H       -1.68010520      -1.73759240      -0.47493627
H       -2.90856561       0.03665472       0.70039224
H       -1.42563181       0.43423753       1.58915830
H       -1.95556921       1.26375078      -0.08319384
H       -0.03169164       1.78225711      -0.12549149
H       -0.26928658      -0.35407776      -2.25994389
17
Frame=5 idx=009555 GeodesicLength=0.2959120802176738 rxn_smarts="[C:1]([O:2][C@@:3]1([H:11])[C@@:4]2([H:12])[C:5]([H:13])([H:14])[C:6]([H:15])([H:16])[C@@:7]12[H:17])([H:8])([H:9])[H:10]>>[C:1]([O:2][C@@:3]1([H:11])[C@:4]([C:5]([H:13])([H:14])[H:15])([H:12])[C@:7]1([C:6][H:16])[H:17])([H:8])([H:9])[H:10]"
C        2.28647419       0.13018832       0.58093334
O        0.99039395      -0.30871243       0.91952615
C        0.33278100      -0.89357246      -0.14265780
C       -1.14079090      -0.84223748      -0.19462782
C       -1.83970341       0.24329962       0.60018606
C       -0.69620709       1.34465018      -0.87502543
C       -0.32934609      -0.04921620      -1.22133951
H        2.71551814       0.58913545       1.47001376
H        2.24835971       0.86707939      -0.23050649
H        2.92084216      -0.70686329       0.26590479
H        0.79222714      -1.81140309      -0.50715516
H       -1.67961724      -1.73683588      -0.47826802
H       -2.90153095       0.02536036       0.71651173
H       -1.41726497       0.45019508       1.58104086
H       -1.98237495       1.26905671      -0.10707255
H       -0.03231080       1.78521292      -0.11893987
H       -0.26744988      -0.35533721      -2.25852406
17
Frame=6 idx=009555 GeodesicLength=0.35487201623171877 rxn_smarts="[C:1]([O:2][C@@:3]1([H:11])[C@@:4]2([H:12])[C:5]([H:13])([H:14])[C:6]([H:15])([H:16])[C@@:7]12[H:17])([H:8])([H:9])[H:10]>>[C:1]([O:2][C@@:3]1([H:11])[C@:4]([C:5]([H:13])([H:14])[H:15])([H:12])[C@:7]1([C:6][H:16])[H:17])([H:8])([H:9])[H:10]"
C        2.28680756       0.12775854       0.58193757
O        0.99171997      -0.31356031       0.92174739
C        0.33206286      -0.89581323      -0.13962503
C       -1.13962018      -0.84394805      -0.19165816
C       -1.83755272       0.24652863       0.59725522
C       -0.69224208       1.34258194      -0.86891301
C       -0.32796379      -0.04759377      -1.22081270
H        2.71833960       0.58120766       1.47258640
H        2.24421981       0.87000136      -0.22452143
H        2.92038653      -0.70684100       0.25904432
H        0.79338213      -1.81023536      -0.51023502
H       -1.67914021      -1.73611536      -0.48154467
H       -2.89420794       0.01497547       0.73227728
H       -1.40911679       0.46548335       1.57302710
H       -2.00844799       1.27392704      -0.13085117
H       -0.03289073       1.78818727      -0.11264608
H       -0.26573602      -0.35654418      -2.25706801
17
Frame=7 idx=009555 GeodesicLength=0.4137723702685114 rxn_smarts="[C:1]([O:2][C@@:3]1([H:11])[C@@:4]2([H:12])[C:5]([H:13])([H:14])[C:6]([H:15])([H:16])[C@@:7]12[H:17])([H:8])([H:9])[H:10]>>[C:1]([O:2][C@@:3]1([H:11])[C@:4]([C:5]([H:13])([H:14])[H:15])([H:12])[C@:7]1([C:6][H:16])[H:17])([H:8])([H:9])[H:10]"
C        2.28708643       0.12539907       0.58293468
O        0.99300725      -0.31837520       0.92395204
C        0.33133945      -0.89806536      -0.13660113
C       -1.13846747      -0.84573091      -0.18862996
C       -1.83539798       0.24963339       0.59444323
C       -0.68854649       1.34046653      -0.86268777
C       -0.32665116      -0.04595940      -1.22024251
H        2.72110221       0.57336823       1.47510059
H        2.24000801       0.87293674      -0.21850392
H        2.91987000      -0.70668392       0.25220991
H        0.79454339      -1.80901798      -0.51331772
H       -1.67866906      -1.73542374      -0.48476487
H       -2.88663853       0.00544140       0.74768382
H       -1.40116637       0.48012659       1.56513473
H       -2.03384212       1.27841675      -0.15455933
H       -0.03344269       1.79117426      -0.10657928
H       -0.26413486      -0.35770646      -2.25557253
17
Frame=8 idx=009555 GeodesicLength=0.4726425482554072 rxn_smarts="[C:1]([O:2][C@@:3]1([H:11])[C@@:4]2([H:12])[C:5]([H:13])([H:14])[C:6]([H:15])([H:16])[C@@:7]12[H:17])([H:8])([H:9])[H:10]>>[C:1]([O:2][C@@:3]1([H:11])[C@:4]([C:5]([H:13])([H:14])[H:15])([H:12])[C@:7]1([C:6][H:16])[H:17])([H:8])([H:9])[H:10]"
C        2.28731508       0.12310261       0.58392561
O        0.99426146      -0.32316332       0.92614313
C        0.33061179      -0.90032752      -0.13358273
C       -1.13733077      -0.84757663      -0.18554196
C       -1.83323215       0.25262072       0.59175522
C       -0.68509615       1.33830655      -0.85636774
C       -0.32540145      -0.04431444      -1.21962936
H        2.72382992       0.56556288       1.47757113
H        2.23571766       0.87590930      -0.21242201
H        2.91929008      -0.70638516       0.24535497
H        0.79570646      -1.80775247      -0.51639783
H       -1.67819860      -1.73475420      -0.48792081
H       -2.87884848      -0.00331668       0.76276297
H       -1.39338501       0.49418158       1.55736724
H       -2.05862711       1.28256719      -0.17826372
H       -0.03398099       1.79417173      -0.10071848
H       -0.26263173      -0.35883216      -2.25403562
17
Frame=9 idx=009555 GeodesicLength=0.5314847493708181 rxn_smarts="[C:1]([O:2][C@@:3]1([H:11])[C@@:4]2([H:12])[C:5]([H:13])([H:14])[C:6]([H:15])([H:16])[C@@:7]12[H:17])([H:8])([H:9])[H:10]>>[C:1]([O:2][C@@:3]1([H:11])[C@:4]([C:5]([H:13])([H:14])[H:15])([H:12])[C@:7]1([C:6][H:16])[H:17])([H:8])([H:9])[H:10]"
C        2.28750330       0.12086630       0.58490833
O        0.99549236      -0.32792937       0.92832268
C        0.32988062      -0.90260145      -0.13056694
C       -1.13621109      -0.84948187      -0.18239451
C       -1.83105168       0.25549036       0.58919811
C       -0.68186904       1.33610809      -0.84996239
C       -0.32421367      -0.04265865      -1.21897404
H        2.72653981       0.55778409       1.47999608
H        2.23135598       0.87892180      -0.20627365
H        2.91865325      -0.70594720       0.23847068
H        0.79686767      -1.80644422      -0.51947133
H       -1.67773087      -1.73410668      -0.49101070
H       -2.87087560      -0.01134639       0.77751309
H       -1.38575399       0.50766664       1.54974116
H       -2.08284743       1.28642305      -0.20199935
H       -0.03451472       1.79718056      -0.09503923
H       -0.26122492      -0.35992507      -2.25245800
17
Frame=10 idx=009555 GeodesicLength=0.5903020685243905 rxn_smarts="[C:1]([O:2][C@@:3]1([H:11])[C@@:4]2([H:12])[C:5]([H:13])([H:14])[C:6]([H:15])([H:16])[C@@:7]12[H:17])([H:8])([H:9])[H:10]>>[C:1]([O:2][C@@:3]1([H:11])[C@:4]([C:5]([H:13])([H:14])[H:15])([H:12])[C@:7]1([C:6][H:16])[H:17])([H:8])([H:9])[H:10]"
C        2.28765471       0.11868568       0.58587893
O        0.99670532      -0.33267645       0.93049053
C        0.32914668      -0.90488608      -0.12755200
C       -1.13510657      -0.85144043      -0.17918751
C       -1.82885116       0.25824366       0.58677915
C       -0.67884334       1.33387419      -0.84347617
C       -0.32308376      -0.04099093      -1.21827514
H        2.72923852       0.55002598       1.48236934
H        2.22692648       0.88196895      -0.20006065
H        2.91795995      -0.70537399       0.23155081
H        0.79802408      -1.80509340      -0.52253606
H       -1.67726249      -1.73347547      -0.49403230
H       -2.86274688      -0.01869842       0.79194022
H       -1.37825714       0.52060394       1.54226947
H       -2.10654480       1.29002234      -0.22580440
H       -0.03505189       1.80019700      -0.08951681
H       -0.25990771      -0.36098656      -2.25083740
17
Frame=11 idx=009555 GeodesicLength=0.6490987064485396 rxn_smarts="[C:1]([O:2][C@@:3]1([H:11])[C@@:4]2([H:12])[C:5]([H:13])([H:14])[C:6]([H:15])([H:16])[C@@:7]12[H:17])([H:8])([H:9])[H:10]>>[C:1]([O:2][C@@:3]1([H:11])[C@:4]([C:5]([H:13])([H:14])[H:15])([H:12])[C@:7]1([C:6][H:16])[H:17])([H:8])([H:9])[H:10]"
C        2.28777389       0.11655700       0.58683486
O        0.99790639      -0.33740897       0.93264715
C        0.32841074      -0.90718155      -0.12453632
C       -1.13401623      -0.85344758      -0.17592053
C       -1.82662544       0.26088254       0.58450502
C       -0.67600033       1.33160823      -0.83691284
C       -0.32200898      -0.03931029      -1.21753157
H        2.73193481       0.54228078       1.48468749
H        2.22243223       0.88504954      -0.19378122
H        2.91721190      -0.70466754       0.22458728
H        0.79917291      -1.80370166      -0.52559054
H       -1.67679251      -1.73285653      -0.49698324
H       -2.85448737      -0.02541794       0.80605351
H       -1.37087821       0.53301444       1.53496419
H       -2.12975771       1.29339773      -0.24972182
H       -0.03560009       1.80321924      -0.08412905
H       -0.25867602      -0.36201745      -2.24917236
17
Frame=12 idx=009555 GeodesicLength=0.7078780030893059 rxn_smarts="[C:1]([O:2][C@@:3]1([H:11])[C@@:4]2([H:12])[C:5]([H:13])([H:14])[C:6]([H:15])([H:16])[C@@:7]12[H:17])([H:8])([H:9])[H:10]>>[C:1]([O:2][C@@:3]1([H:11])[C@:4]([C:5]([H:13])([H:14])[H:15])([H:12])[C@:7]1([C:6][H:16])[H:17])([H:8])([H:9])[H:10]"
C        2.28786514       0.11447681       0.58777355
O        0.99910138      -0.34213119       0.93479295
C        0.32767350      -0.90948805      -0.12151836
C       -1.13293918      -0.85549907      -0.17259276
C       -1.82436970       0.26340903       0.58238249
C       -0.67332329       1.32931345      -0.83027421
C       -0.32098705      -0.03761543      -1.21674180
H        2.73463687       0.53454196       1.48694666
H        2.21787616       0.88816193      -0.18743403
H        2.91641057      -0.70382958       0.21757289
H        0.80031145      -1.80227046      -0.52863369
H       -1.67632030      -1.73224609      -0.49986104
H       -2.84611979      -0.03154670       0.81986210
H       -1.36360235       0.54491735       1.52783709
H       -2.15252059       1.29657792      -0.27379575
H       -0.03616618       1.80624575      -0.07885492
H       -0.25752664      -0.36301762      -2.24746117
17
Frame=13 idx=009555 GeodesicLength=0.7666427585681352 rxn_smarts="[C:1]([O:2][C@@:3]1([H:11])[C@@:4]2([H:12])[C:5]([H:13])([H:14])[C:6]([H:15])([H:16])[C@@:7]12[H:17])([H:8])([H:9])[H:10]>>[C:1]([O:2][C@@:3]1([H:11])[C@:4]([C:5]([H:13])([H:14])[H:15])([H:12])[C@:7]1([C:6][H:16])[H:17])([H:8])([H:9])[H:10]"
C        2.28793243       0.11244194       0.58869246
O        1.00029576      -0.34684725       0.93692826
C        0.32693556      -0.91180580      -0.11849668
C       -1.13187466      -0.85759111      -0.16920308
C       -1.82207935       0.26582513       0.58041850
C       -0.67079753       1.32699288      -0.82356046
C       -0.32001620      -0.03590474      -1.21590397
H        2.73735218       0.52680395       1.48914274
H        2.21326103       0.89130419      -0.18101813
H        2.91555715      -0.70286174       0.21050133
H        0.80143708      -1.80080107      -0.53166486
H       -1.67584556      -1.73164057      -0.50266338
H       -2.83766462      -0.03712371       0.83337609
H       -1.35641573       0.55633039       1.52089958
H       -2.17486394       1.29958827      -0.29807185
H       -0.03675646       1.80927533      -0.07367459
H       -0.25645712      -0.36398607      -2.24570193
17
Frame=14 idx=009555 GeodesicLength=0.8253955792614848 rxn_smarts="[C:1]([O:2][C@@:3]1([H:11])[C@@:4]2([H:12])[C:5]([H:13])([H:14])[C:6]([H:15])([H:16])[C@@:7]12[H:17])([H:8])([H:9])[H:10]>>[C:1]([O:2][C@@:3]1([H:11])[C@:4]([C:5]([H:13])([H:14])[H:15])([H:12])[C@:7]1([C:6][H:16])[H:17])([H:8])([H:9])[H:10]"
C        2.28797937       0.11044946       0.58958928
O        1.00149473      -0.35156121       0.93905353
C        0.32619738      -0.91413505      -0.11546978
C       -1.13082205      -0.85972025      -0.16574995
C       -1.81975008       0.26813299       0.57862003
C       -0.66841026       1.32464933      -0.81677082
C       -0.31909498      -0.03417659      -1.21501588
H        2.74008867       0.51905961       1.49127225
H        2.20858876       0.89447586      -0.17453092
H        2.91465222      -0.70176447       0.20336465
H        0.80254714      -1.79929469      -0.53468350
H       -1.67536834      -1.73103661      -0.50538770
H       -2.82913996      -0.04218558       0.84660696
H       -1.34930534       0.56727075       1.51416245
H       -2.19681490       1.30245079      -0.32259827
H       -0.03737680       1.81230712      -0.06856975
H       -0.25546555      -0.36492147      -2.24389258
17
Frame=15 idx=009555 GeodesicLength=0.8841406656219702 rxn_smarts="[C:1]([O:2][C@@:3]1([H:11])[C@@:4]2([H:12])[C:5]([H:13])([H:14])[C:6]([H:15])([H:16])[C@@:7]12[H:17])([H:8])([H:9])[H:10]>>[C:1]([O:2][C@@:3]1([H:11])[C@:4]([C:5]([H:13])([H:14])[H:15])([H:12])[C@:7]1([C:6][H:16])[H:17])([H:8])([H:9])[H:10]"
C        2.28801080       0.10849686       0.59046221
O        1.00270419      -0.35627735       0.94116973
C        0.32545927      -0.91647654      -0.11243591
C       -1.12978166      -0.86188396      -0.16223163
C       -1.81737854       0.27033446       0.57699412
C       -0.66615075       1.32228645      -0.80990381
C       -0.31822314      -0.03242884      -1.21407537
H        2.74285631       0.51130220       1.49333226
H        2.20386201       0.89767739      -0.16796944
H        2.91369744      -0.70053789       0.19615543
H        0.80363874      -1.79775326      -0.53768891
H       -1.67489025      -1.73043214      -0.50803149
H       -2.82056299      -0.04676752       0.85956660
H       -1.34225918       0.57775420       1.50763642
H       -2.21839795       1.30518594      -0.34742549
H       -0.03803236       1.81534162      -0.06352330
H       -0.25455192      -0.36582161      -2.24203142
17
Frame=16 idx=009555 GeodesicLength=0.9428727735719814 rxn_smarts="[C:1]([O:2][C@@:3]1([H:11])[C@@:4]2([H:12])[C:5]([H:13])([H:14])[C:6]([H:15])([H:16])[C@@:7]12[H:17])([H:8])([H:9])[H:10]>>[C:1]([O:2][C@@:3]1([H:11])[C@:4]([C:5]([H:13])([H:14])[H:15])([H:12])[C@:7]1([C:6][H:16])[H:17])([H:8])([H:9])[H:10]"
C        2.28802534       0.10658149       0.59130675
O        1.00392646      -0.36099821       0.94327567
C        0.32472189      -0.91882900      -0.10939340
C       -1.12875036      -0.86407756      -0.15864489
C       -1.81495893       0.27243229       0.57554897
C       -0.66400778       1.31990294      -0.80295434
C       -0.31739760      -0.03066081      -1.21307762
H        2.74565715       0.50352189       1.49531611
H        2.19907785       0.90090824      -0.16132934
H        2.91268763      -0.69917961       0.18886023
H        0.80470990      -1.79617500      -0.54068079
H       -1.67440742      -1.72982027      -0.51059081
H       -2.81194742      -0.05089798       0.87226518
H       -1.33526619       0.58779462       1.50133258
H       -2.23962936       1.30780865      -0.37260395
H       -0.03872982       1.81837430      -0.05851761
H       -0.25371133      -0.36668598      -2.24011275
