15
Frame=0 idx=011887 GeodesicLength=0.0 rxn_smarts="[C:1]([C:2]([n:3]1[c:4]([H:13])[c:5]([H:14])[n:6][c:7]1[H:15])([H:11])[H:12])([H:8])([H:9])[H:10]>>[C:1]([C:2]([N+:3]1([H:13])[C-:4]=[C:5]([H:14])[N:6]=[C:7]1[H:15])([H:11])[H:12])([H:8])([H:9])[H:10]"
C       -1.86759526       0.11041106       0.54695636
C       -1.05903746      -0.34303121      -0.65290467
N        0.37882163      -0.17000239      -0.42311627
C        1.16740300      -1.12279718       0.47132069
C        2.23529393      -0.28932268       0.71788199
N        2.13805788       0.99944223       0.23304560
C        1.03564600       1.05250039      -0.43208510
H       -2.92991661      -0.04976021       0.35935239
H       -1.57906386      -0.46028645       1.42955864
H       -1.71365297       1.17112776       0.75081370
H       -1.32782301       0.21115370      -1.55503707
H       -1.21513437      -1.40520424      -0.84218918
H        0.97179701      -1.03551353      -0.90816800
H        3.11372074      -0.57414852       1.27848580
H        0.65148340       1.90543121      -0.97391484
15
Frame=1 idx=011887 GeodesicLength=0.050110420043031755 rxn_smarts="[C:1]([C:2]([n:3]1[c:4]([H:13])[c:5]([H:14])[n:6][c:7]1[H:15])([H:11])[H:12])([H:8])([H:9])[H:10]>>[C:1]([C:2]([N+:3]1([H:13])[C-:4]=[C:5]([H:14])[N:6]=[C:7]1[H:15])([H:11])[H:12])([H:8])([H:9])[H:10]"
C       -1.86278914       0.10688866       0.55113089
C       -1.05900815      -0.33897009      -0.65473509
N        0.38063981      -0.17286491      -0.43008006
C        1.16409368      -1.11451725       0.47108642
C        2.22971125      -0.28277525       0.72546305
N        2.13371896       1.00467141       0.23369830
C        1.03821834       1.05090273      -0.44253581
H       -2.92627667      -0.04615573       0.36406884
H       -1.57630935      -0.47423835       1.42758357
H       -1.70273775       1.16464279       0.76526346
H       -1.32973301       0.22343880      -1.55115222
H       -1.22072903      -1.39859676      -0.85350460
H        0.97120575      -1.05926538      -0.91071568
H        3.10511454      -0.56564703       1.29155869
H        0.65488078       1.90248635      -0.98712975
15
Frame=2 idx=011887 GeodesicLength=0.10021294746088691 rxn_smarts="[C:1]([C:2]([n:3]1[c:4]([H:13])[c:5]([H:14])[n:6][c:7]1[H:15])([H:11])[H:12])([H:8])([H:9])[H:10]>>[C:1]([C:2]([N+:3]1([H:13])[C-:4]=[C:5]([H:14])[N:6]=[C:7]1[H:15])([H:11])[H:12])([H:8])([H:9])[H:10]"
C       -1.85801274       0.10337197       0.55516750
C       -1.05890652      -0.33488177      -0.65655155
N        0.38246813      -0.17569022      -0.43692599
C        1.16087315      -1.10623801       0.47075358
C        2.22398699      -0.27606966       0.73314079
N        2.12921587       1.01004748       0.23451513
C        1.04079074       1.04934582      -0.45277797
H       -2.92261530      -0.04259131       0.36867865
H       -1.57364134      -0.48802983       1.42542199
H       -1.69187027       1.15805049       0.77944487
H       -1.33141839       0.23570473      -1.54721235
H       -1.22629142      -1.39184275      -0.86476305
H        0.97033036      -1.08348961      -0.91257302
H        3.09685446      -0.55726839       1.30377568
H        0.65823627       1.89958105      -1.00009428
15
Frame=3 idx=011887 GeodesicLength=0.1503373007181007 rxn_smarts="[C:1]([C:2]([n:3]1[c:4]([H:13])[c:5]([H:14])[n:6][c:7]1[H:15])([H:11])[H:12])([H:8])([H:9])[H:10]>>[C:1]([C:2]([N+:3]1([H:13])[C-:4]=[C:5]([H:14])[N:6]=[C:7]1[H:15])([H:11])[H:12])([H:8])([H:9])[H:10]"
C       -1.85318901       0.09979256       0.55916628
C       -1.05875336      -0.33071439      -0.65836498
N        0.38430684      -0.17847132      -0.44376237
C        1.15778020      -1.09799402       0.47014548
C        2.21816055      -0.26924529       0.74073610
N        2.12458213       1.01554637       0.23535362
C        1.04337440       1.04783355      -0.46291287
H       -2.91887666      -0.03903226       0.37332028
H       -1.57097423      -0.50188476       1.42306749
H       -1.68088384       1.15123565       0.79361717
H       -1.33297093       0.24809824      -1.54314575
H       -1.23186602      -1.38486637      -0.87607444
H        0.96911030      -1.10818414      -0.91387392
H        3.08849618      -0.54875184       1.31586344
H        0.66170347       1.89663801      -1.01313554
15
Frame=4 idx=011887 GeodesicLength=0.20045918980516741 rxn_smarts="[C:1]([C:2]([n:3]1[c:4]([H:13])[c:5]([H:14])[n:6][c:7]1[H:15])([H:11])[H:12])([H:8])([H:9])[H:10]>>[C:1]([C:2]([N+:3]1([H:13])[C-:4]=[C:5]([H:14])[N:6]=[C:7]1[H:15])([H:11])[H:12])([H:8])([H:9])[H:10]"
C       -1.84838728       0.09620800       0.56303153
C       -1.05852599      -0.32651038      -0.66017380
N        0.38616282      -0.18120937      -0.45050405
C        1.15478249      -1.08975017       0.46942628
C        2.21219375      -0.26226705       0.74841099
N        2.11979819       1.02118627       0.23632012
C        1.04596089       1.04637334      -0.47284923
H       -2.91511044      -0.03552314       0.37786280
H       -1.56837455      -0.51560681       1.42051820
H       -1.66993989       1.14430103       0.80754233
H       -1.33430762       0.26049288      -1.53902283
H       -1.23740140      -1.37772875      -0.88735413
H        0.96755438      -1.13337542      -0.91443129
H        3.08046350      -0.54033849       1.32715411
H        0.66513115       1.89374806      -1.02593101
15
Frame=5 idx=011887 GeodesicLength=0.2506011716665223 rxn_smarts="[C:1]([C:2]([n:3]1[c:4]([H:13])[c:5]([H:14])[n:6][c:7]1[H:15])([H:11])[H:12])([H:8])([H:9])[H:10]>>[C:1]([C:2]([N+:3]1([H:13])[C-:4]=[C:5]([H:14])[N:6]=[C:7]1[H:15])([H:11])[H:12])([H:8])([H:9])[H:10]"
C       -1.84353279       0.09254714       0.56686319
C       -1.05824623      -0.32221386      -0.66198558
N        0.38803356      -0.18389123      -0.45725435
C        1.15191946      -1.08154226       0.46841420
C        2.20612115      -0.25517347       0.75599319
N        2.11487814       1.02695355       0.23731298
C        1.04855422       1.04497693      -0.48266777
H       -2.91126061      -0.03205877       0.38245746
H       -1.56574463      -0.52940223       1.41777108
H       -1.65889327       1.13713057       0.82146353
H       -1.33551764       0.27303878      -1.53476523
H       -1.24294327      -1.37034668      -0.89870874
H        0.96559927      -1.15904439      -0.91437890
H        3.07231903      -0.53178797       1.33834243
H        0.66871360       1.89081388      -1.03885749
15
Frame=6 idx=011887 GeodesicLength=0.3007424735877521 rxn_smarts="[C:1]([C:2]([n:3]1[c:4]([H:13])[c:5]([H:14])[n:6][c:7]1[H:15])([H:11])[H:12])([H:8])([H:9])[H:10]>>[C:1]([C:2]([N+:3]1([H:13])[C-:4]=[C:5]([H:14])[N:6]=[C:7]1[H:15])([H:11])[H:12])([H:8])([H:9])[H:10]"
C       -1.83868201       0.08886959       0.57057109
C       -1.05789155      -0.31787134      -0.66380157
N        0.38992833      -0.18652175      -0.46394601
C        1.14916760      -1.07334758       0.46723623
C        2.19990852      -0.24793919       0.76361864
N        2.10980417       1.03286080       0.23842530
C        1.05114946       1.04364868      -0.49229064
H       -2.90736643      -0.02868621       0.38698757
H       -1.56312565      -0.54306513       1.41483576
H       -1.64789405       1.12983576       0.83514146
H       -1.33652650       0.28560492      -1.53044550
H       -1.24844261      -1.36278841      -0.91004880
H        0.96325186      -1.18521245      -0.91355907
H        3.06443626      -0.52332693       1.34884684
H        0.67228258       1.88793922      -1.05157130
15
Frame=7 idx=011887 GeodesicLength=0.3508840506071068 rxn_smarts="[C:1]([C:2]([n:3]1[c:4]([H:13])[c:5]([H:14])[n:6][c:7]1[H:15])([H:11])[H:12])([H:8])([H:9])[H:10]>>[C:1]([C:2]([N+:3]1([H:13])[C-:4]=[C:5]([H:14])[N:6]=[C:7]1[H:15])([H:11])[H:12])([H:8])([H:9])[H:10]"
C       -1.83382589       0.08516910       0.57416096
C       -1.05746122      -0.31347737      -0.66562760
N        0.39185144      -0.18909753      -0.47059808
C        1.14653687      -1.06517310       0.46586896
C        2.19355868      -0.24057280       0.77127038
N        2.10457972       1.03890405       0.23964450
C        1.05374682       1.04239640      -0.50172465
H       -2.90342111      -0.02541811       0.39146606
H       -1.56049339      -0.55660699       1.41171387
H       -1.63693917       1.12241328       0.84858783
H       -1.33734298       0.29820379      -1.52606249
H       -1.25389644      -1.35504633      -0.92138810
H        0.96047982      -1.21188539      -0.91195073
H        3.05678152      -0.51493913       1.35872616
H        0.67584534       1.88513013      -1.06408707
15
Frame=8 idx=011887 GeodesicLength=0.40102600022084534 rxn_smarts="[C:1]([C:2]([n:3]1[c:4]([H:13])[c:5]([H:14])[n:6][c:7]1[H:15])([H:11])[H:12])([H:8])([H:9])[H:10]>>[C:1]([C:2]([N+:3]1([H:13])[C-:4]=[C:5]([H:14])[N:6]=[C:7]1[H:15])([H:11])[H:12])([H:8])([H:9])[H:10]"
C       -1.82895794       0.08144170       0.57763272
C       -1.05695301      -0.30902912      -0.66746863
N        0.39380752      -0.19161551      -0.47722457
C        1.14403320      -1.05702160       0.46429700
C        2.18706848      -0.23307791       0.77894131
N        2.09920274       1.04508298       0.24096825
C        1.05634716       1.04122702      -0.51097219
H       -2.89941934      -0.02226813       0.39589678
H       -1.55782897      -0.57003096       1.40840485
H       -1.62603011       1.11486346       0.86180274
H       -1.33797024       0.31084022      -1.52161685
H       -1.25929977      -1.34711574      -0.93273426
H        0.95725010      -1.23906818      -0.90951998
H        3.04934657      -0.50662352       1.36799761
H        0.67940361       1.88239530      -1.07640476
15
Frame=9 idx=011887 GeodesicLength=0.45116967714034195 rxn_smarts="[C:1]([C:2]([n:3]1[c:4]([H:13])[c:5]([H:14])[n:6][c:7]1[H:15])([H:11])[H:12])([H:8])([H:9])[H:10]>>[C:1]([C:2]([N+:3]1([H:13])[C-:4]=[C:5]([H:14])[N:6]=[C:7]1[H:15])([H:11])[H:12])([H:8])([H:9])[H:10]"
C       -1.82406697       0.07768209       0.58098955
C       -1.05636499      -0.30452268      -0.66933039
N        0.39580169      -0.19407327      -0.48384554
C        1.14166656      -1.04889984       0.46249455
C        2.18043830      -0.22546275       0.78661477
N        2.09367327       1.05139461       0.24238799
C        1.05895229       1.04014685      -0.52004124
H       -2.89535218      -0.01925006       0.40029071
H       -1.55510594      -0.58334415       1.40490908
H       -1.61516154       1.10718469       0.87479150
H       -1.33841468       0.32352251      -1.51710748
H       -1.26464949      -1.33899022      -0.94409739
H        0.95352548      -1.26676533      -0.90623923
H        3.04209898      -0.49836658       1.37671104
H        0.68295920       1.87974412      -1.08852790
15
Frame=10 idx=011887 GeodesicLength=0.5013184920759677 rxn_smarts="[C:1]([C:2]([n:3]1[c:4]([H:13])[c:5]([H:14])[n:6][c:7]1[H:15])([H:11])[H:12])([H:8])([H:9])[H:10]>>[C:1]([C:2]([N+:3]1([H:13])[C-:4]=[C:5]([H:14])[N:6]=[C:7]1[H:15])([H:11])[H:12])([H:8])([H:9])[H:10]"
C       -1.81913682       0.07388210       0.58423876
C       -1.05569580      -0.29995227      -0.67121899
N        0.39783918      -0.19646861      -0.49048693
C        1.13944991      -1.04081731       0.46042605
C        2.17367000      -0.21773808       0.79426578
N        2.08799348       1.05783414       0.24388758
C        1.06156482       1.03916195      -0.52894591
H       -2.89120668      -0.01637555       0.40466571
H       -1.55229299      -0.59656302       1.40122580
H       -1.60431788       1.09936980       0.88756961
H       -1.33868602       0.33626443      -1.51252972
H       -1.26994510      -1.33066019      -0.95549119
H        0.94926424      -1.29498041      -0.90208600
H        3.03498156      -0.49014117       1.38495049
H        0.68651809       1.87718420      -1.10047102
15
Frame=11 idx=011887 GeodesicLength=0.5514823549208622 rxn_smarts="[C:1]([C:2]([n:3]1[c:4]([H:13])[c:5]([H:14])[n:6][c:7]1[H:15])([H:11])[H:12])([H:8])([H:9])[H:10]>>[C:1]([C:2]([N+:3]1([H:13])[C-:4]=[C:5]([H:14])[N:6]=[C:7]1[H:15])([H:11])[H:12])([H:8])([H:9])[H:10]"
C       -1.81415475       0.07003684       0.58738411
C       -1.05494238      -0.29531568      -0.67314182
N        0.39992594      -0.19880020      -0.49717181
C        1.13739483      -1.03278427       0.45806401
C        2.16676004      -0.20991151       0.80188277
N        2.08216068       1.06440220       0.24546172
C        1.06418774       1.03828078      -0.53769769
H       -2.88697258      -0.01365755       0.40903361
H       -1.54936351      -0.60969567       1.39735756
H       -1.59349034       1.09141973       0.90014284
H       -1.33878849       0.34907301      -1.50788580
H       -1.27518320      -1.32212325      -0.96692600
H        0.94442508      -1.32371967      -0.89702844
H        3.02796129      -0.48193662       1.39276105
H        0.69007966       1.87473187      -1.11223613
15
Frame=12 idx=011887 GeodesicLength=0.601630896903696 rxn_smarts="[C:1]([C:2]([n:3]1[c:4]([H:13])[c:5]([H:14])[n:6][c:7]1[H:15])([H:11])[H:12])([H:8])([H:9])[H:10]>>[C:1]([C:2]([N+:3]1([H:13])[C-:4]=[C:5]([H:14])[N:6]=[C:7]1[H:15])([H:11])[H:12])([H:8])([H:9])[H:10]"
C       -1.80910470       0.06613796       0.59042363
C       -1.05410342      -0.29060504      -0.67510079
N        0.40206703      -0.20106353      -0.50392094
C        1.13551673      -1.02480438       0.45537101
C        2.15970737      -0.20199560       0.80944339
N        2.07617591       1.07108248       0.24709816
C        1.06682200       1.03750179      -0.54630257
H       -2.88263725      -0.01111106       0.41340340
H       -1.54628298      -0.62274946       1.39329020
H       -1.58266723       1.08331972       0.91251127
H       -1.33873204       0.36195759      -1.50316136
H       -1.28036191      -1.31335915      -0.97840742
H        0.93896109      -1.35296662      -0.89102050
H        3.02099327      -0.47372425       1.40019683
H        0.69364613       1.87237956      -1.12382429
15
Frame=13 idx=011887 GeodesicLength=0.651824546550883 rxn_smarts="[C:1]([C:2]([n:3]1[c:4]([H:13])[c:5]([H:14])[n:6][c:7]1[H:15])([H:11])[H:12])([H:8])([H:9])[H:10]>>[C:1]([C:2]([N+:3]1([H:13])[C-:4]=[C:5]([H:14])[N:6]=[C:7]1[H:15])([H:11])[H:12])([H:8])([H:9])[H:10]"
C       -1.80391865       0.06213406       0.59342474
C       -1.05318745      -0.28578535      -0.67710809
N        0.40426537      -0.20326066      -0.51082448
C        1.13384863      -1.01690824       0.45222753
C        2.15250847      -0.19399900       0.81686347
N        2.07002597       1.07788822       0.24873718
C        1.06948265       1.03682947      -0.55485709
H       -2.87814607      -0.00870427       0.41788201
H       -1.54299041      -0.63589147       1.38900538
H       -1.57169623       1.07497529       0.92485385
H       -1.33856623       0.37502370      -1.49830375
H       -1.28551731      -1.30431256      -0.99001557
H        0.93279247      -1.38274296      -0.88411461
H        3.01377020      -0.46533056       1.40770569
H        0.69732860       1.87008432      -1.13547626
15
Frame=14 idx=011887 GeodesicLength=0.7020466591252821 rxn_smarts="[C:1]([C:2]([n:3]1[c:4]([H:13])[c:5]([H:14])[n:6][c:7]1[H:15])([H:11])[H:12])([H:8])([H:9])[H:10]>>[C:1]([C:2]([N+:3]1([H:13])[C-:4]=[C:5]([H:14])[N:6]=[C:7]1[H:15])([H:11])[H:12])([H:8])([H:9])[H:10]"
C       -1.79862521       0.05806806       0.59632723
C       -1.05217490      -0.28089223      -0.67917141
N        0.40653168      -0.20539237      -0.51785173
C        1.13238549      -1.00909217       0.44868757
C        2.14514448      -0.18592465       0.82421044
N        2.06371975       1.08480793       0.25041142
C        1.07216413       1.03627554      -0.56330626
H       -2.87351760      -0.00647777       0.42238806
H       -1.53949251      -0.64898037       1.38451944
H       -1.56068088       1.06647951       0.93700969
H       -1.33824355       0.38817316      -1.49337611
H       -1.29060707      -1.29504236      -1.00168956
H        0.92590084      -1.41304498      -0.87617863
H        3.00651052      -0.45690217       1.41494527
H        0.70098483       1.86794487      -1.14692543
15
Frame=15 idx=011887 GeodesicLength=0.7522928657790428 rxn_smarts="[C:1]([C:2]([n:3]1[c:4]([H:13])[c:5]([H:14])[n:6][c:7]1[H:15])([H:11])[H:12])([H:8])([H:9])[H:10]>>[C:1]([C:2]([N+:3]1([H:13])[C-:4]=[C:5]([H:14])[N:6]=[C:7]1[H:15])([H:11])[H:12])([H:8])([H:9])[H:10]"
C       -1.79316176       0.05388294       0.59918076
C       -1.05107701      -0.27588085      -0.68129180
N        0.40886819      -0.20745255      -0.52507858
C        1.13116726      -1.00136843       0.44462678
C        2.13759829      -0.17777148       0.83141364
N        2.05725416       1.09182923       0.25205508
C        1.07487817       1.03582797      -0.57172460
H       -2.86870376      -0.00442313       0.42701549
H       -1.53571807      -0.66216195       1.37978762
H       -1.54948774       1.05771474       0.94912258
H       -1.33781641       0.40151112      -1.48829745
H       -1.29566604      -1.28546103      -1.01349336
H        0.91820014      -1.44384944      -0.86722149
H        2.99892853      -0.44827342       1.42230643
H        0.70473605       1.86587628      -1.15840109
15
Frame=16 idx=011887 GeodesicLength=0.8025986310251353 rxn_smarts="[C:1]([C:2]([n:3]1[c:4]([H:13])[c:5]([H:14])[n:6][c:7]1[H:15])([H:11])[H:12])([H:8])([H:9])[H:10]>>[C:1]([C:2]([N+:3]1([H:13])[C-:4]=[C:5]([H:14])[N:6]=[C:7]1[H:15])([H:11])[H:12])([H:8])([H:9])[H:10]"
C       -1.78750187       0.04956989       0.60199592
C       -1.04988841      -0.27075052      -0.68348319
N        0.41128109      -0.20944195      -0.53254572
C        1.13021391      -0.99376231       0.43999918
C        2.12984113      -0.16954568       0.83847927
N        2.05063504       1.09895312       0.25364391
C        1.07763058       1.03550370      -0.58014055
H       -2.86367975      -0.00255697       0.43179297
H       -1.53162541      -0.67545352       1.37481692
H       -1.53808741       1.04868013       0.96120692
H       -1.33728641       0.41505000      -1.48307511
H       -1.30069280      -1.27557267      -1.02544503
H        0.90962976      -1.47516211      -0.85720243
H        2.99095418      -0.43942839       1.42986736
H        0.70857639       1.86391729      -1.16991041
