16
Frame=0 idx=007532 GeodesicLength=0.0 rxn_smarts="[C:1]([O:2][C:3]([C@@:4]([C:5]([H:14])([H:15])[H:16])([C:6]#[N:7])[H:13])([H:11])[H:12])([H:8])([H:9])[H:10]>>[C:1]([O:2][C:3]([C@@:4]([C:5]([H:14])([H:15])[H:16])([N+:7]#[C-:6])[H:13])([H:11])[H:12])([H:8])([H:9])[H:10]"
C        2.49347941       0.34829687       0.18957542
O        1.11953572       0.63363215       0.27512259
C        0.32338214      -0.52274780       0.23964903
C       -1.11751119      -0.04300367       0.30868217
C       -1.64943010       0.64090910      -0.92531609
C       -1.91856741      -1.66089446       0.29340373
N       -2.35516317      -1.06449175       1.21892209
H        3.02513165       1.29764627       0.22272122
H        2.73748299      -0.16619184      -0.74820933
H        2.82325965      -0.27711995       1.02849171
H        0.54255068      -1.17793906       1.09150641
H        0.49218720      -1.09159619      -0.68352004
H       -1.19575396       0.61468106       1.17216464
H       -2.68729478       0.93936497      -0.78555455
H       -1.04887398       1.53637446      -1.09850891
H       -1.58441478      -0.00692011      -1.79913009
16
Frame=1 idx=007532 GeodesicLength=0.030519017751764185 rxn_smarts="[C:1]([O:2][C:3]([C@@:4]([C:5]([H:14])([H:15])[H:16])([C:6]#[N:7])[H:13])([H:11])[H:12])([H:8])([H:9])[H:10]>>[C:1]([O:2][C:3]([C@@:4]([C:5]([H:14])([H:15])[H:16])([N+:7]#[C-:6])[H:13])([H:11])[H:12])([H:8])([H:9])[H:10]"
C        2.49236831       0.34944463       0.18610776
O        1.11832117       0.63434452       0.27107755
C        0.32264133      -0.52224687       0.24292426
C       -1.12057927      -0.04702461       0.31117060
C       -1.64522163       0.64400733      -0.92372300
C       -1.92987174      -1.66842895       0.28959300
N       -2.35694576      -1.07663343       1.21905598
H        3.02346309       1.29940659       0.21256554
H        2.73606574      -0.17086489      -0.74853474
H        2.82328445      -0.27053627       1.02864397
H        0.54407820      -1.17320786       1.09759212
H        0.49222081      -1.09529204      -0.67773944
H       -1.19711425       0.61500830       1.17225468
H       -2.68312465       0.94443822      -0.78806101
H       -1.04220156       1.53829338      -1.09317063
H       -1.57738423      -0.00070806      -1.79975666
16
Frame=2 idx=007532 GeodesicLength=0.0611090256167352 rxn_smarts="[C:1]([O:2][C:3]([C@@:4]([C:5]([H:14])([H:15])[H:16])([C:6]#[N:7])[H:13])([H:11])[H:12])([H:8])([H:9])[H:10]>>[C:1]([O:2][C:3]([C@@:4]([C:5]([H:14])([H:15])[H:16])([N+:7]#[C-:6])[H:13])([H:11])[H:12])([H:8])([H:9])[H:10]"
C        2.49121917       0.35068425       0.18268127
O        1.11710128       0.63505122       0.26700100
C        0.32187090      -0.52168346       0.24627127
C       -1.12367674      -0.05107392       0.31364825
C       -1.64097400       0.64707896      -0.92207999
C       -1.94148384      -1.67587367       0.28552226
N       -2.35847092      -1.08897095       1.21917971
H        3.02183105       1.30087684       0.20228007
H        2.73452466      -0.17553828      -0.74881091
H        2.82328960      -0.26381726       1.02867616
H        0.54559939      -1.16826898       1.10378591
H        0.49226518      -1.09898668      -0.67177519
H       -1.19847600       0.61528471       1.17223772
H       -2.67888699       0.94944934      -0.79048215
H       -1.03556680       1.54020704      -1.08782003
H       -1.57016593       0.00558084      -1.80031535
16
Frame=3 idx=007532 GeodesicLength=0.09162643144899267 rxn_smarts="[C:1]([O:2][C:3]([C@@:4]([C:5]([H:14])([H:15])[H:16])([C:6]#[N:7])[H:13])([H:11])[H:12])([H:8])([H:9])[H:10]>>[C:1]([O:2][C:3]([C@@:4]([C:5]([H:14])([H:15])[H:16])([N+:7]#[C-:6])[H:13])([H:11])[H:12])([H:8])([H:9])[H:10]"
C        2.49006635       0.35179164       0.17914219
O        1.11587251       0.63573588       0.26292833
C        0.32109968      -0.52109653       0.24963093
C       -1.12678662      -0.05512801       0.31606397
C       -1.63674356       0.65017065      -0.92042651
C       -1.95307896      -1.68333588       0.28143666
N       -2.36003852      -1.10140292       1.21927317
H        3.02013837       1.30251371       0.19193742
H        2.73309050      -0.18031859      -0.74906810
H        2.82336092      -0.25708445       1.02879961
H        0.54709903      -1.16329065       1.10999873
H        0.49230123      -1.10271838      -0.66580935
H       -1.19984582       0.61562513       1.17229620
H       -2.67461995       0.95449326      -0.79293199
H       -1.02895807       1.54215261      -1.08241245
H       -1.56295708       0.01189252      -1.80085880
16
Frame=4 idx=007532 GeodesicLength=0.1223143290057193 rxn_smarts="[C:1]([O:2][C:3]([C@@:4]([C:5]([H:14])([H:15])[H:16])([C:6]#[N:7])[H:13])([H:11])[H:12])([H:8])([H:9])[H:10]>>[C:1]([O:2][C:3]([C@@:4]([C:5]([H:14])([H:15])[H:16])([N+:7]#[C-:6])[H:13])([H:11])[H:12])([H:8])([H:9])[H:10]"
C        2.48892577       0.35291172       0.17560485
O        1.11466064       0.63641926       0.25887600
C        0.32032231      -0.52042981       0.25306645
C       -1.12992094      -0.05914219       0.31850803
C       -1.63248788       0.65324309      -0.91870921
C       -1.96491614      -1.69072149       0.27708660
N       -2.36139114      -1.11408847       1.21923763
H        3.01847303       1.30398070       0.18143036
H        2.73157867      -0.18515119      -0.74926976
H        2.82342341      -0.25028881       1.02882144
H        0.54859690      -1.15809520       1.11633095
H        0.49233084      -1.10644174      -0.65964814
H       -1.20120425       0.61598222       1.17225973
H       -2.67032493       0.95952668      -0.79536269
H       -1.02244036       1.54411272      -1.07693188
H       -1.55562591       0.01818249      -1.80130036
16
Frame=5 idx=007532 GeodesicLength=0.15277003720577828 rxn_smarts="[C:1]([O:2][C:3]([C@@:4]([C:5]([H:14])([H:15])[H:16])([C:6]#[N:7])[H:13])([H:11])[H:12])([H:8])([H:9])[H:10]>>[C:1]([O:2][C:3]([C@@:4]([C:5]([H:14])([H:15])[H:16])([N+:7]#[C-:6])[H:13])([H:11])[H:12])([H:8])([H:9])[H:10]"
C        2.48778563       0.35403401       0.17207345
O        1.11344889       0.63710331       0.25482798
C        0.31954742      -0.51976680       0.25649630
C       -1.13305315      -0.06315794       0.32095286
C       -1.62823517       0.65631007      -0.91699768
C       -1.97675542      -1.69809767       0.27275094
N       -2.36274091      -1.12675576       1.21921454
H        3.01680685       1.30544888       0.17095917
H        2.73007043      -0.18995743      -0.74947708
H        2.82348550      -0.24350947       1.02883402
H        0.55009870      -1.15291460       1.12265338
H        0.49236160      -1.11016314      -0.65350143
H       -1.20255696       0.61634660       1.17222024
H       -2.66603124       0.96456070      -0.79779003
H       -1.01591734       1.54606022      -1.07146672
H       -1.54831484       0.02445901      -1.80174994
16
Frame=6 idx=007532 GeodesicLength=0.18347420381780088 rxn_smarts="[C:1]([O:2][C:3]([C@@:4]([C:5]([H:14])([H:15])[H:16])([C:6]#[N:7])[H:13])([H:11])[H:12])([H:8])([H:9])[H:10]>>[C:1]([O:2][C:3]([C@@:4]([C:5]([H:14])([H:15])[H:16])([N+:7]#[C-:6])[H:13])([H:11])[H:12])([H:8])([H:9])[H:10]"
C        2.48665041       0.35507536       0.16851378
O        1.11225909       0.63777335       0.25076879
C        0.31876257      -0.51901314       0.25997641
C       -1.13621689      -0.06711442       0.32337577
C       -1.62398117       0.65934041      -0.91523017
C       -1.98885106      -1.70538691       0.26817533
N       -2.36384205      -1.13972610       1.21908982
H        3.01515406       1.30670852       0.16044806
H        2.72854061      -0.19470553      -0.74961702
H        2.82355107      -0.23672069       1.02871384
H        0.55158748      -1.14743143       1.12903900
H        0.49237231      -1.11384020      -0.64714476
H       -1.20388766       0.61679495       1.17210080
H       -2.66168971       0.96958412      -0.80020019
H       -1.00950366       1.54797621      -1.06597900
H       -1.54090540       0.03068551      -1.80203045
16
Frame=7 idx=007532 GeodesicLength=0.21394857533824932 rxn_smarts="[C:1]([O:2][C:3]([C@@:4]([C:5]([H:14])([H:15])[H:16])([C:6]#[N:7])[H:13])([H:11])[H:12])([H:8])([H:9])[H:10]>>[C:1]([O:2][C:3]([C@@:4]([C:5]([H:14])([H:15])[H:16])([N+:7]#[C-:6])[H:13])([H:11])[H:12])([H:8])([H:9])[H:10]"
C        2.48549299       0.35619438       0.16493787
O        1.11106273       0.63846518       0.24671427
C        0.31797261      -0.51818421       0.26346183
C       -1.13937199      -0.07107876       0.32583709
C       -1.61975850       0.66237387      -0.91346361
C       -2.00095200      -1.71268697       0.26358456
N       -2.36490195      -1.15267899       1.21898482
H        3.01353253       1.30808037       0.15001528
H        2.72700895      -0.19957343      -0.74979021
H        2.82362612      -0.23000152       1.02863224
H        0.55309181      -1.14203579       1.13543635
H        0.49238973      -1.11757023      -0.64084312
H       -1.20518106       0.61727121       1.17198793
H       -2.65738439       0.97459022      -0.80263433
H       -1.00307457       1.54993620      -1.06054035
H       -1.53355301       0.03689849      -1.80232061
16
Frame=8 idx=007532 GeodesicLength=0.24463993815474158 rxn_smarts="[C:1]([O:2][C:3]([C@@:4]([C:5]([H:14])([H:15])[H:16])([C:6]#[N:7])[H:13])([H:11])[H:12])([H:8])([H:9])[H:10]>>[C:1]([O:2][C:3]([C@@:4]([C:5]([H:14])([H:15])[H:16])([N+:7]#[C-:6])[H:13])([H:11])[H:12])([H:8])([H:9])[H:10]"
C        2.48439220       0.35720800       0.16138401
O        1.10988772       0.63913287       0.24272101
C        0.31717482      -0.51727920       0.26701779
C       -1.14254960      -0.07497005       0.32819024
C       -1.61550700       0.66535617      -0.91165344
C       -2.01327552      -1.71983746       0.25885938
N       -2.36573050      -1.16593234       1.21873770
H        3.01192033       1.30915003       0.13954537
H        2.72544507      -0.20430008      -0.74992763
H        2.82372450      -0.22330031       1.02833994
H        0.55454309      -1.13626789       1.14192872
H        0.49241138      -1.12113457      -0.63433381
H       -1.20654659       0.61773720       1.17175445
H       -2.65298133       0.97960848      -0.80495387
H       -0.99679674       1.55180275      -1.05511245
H       -1.52611185       0.04302637      -1.80249742
16
Frame=9 idx=007532 GeodesicLength=0.27524370445341606 rxn_smarts="[C:1]([O:2][C:3]([C@@:4]([C:5]([H:14])([H:15])[H:16])([C:6]#[N:7])[H:13])([H:11])[H:12])([H:8])([H:9])[H:10]>>[C:1]([O:2][C:3]([C@@:4]([C:5]([H:14])([H:15])[H:16])([N+:7]#[C-:6])[H:13])([H:11])[H:12])([H:8])([H:9])[H:10]"
C        2.48325177       0.35823426       0.15776754
O        1.10870342       0.63975841       0.23875405
C        0.31637198      -0.51639127       0.27062123
C       -1.14575545      -0.07883738       0.33064142
C       -1.61125306       0.66834047      -0.90984805
C       -2.02564950      -1.72698825       0.25411294
N       -2.36655458      -1.17923700       1.21845650
H        3.01027388       1.31027833       0.12915321
H        2.72384893      -0.20896737      -0.75010423
H        2.82386930      -0.21661933       1.02798405
H        0.55602773      -1.13052381       1.14839590
H        0.49238687      -1.12476563      -0.62779595
H       -1.20787765       0.61828659       1.17155680
H       -2.64856332       0.98465737      -0.80736533
H       -0.99043897       1.55366101      -1.04971493
H       -1.51864135       0.04911360      -1.80261515
16
Frame=10 idx=007532 GeodesicLength=0.3055921011957066 rxn_smarts="[C:1]([O:2][C:3]([C@@:4]([C:5]([H:14])([H:15])[H:16])([C:6]#[N:7])[H:13])([H:11])[H:12])([H:8])([H:9])[H:10]>>[C:1]([O:2][C:3]([C@@:4]([C:5]([H:14])([H:15])[H:16])([N+:7]#[C-:6])[H:13])([H:11])[H:12])([H:8])([H:9])[H:10]"
C        2.48211804       0.35929164       0.15417600
O        1.10751157       0.64043397       0.23481251
C        0.31555646      -0.51546408       0.27419660
C       -1.14895672      -0.08272199       0.33306471
C       -1.60702176       0.67128928      -0.90803003
C       -2.03805397      -1.73409211       0.24928833
N       -2.36728251      -1.19263672       1.21818187
H        3.00867033       1.31132835       0.11868778
H        2.72221121      -0.21367538      -0.75028445
H        2.82389682      -0.20990813       1.02771483
H        0.55753548      -1.12474474       1.15491064
H        0.49235947      -1.12837369      -0.62127869
H       -1.20917331       0.61884665       1.17131395
H       -2.64415535       0.98970684      -0.80969751
H       -0.98401180       1.55553148      -1.04434013
H       -1.51120397       0.05518863      -1.80271639
16
Frame=11 idx=007532 GeodesicLength=0.3363195201089671 rxn_smarts="[C:1]([O:2][C:3]([C@@:4]([C:5]([H:14])([H:15])[H:16])([C:6]#[N:7])[H:13])([H:11])[H:12])([H:8])([H:9])[H:10]>>[C:1]([O:2][C:3]([C@@:4]([C:5]([H:14])([H:15])[H:16])([N+:7]#[C-:6])[H:13])([H:11])[H:12])([H:8])([H:9])[H:10]"
C        2.48100614       0.36021779       0.15052361
O        1.10638486       0.64113762       0.23073211
C        0.31475298      -0.51432772       0.27788984
C       -1.15216052      -0.08657950       0.33540356
C       -1.60276344       0.67426743      -0.90609654
C       -2.05089603      -1.74110276       0.24403338
N       -2.36762133      -1.20641895       1.21764702
H        3.00711591       1.31222013       0.10796054
H        2.72061866      -0.21860838      -0.75031218
H        2.82406894      -0.20314797       1.02728274
H        0.55892666      -1.11849183       1.16167228
H        0.49240133      -1.13201781      -0.61430441
H       -1.21054743       0.61937370       1.17102769
H       -2.63971399       0.99466138      -0.81201136
H       -0.97798682       1.55746932      -1.03874820
H       -1.50358591       0.06134756      -1.80270008
16
Frame=12 idx=007532 GeodesicLength=0.3669356104235601 rxn_smarts="[C:1]([O:2][C:3]([C@@:4]([C:5]([H:14])([H:15])[H:16])([C:6]#[N:7])[H:13])([H:11])[H:12])([H:8])([H:9])[H:10]>>[C:1]([O:2][C:3]([C@@:4]([C:5]([H:14])([H:15])[H:16])([N+:7]#[C-:6])[H:13])([H:11])[H:12])([H:8])([H:9])[H:10]"
C        2.47988456       0.36116213       0.14684030
O        1.10524133       0.64181431       0.22672135
C        0.31393666      -0.51319763       0.28163365
C       -1.15539034      -0.09042154       0.33778970
C       -1.59849185       0.67723312      -0.90416504
C       -2.06379050      -1.74806089       0.23874408
N       -2.36791511      -1.22032672       1.21705135
H        3.00553898       1.31307933       0.09719808
H        2.71896446      -0.22350305      -0.75037471
H        2.82423760      -0.19636597       1.02682043
H        0.56034096      -1.11219999       1.16846580
H        0.49240558      -1.13566151      -0.60730392
H       -1.21192323       0.61992736       1.17074111
H       -2.63523211       0.99965705      -0.81433454
H       -0.97187250       1.55939473      -1.03318611
H       -1.49593449       0.06746927      -1.80264152
16
Frame=13 idx=007532 GeodesicLength=0.39732341966689905 rxn_smarts="[C:1]([O:2][C:3]([C@@:4]([C:5]([H:14])([H:15])[H:16])([C:6]#[N:7])[H:13])([H:11])[H:12])([H:8])([H:9])[H:10]>>[C:1]([O:2][C:3]([C@@:4]([C:5]([H:14])([H:15])[H:16])([N+:7]#[C-:6])[H:13])([H:11])[H:12])([H:8])([H:9])[H:10]"
C        2.47875991       0.36208549       0.14313556
O        1.10408254       0.64246938       0.22274776
C        0.31311069      -0.51200339       0.28535789
C       -1.15864108      -0.09424009       0.34016308
C       -1.59422268       0.68017841      -0.90223950
C       -2.07666829      -1.75497217       0.23342350
N       -2.36814746      -1.23435889       1.21644440
H        3.00394527       1.31386312       0.08644931
H        2.71729704      -0.22841499      -0.75041047
H        2.82442269      -0.18960762       1.02626977
H        0.56176839      -1.10581820       1.17531701
H        0.49241078      -1.13929914      -0.60023082
H       -1.21330963       0.62050574       1.17039590
H       -2.63077949       1.00466174      -0.81667474
H       -0.96579636       1.56134401      -1.02760875
H       -1.48823231       0.07360661      -1.80253989
16
Frame=14 idx=007532 GeodesicLength=0.42783147965202 rxn_smarts="[C:1]([O:2][C:3]([C@@:4]([C:5]([H:14])([H:15])[H:16])([C:6]#[N:7])[H:13])([H:11])[H:12])([H:8])([H:9])[H:10]>>[C:1]([O:2][C:3]([C@@:4]([C:5]([H:14])([H:15])[H:16])([N+:7]#[C-:6])[H:13])([H:11])[H:12])([H:8])([H:9])[H:10]"
C        2.47758433       0.36303627       0.13939501
O        1.10290485       0.64320316       0.21879356
C        0.31225295      -0.51081465       0.28927737
C       -1.16194254      -0.09803129       0.34266465
C       -1.58992248       0.68319047      -0.90026331
C       -2.08964178      -1.76190698       0.22795057
N       -2.36837127      -1.24858684       1.21556929
H        3.00236790       1.31460801       0.07544849
H        2.71556170      -0.23343218      -0.75039813
H        2.82463662      -0.18265141       1.02559264
H        0.56315534      -1.09937897       1.18219858
H        0.49232222      -1.14295455      -0.59307490
H       -1.21475025       0.62110203       1.17019744
H       -2.62619516       1.00967274      -0.81905041
H       -0.95951718       1.56322982      -1.02198132
H       -1.48044526       0.07971436      -1.80231952
16
Frame=15 idx=007532 GeodesicLength=0.45857947675258953 rxn_smarts="[C:1]([O:2][C:3]([C@@:4]([C:5]([H:14])([H:15])[H:16])([C:6]#[N:7])[H:13])([H:11])[H:12])([H:8])([H:9])[H:10]>>[C:1]([O:2][C:3]([C@@:4]([C:5]([H:14])([H:15])[H:16])([N+:7]#[C-:6])[H:13])([H:11])[H:12])([H:8])([H:9])[H:10]"
C        2.47649174       0.36387044       0.13560578
O        1.10181765       0.64380274       0.21477343
C        0.31143450      -0.50948716       0.29314451
C       -1.16517731      -0.10179653       0.34497694
C       -1.58565916       0.68608464      -0.89820294
C       -2.10312820      -1.76857826       0.22222503
N       -2.36800918      -1.26316183       1.21461916
H        3.00079458       1.31516591       0.06446461
H        2.71381500      -0.23841420      -0.75040640
H        2.82479245      -0.17582186       1.02512263
H        0.56456387      -1.09247572       1.18921863
H        0.49234442      -1.14656474      -0.58563500
H       -1.21612369       0.62169221       1.16978481
H       -2.62164657       1.01470932      -0.82124491
H       -0.95365455       1.56521529      -1.01639625
H       -1.47265555       0.08575977      -1.80205002
16
Frame=16 idx=007532 GeodesicLength=0.4893956416812262 rxn_smarts="[C:1]([O:2][C:3]([C@@:4]([C:5]([H:14])([H:15])[H:16])([C:6]#[N:7])[H:13])([H:11])[H:12])([H:8])([H:9])[H:10]>>[C:1]([O:2][C:3]([C@@:4]([C:5]([H:14])([H:15])[H:16])([N+:7]#[C-:6])[H:13])([H:11])[H:12])([H:8])([H:9])[H:10]"
C        2.47536035       0.36470880       0.13177443
O        1.10069982       0.64447427       0.21077389
C        0.31058506      -0.50810434       0.29716422
C       -1.16848048      -0.10552795       0.34739133
C       -1.58136598       0.68902841      -0.89611019
C       -2.11668083      -1.77523800       0.21632898
N       -2.36758111      -1.27801352       1.21340622
H        2.99922976       1.31564311       0.05321907
H        2.71201824      -0.24355308      -0.75032348
H        2.82501713      -0.16884232       1.02445431
H        0.56592531      -1.08543257       1.19635459
H        0.49229236      -1.15020280      -0.57803106
H       -1.21757623       0.62229489       1.16946718
H       -2.61702064       1.01974370      -0.82350045
H       -0.94768186       1.56718976      -1.01070392
H       -1.46474091       0.09183164      -1.80166512
