11
Frame=0 idx=005144 GeodesicLength=0.0 rxn_smarts="[C:1]1([H:7])([H:8])[C@@:2]2([H:9])[O:3][C:4]([H:10])=[N:5][C@@:6]12[H:11]>>[C:1]1([H:7])([H:8])[C@@:2]2([H:9])[O:3][C@:4]2([H:10])[N:5]=[C:6]1[H:11]"
C       -0.93773439       0.34035129      -0.05672581
C       -0.05543809      -0.25427521      -1.14602072
O        1.28270037       0.00183721      -1.54960914
C        1.28090074       0.17866804      -0.21861166
N        0.98137080      -0.58798249       0.98170442
C       -0.26277073      -0.35887441       1.15619175
H       -0.88945348       1.42662755       0.06433870
H       -1.98468616       0.05319910      -0.18715341
H       -0.20278598      -1.33270253      -1.18125567
H        1.55337566       1.19663315       0.06374016
H       -0.76547879      -0.66348168       2.07340141
11
Frame=1 idx=005144 GeodesicLength=0.0632343983360534 rxn_smarts="[C:1]1([H:7])([H:8])[C@@:2]2([H:9])[O:3][C:4]([H:10])=[N:5][C@@:6]12[H:11]>>[C:1]1([H:7])([H:8])[C@@:2]2([H:9])[O:3][C@:4]2([H:10])[N:5]=[C:6]1[H:11]"
C       -0.94429611       0.34935075      -0.05560074
C       -0.05720425      -0.26780825      -1.12494544
O        1.27513484      -0.00647996      -1.54424045
C        1.28899540       0.18635073      -0.21380867
N        0.99383964      -0.56305899       0.99130164
C       -0.26350676      -0.36678573       1.14179668
H       -0.88591538       1.43466081       0.06413902
H       -1.99223220       0.06707202      -0.18545044
H       -0.20962354      -1.34425543      -1.17195377
H        1.56688241       1.20706956       0.05181050
H       -0.77207405      -0.69611551       2.04695166
11
Frame=2 idx=005144 GeodesicLength=0.12637944372385718 rxn_smarts="[C:1]1([H:7])([H:8])[C@@:2]2([H:9])[O:3][C:4]([H:10])=[N:5][C@@:6]12[H:11]>>[C:1]1([H:7])([H:8])[C@@:2]2([H:9])[O:3][C@:4]2([H:10])[N:5]=[C:6]1[H:11]"
C       -0.95088391       0.35776076      -0.05451578
C       -0.05883681      -0.28058336      -1.10396211
O        1.26774686      -0.01450165      -1.53840451
C        1.29700482       0.19356076      -0.20877217
N        1.00500096      -0.53845856       1.00080792
C       -0.26404361      -0.37419393       1.12766609
H       -0.88302269       1.44206447       0.06364825
H       -1.99957838       0.07968762      -0.18371060
H       -0.21682420      -1.35477701      -1.16390036
H        1.58084934       1.21652773       0.04023634
H       -0.77741235      -0.72708684       2.02090693
11
Frame=3 idx=005144 GeodesicLength=0.18962015408650032 rxn_smarts="[C:1]1([H:7])([H:8])[C@@:2]2([H:9])[O:3][C:4]([H:10])=[N:5][C@@:6]12[H:11]>>[C:1]1([H:7])([H:8])[C@@:2]2([H:9])[O:3][C@:4]2([H:10])[N:5]=[C:6]1[H:11]"
C       -0.95753883       0.36561267      -0.05346396
C       -0.06035989      -0.29268486      -1.08310577
O        1.26058368      -0.02221818      -1.53214258
C        1.30500348       0.20034142      -0.20352267
N        1.01502708      -0.51424047       1.01016932
C       -0.26438413      -0.38106075       1.11384640
H       -0.88079498       1.44895619       0.06283161
H       -2.00684600       0.09110379      -0.18188820
H       -0.22439430      -1.36437915      -1.15702749
H        1.59535602       1.22511128       0.02901787
H       -0.78165213      -0.75654191       1.99528547
11
Frame=4 idx=005144 GeodesicLength=0.252802937646022 rxn_smarts="[C:1]1([H:7])([H:8])[C@@:2]2([H:9])[O:3][C:4]([H:10])=[N:5][C@@:6]12[H:11]>>[C:1]1([H:7])([H:8])[C@@:2]2([H:9])[O:3][C@:4]2([H:10])[N:5]=[C:6]1[H:11]"
C       -0.96419695       0.37292285      -0.05244399
C       -0.06176913      -0.30416029      -1.06239532
O        1.25357802      -0.02966368      -1.52550228
C        1.31291070       0.20672477      -0.19807797
N        1.02396365      -0.49029652       1.01940970
C       -0.26454102      -0.38728414       1.10041401
H       -0.87913543       1.45529718       0.06162678
H       -2.01393830       0.10142259      -0.17995695
H       -0.23230010      -1.37299531      -1.15120983
H        1.61031384       1.23277591       0.01810231
H       -0.78488527      -0.78474336       1.97003356
11
Frame=5 idx=005144 GeodesicLength=0.3160408212679097 rxn_smarts="[C:1]1([H:7])([H:8])[C@@:2]2([H:9])[O:3][C:4]([H:10])=[N:5][C@@:6]12[H:11]>>[C:1]1([H:7])([H:8])[C@@:2]2([H:9])[O:3][C@:4]2([H:10])[N:5]=[C:6]1[H:11]"
C       -0.97092032       0.37967735      -0.05147295
C       -0.06309421      -0.31506300      -1.04190908
O        1.24678097      -0.03674145      -1.51853470
C        1.32079903       0.21272879      -0.19244599
N        1.03192477      -0.46680518       1.02844028
C       -0.26453389      -0.39298501       1.08734012
H       -0.87809967       1.46113830       0.06005952
H       -2.02098591       0.11062786      -0.17793095
H       -0.24052308      -1.38070947      -1.14648970
H        1.62580561       1.23958586       0.00760020
H       -0.78715332      -0.81145404       1.94534326
11
Frame=6 idx=005144 GeodesicLength=0.3792870670315522 rxn_smarts="[C:1]1([H:7])([H:8])[C@@:2]2([H:9])[O:3][C:4]([H:10])=[N:5][C@@:6]12[H:11]>>[C:1]1([H:7])([H:8])[C@@:2]2([H:9])[O:3][C@:4]2([H:10])[N:5]=[C:6]1[H:11]"
C       -0.97766999       0.38590795      -0.05055833
C       -0.06433978      -0.32543347      -1.02163696
O        1.24013434      -0.04347296      -1.51126313
C        1.32861778       0.21838638      -0.18664251
N        1.03900382      -0.44369861       1.03728152
C       -0.26437740      -0.39810896       1.07467184
H       -0.87761248       1.46649301       0.05806477
H       -2.02793678       0.11882096      -0.17579577
H       -0.24903564      -1.38749563      -1.14270403
H        1.64176555       1.24553457      -0.00255201
H       -0.78854943      -0.83693325       1.92113461
11
Frame=7 idx=005144 GeodesicLength=0.44255467400444926 rxn_smarts="[C:1]1([H:7])([H:8])[C@@:2]2([H:9])[O:3][C:4]([H:10])=[N:5][C@@:6]12[H:11]>>[C:1]1([H:7])([H:8])[C@@:2]2([H:9])[O:3][C@:4]2([H:10])[N:5]=[C:6]1[H:11]"
C       -0.98446465       0.39159807      -0.04970814
C       -0.06551983      -0.33531441      -1.00164169
O        1.23364444      -0.04979416      -1.50374591
C        1.33638384       0.22371355      -0.18068277
N        1.04528117      -0.42106385       1.04587586
C       -0.26409753      -0.40274851       1.06238120
H       -0.87767730       1.47135374       0.05568187
H       -2.03483295       0.12601092      -0.17356213
H       -0.25779177      -1.39338371      -1.13987825
H        1.65820970       1.25064239      -0.01228475
H       -0.78913511      -0.86101403       1.89756470
11
Frame=8 idx=005144 GeodesicLength=0.5058280287934025 rxn_smarts="[C:1]1([H:7])([H:8])[C@@:2]2([H:9])[O:3][C:4]([H:10])=[N:5][C@@:6]12[H:11]>>[C:1]1([H:7])([H:8])[C@@:2]2([H:9])[O:3][C@:4]2([H:10])[N:5]=[C:6]1[H:11]"
C       -0.99130575       0.39674551      -0.04893344
C       -0.06664247      -0.34474310      -0.98195908
O        1.22729419      -0.05565736      -1.49602972
C        1.34409035       0.22872738      -0.17458455
N        1.05083404      -0.39895051       1.05418677
C       -0.26370968      -0.40696436       1.05044991
H       -0.87827479       1.47572061       0.05292543
H       -2.04168525       0.13222803      -0.17124092
H       -0.26674329      -1.39838429      -1.13797721
H        1.67512090       1.25491495      -0.02156615
H       -0.78897825      -0.88363685       1.87472894
11
Frame=9 idx=005144 GeodesicLength=0.5690936829772132 rxn_smarts="[C:1]1([H:7])([H:8])[C@@:2]2([H:9])[O:3][C:4]([H:10])=[N:5][C@@:6]12[H:11]>>[C:1]1([H:7])([H:8])[C@@:2]2([H:9])[O:3][C@:4]2([H:10])[N:5]=[C:6]1[H:11]"
C       -0.99819515       0.40135712      -0.04824118
C       -0.06771702      -0.35375834      -0.96261759
O        1.22106748      -0.06103200      -1.48816216
C        1.35173465       0.23344789      -0.16836710
N        1.05573911      -0.37738949       1.06219574
C       -0.26322804      -0.41080600       1.03886225
H       -0.87938523       1.47959899       0.04980748
H       -2.04850800       0.13751582      -0.16883897
H       -0.27584595      -1.40251494      -1.13694638
H        1.69248765       1.25837208      -0.03037885
H       -0.78814949      -0.90479113       1.85268676
11
Frame=10 idx=005144 GeodesicLength=0.6323597180531337 rxn_smarts="[C:1]1([H:7])([H:8])[C@@:2]2([H:9])[O:3][C:4]([H:10])=[N:5][C@@:6]12[H:11]>>[C:1]1([H:7])([H:8])[C@@:2]2([H:9])[O:3][C@:4]2([H:10])[N:5]=[C:6]1[H:11]"
C       -1.00512354       0.40546395      -0.04763450
C       -0.06875861      -0.36239785      -0.94360816
O        1.21493128      -0.06592532      -1.48016196
C        1.35930414       0.23790470      -0.16204569
N        1.06006976      -0.35633242       1.06990747
C       -0.26266495      -0.41426399       1.02762718
H       -0.88097171       1.48301847       0.04631240
H       -2.05529404       0.14194491      -0.16634376
H       -0.28506073      -1.40580068      -1.13667782
H        1.71030505       1.26103142      -0.03876527
H       -0.78673666      -0.92464319       1.83139011
11
Frame=11 idx=005144 GeodesicLength=0.6956119419024309 rxn_smarts="[C:1]1([H:7])([H:8])[C@@:2]2([H:9])[O:3][C:4]([H:10])=[N:5][C@@:6]12[H:11]>>[C:1]1([H:7])([H:8])[C@@:2]2([H:9])[O:3][C@:4]2([H:10])[N:5]=[C:6]1[H:11]"
C       -1.01209831       0.40907577      -0.04711592
C       -0.06977473      -0.37069600      -0.92495542
O        1.20887875      -0.07031635      -1.47207534
C        1.36680381       0.24211835      -0.15563923
N        1.06389009      -0.33578898       1.07731221
C       -0.26203351      -0.41738290       1.01672784
H       -0.88301856       1.48598913       0.04246608
H       -2.06206469       0.14555346      -0.16376108
H       -0.29434619      -1.40826868      -1.13712822
H        1.72856945       1.26290896      -0.04671595
H       -0.78480611      -0.94319276       1.81088504
11
Frame=12 idx=005144 GeodesicLength=0.7588636995788283 rxn_smarts="[C:1]1([H:7])([H:8])[C@@:2]2([H:9])[O:3][C:4]([H:10])=[N:5][C@@:6]12[H:11]>>[C:1]1([H:7])([H:8])[C@@:2]2([H:9])[O:3][C@:4]2([H:10])[N:5]=[C:6]1[H:11]"
C       -1.01912144       0.41222181      -0.04668518
C       -0.07077926      -0.37868593      -0.90665158
O        1.20288703      -0.07421596      -1.46392129
C        1.37422902       0.24611522      -0.14916144
N        1.06725422      -0.31570853       1.08442176
C       -0.26134966      -0.42016074       1.00616398
H       -0.88550547       1.48853804       0.03826464
H       -2.06882919       0.14840373      -0.16108148
H       -0.30366970      -1.40995056      -1.13820118
H        1.74730047       1.26402413      -0.05426256
H       -0.78241601      -0.96058120       1.79111433
11
Frame=13 idx=005144 GeodesicLength=0.8221066942402513 rxn_smarts="[C:1]1([H:7])([H:8])[C@@:2]2([H:9])[O:3][C:4]([H:10])=[N:5][C@@:6]12[H:11]>>[C:1]1([H:7])([H:8])[C@@:2]2([H:9])[O:3][C@:4]2([H:10])[N:5]=[C:6]1[H:11]"
C       -1.02619384       0.41491524      -0.04634717
C       -0.07178197      -0.38639236      -0.88870858
O        1.19693686      -0.07760336      -1.45572911
C        1.38157787       0.24991370      -0.14262722
N        1.07021602      -0.29609577       1.09122623
C       -0.26062157      -0.42263262       0.99591741
H       -0.88841456       1.49067601       0.03372590
H       -2.07559383       0.15053072      -0.15831156
H       -0.31299012      -1.41087272      -1.13984306
H        1.76648877       1.26438647      -0.06140371
H       -0.77962363      -0.97682531       1.77210088
11
Frame=14 idx=005144 GeodesicLength=0.8853442520587091 rxn_smarts="[C:1]1([H:7])([H:8])[C@@:2]2([H:9])[O:3][C:4]([H:10])=[N:5][C@@:6]12[H:11]>>[C:1]1([H:7])([H:8])[C@@:2]2([H:9])[O:3][C@:4]2([H:10])[N:5]=[C:6]1[H:11]"
C       -1.03332032       0.41718053      -0.04609983
C       -0.07279274      -0.39383840      -0.87111939
O        1.19100920      -0.08048309      -1.44751846
C        1.38884582       0.25353687      -0.13604826
N        1.07281910      -0.27689939       1.09774163
C       -0.25986451      -0.42480190       0.98598573
H       -0.89173051       1.49242397       0.02885468
H       -2.08236799       0.15198705      -0.15544514
H       -0.32227072      -1.41106548      -1.14198150
H        1.78614907       1.26399690      -0.06816981
H       -0.77647640      -0.99203707       1.75380035
11
Frame=15 idx=005144 GeodesicLength=0.9485915624251546 rxn_smarts="[C:1]1([H:7])([H:8])[C@@:2]2([H:9])[O:3][C:4]([H:10])=[N:5][C@@:6]12[H:11]>>[C:1]1([H:7])([H:8])[C@@:2]2([H:9])[O:3][C@:4]2([H:10])[N:5]=[C:6]1[H:11]"
C       -1.04050756       0.41904948      -0.04594288
C       -0.07382404      -0.40104778      -0.85387058
O        1.18508459      -0.08287228      -1.43929363
C        1.39602906       0.25701117      -0.12943142
N        1.07509428      -0.25805290       1.10398637
C       -0.25908819      -0.42666626       0.97636635
H       -0.89544385       1.49381450       0.02364712
H       -2.08916372       0.15282611      -0.15247874
H       -0.33149520      -1.41056367      -1.14452662
H        1.80631249       1.26286238      -0.07459119
H       -0.77299787      -1.00636076       1.73613522
11
Frame=16 idx=005144 GeodesicLength=1.01180853298845 rxn_smarts="[C:1]1([H:7])([H:8])[C@@:2]2([H:9])[O:3][C:4]([H:10])=[N:5][C@@:6]12[H:11]>>[C:1]1([H:7])([H:8])[C@@:2]2([H:9])[O:3][C@:4]2([H:10])[N:5]=[C:6]1[H:11]"
C       -1.04774251       0.42052085      -0.04587626
C       -0.07487784      -0.40802045      -0.83696837
O        1.17914226      -0.08472504      -1.43108093
C        1.40311004       0.26034858      -0.12279900
N        1.07706007      -0.23957922       1.10993608
C       -0.25830914      -0.42826395       0.96703162
H       -0.89952477       1.49482717       0.01813207
H       -2.09595808       0.15306754      -0.14940991
H       -0.34059356      -1.40937696      -1.14742999
H        1.82694385       1.26096322      -0.08067812
H       -0.76925032      -1.01976175       1.71914282
