13
Frame=0 idx=002247 GeodesicLength=0.0 rxn_smarts="[O:1]([C:2]1([H:7])[C:3]([H:8])([H:9])[C:4]([H:10])([H:11])[C:5]1([H:12])[H:13])[H:6]>>[C:3](=[C:4]([H:10])[H:11])([H:8])[H:9].[O:1]([C:2](=[C:5]([H:12])[H:13])[H:7])[H:6]"
O        1.79621963       0.57145173      -0.31313557
C        0.69874151      -0.09227794      -0.66096798
C       -0.04736904      -0.53737159       1.33868563
C       -1.03770811       0.00781105       0.45569216
C       -0.33879789       0.58471160      -1.31542800
H        2.24472689       0.05442748       0.37127835
H        0.77755303      -1.16282693      -0.80502009
H        0.33260399       0.09414928       2.12985372
H       -0.02991394      -1.60662319       1.50201817
H       -1.42175542       0.99632114       0.67676121
H       -1.79443389      -0.65625309       0.05265437
H       -0.33342447       1.66435728      -1.30560412
H       -0.84644225       0.08212315      -2.12678784
13
Frame=1 idx=002247 GeodesicLength=0.08251124405170324 rxn_smarts="[O:1]([C:2]1([H:7])[C:3]([H:8])([H:9])[C:4]([H:10])([H:11])[C:5]1([H:12])[H:13])[H:6]>>[C:3](=[C:4]([H:10])[H:11])([H:8])[H:9].[O:1]([C:2](=[C:5]([H:12])[H:13])[H:7])[H:6]"
O        1.81189643       0.55397319      -0.32168563
C        0.70042975      -0.09219897      -0.66801426
C       -0.04465625      -0.52423973       1.34168814
C       -1.05413871      -0.00670153       0.46474448
C       -0.33188612       0.59897448      -1.31806619
H        2.24989706       0.02905558       0.36302287
H        0.76419452      -1.16233891      -0.82625724
H        0.32345066       0.12277043       2.12656694
H       -0.01487692      -1.58916588       1.53210212
H       -1.46886807       0.96919176       0.68731173
H       -1.79468479      -0.69334661       0.06867731
H       -0.30528599       1.67884704      -1.30646783
H       -0.83547156       0.11517914      -2.14362243
13
Frame=2 idx=002247 GeodesicLength=0.16488845833121146 rxn_smarts="[O:1]([C:2]1([H:7])[C:3]([H:8])([H:9])[C:4]([H:10])([H:11])[C:5]1([H:12])[H:13])[H:6]>>[C:3](=[C:4]([H:10])[H:11])([H:8])[H:9].[O:1]([C:2](=[C:5]([H:12])[H:13])[H:7])[H:6]"
O        1.82772365       0.53530403      -0.33060165
C        0.70207080      -0.09222110      -0.67539584
C       -0.04230235      -0.51034400       1.34444313
C       -1.07092391      -0.02220928       0.47381496
C       -0.32465869       0.61402050      -1.32035583
H        2.25452654       0.00258718       0.35466984
H        0.75008893      -1.16155548      -0.84805586
H        0.31363049       0.15286017       2.12207183
H        0.00074767      -1.56987079       1.56287444
H       -1.51670082       0.93979458       0.69767897
H       -1.79418679      -0.73191940       0.08564996
H       -0.27588967       1.69367341      -1.30682101
H       -0.82412584       0.14988017      -2.15997294
13
Frame=3 idx=002247 GeodesicLength=0.24712551241247951 rxn_smarts="[O:1]([C:2]1([H:7])[C:3]([H:8])([H:9])[C:4]([H:10])([H:11])[C:5]1([H:12])[H:13])[H:6]>>[C:3](=[C:4]([H:10])[H:11])([H:8])[H:9].[O:1]([C:2](=[C:5]([H:12])[H:13])[H:7])[H:6]"
O        1.84365319       0.51541371      -0.33986884
C        0.70366739      -0.09233787      -0.68313990
C       -0.04035246      -0.49569182       1.34689877
C       -1.08803034      -0.03876560       0.48291615
C       -0.31708696       0.62985674      -1.32226683
H        2.25851173      -0.02495224       0.34626690
H        0.73523196      -1.16042261      -0.87047048
H        0.30306768       0.18442254       2.11623953
H        0.01691042      -1.54863742       1.59425516
H       -1.56511134       0.90805878       0.70790569
H       -1.79289279      -0.77194748       0.10369542
H       -0.24516627       1.70878145      -1.30670388
H       -0.81240221       0.18622183      -2.17572770
13
Frame=4 idx=002247 GeodesicLength=0.329204166290984 rxn_smarts="[O:1]([C:2]1([H:7])[C:3]([H:8])([H:9])[C:4]([H:10])([H:11])[C:5]1([H:12])[H:13])[H:6]>>[C:3](=[C:4]([H:10])[H:11])([H:8])[H:9].[O:1]([C:2](=[C:5]([H:12])[H:13])[H:7])[H:6]"
O        1.85963171       0.49426641      -0.34947089
C        0.70522299      -0.09254001      -0.69127681
C       -0.03885909      -0.48028793       1.34899698
C       -1.10541426      -0.05642510       0.49206109
C       -0.30913516       0.64649934      -1.32376802
H        2.26173840      -0.05354524       0.33786672
H        0.71961185      -1.15887789      -0.89356826
H        0.29166320       0.21745769       2.10891089
H        0.03355289      -1.52533602       1.62616922
H       -1.61393948       0.87388451       0.71804344
H       -1.79073438      -0.81341269       0.12294339
H       -0.21303028       1.72411480      -1.30615371
H       -0.80030839       0.22420212      -2.19075404
13
Frame=5 idx=002247 GeodesicLength=0.41109605594367715 rxn_smarts="[O:1]([C:2]1([H:7])[C:3]([H:8])([H:9])[C:4]([H:10])([H:11])[C:5]1([H:12])[H:13])[H:6]>>[C:3](=[C:4]([H:10])[H:11])([H:8])[H:9].[O:1]([C:2](=[C:5]([H:12])[H:13])[H:7])[H:6]"
O        1.87559647       0.47182676      -0.35938153
C        0.70674001      -0.09281731      -0.69983982
C       -0.03787550      -0.46414231       1.35067816
C       -1.12302431      -0.07524390       0.50127220
C       -0.30076132       0.66396693      -1.32481862
H        2.26409059      -0.08316884       0.32952862
H        0.70322314      -1.15685582      -0.91742061
H        0.27930609       0.25194666       2.09990233
H        0.05060704      -1.49983546       1.65853298
H       -1.66300343       0.83719651       0.72812888
H       -1.78763114      -0.85629426       0.14352884
H       -0.17940199       1.73960831      -1.30520163
H       -0.78786565       0.26381274      -2.20490979
13
Frame=6 idx=002247 GeodesicLength=0.4928924751971138 rxn_smarts="[O:1]([C:2]1([H:7])[C:3]([H:8])([H:9])[C:4]([H:10])([H:11])[C:5]1([H:12])[H:13])[H:6]>>[C:3](=[C:4]([H:10])[H:11])([H:8])[H:9].[O:1]([C:2](=[C:5]([H:12])[H:13])[H:7])[H:6]"
O        1.89147007       0.44813795      -0.36954552
C        0.70821774      -0.09313393      -0.70884129
C       -0.03745021      -0.44732529       1.35189270
C       -1.14082762      -0.09522667       0.51057920
C       -0.29192393       0.68226427      -1.32546079
H        2.26549798      -0.11375446       0.32129271
H        0.68609208      -1.15425777      -0.94205312
H        0.26592054       0.28774988       2.08920460
H        0.06795916      -1.47210581       1.69120648
H       -1.71210708       0.79799281       0.73831105
H       -1.78354221      -0.90048749       0.16561153
H       -0.14422613       1.75519951      -1.30404245
H       -0.77508039       0.30494699      -2.21815510
13
Frame=7 idx=002247 GeodesicLength=0.5745023493973542 rxn_smarts="[O:1]([C:2]1([H:7])[C:3]([H:8])([H:9])[C:4]([H:10])([H:11])[C:5]1([H:12])[H:13])[H:6]>>[C:3](=[C:4]([H:10])[H:11])([H:8])[H:9].[O:1]([C:2](=[C:5]([H:12])[H:13])[H:7])[H:6]"
O        1.90717934       0.42312948      -0.37993415
C        0.70965638      -0.09347277      -0.71832749
C       -0.03764859      -0.42984792       1.35256884
C       -1.15873561      -0.11646028       0.51999890
C       -0.28256139       0.70143112      -1.32562709
H        2.26581082      -0.14531026       0.31320941
H        0.66819470      -1.15099071      -0.96756505
H        0.25134284       0.32485670       2.07654200
H        0.08551350      -1.44193699       1.72413383
H       -1.76105559       0.75616262       0.74861460
H       -1.77831927      -0.94600590       0.18934748
H       -0.10738030       1.77082085      -1.30266111
H       -0.76199683       0.34762406      -2.23030019
13
Frame=8 idx=002247 GeodesicLength=0.6559298245400951 rxn_smarts="[O:1]([C:2]1([H:7])[C:3]([H:8])([H:9])[C:4]([H:10])([H:11])[C:5]1([H:12])[H:13])[H:6]>>[C:3](=[C:4]([H:10])[H:11])([H:8])[H:9].[O:1]([C:2](=[C:5]([H:12])[H:13])[H:7])[H:6]"
O        1.92263796       0.39681178      -0.39049138
C        0.71105489      -0.09379056      -0.72832061
C       -0.03853291      -0.41176532       1.35265101
C       -1.17668054      -0.13897720       0.52955890
C       -0.27261724       0.72149008      -1.32531147
H        2.26491502      -0.17780408       0.30531263
H        0.64954057      -1.14692793      -0.99400395
H        0.23545207       0.36311402       2.06182518
H        0.10313375      -1.40922927       1.75719686
H       -1.80963141       0.71167460       0.75913603
H       -1.77184484      -0.99277591       0.21490918
H       -0.06877265       1.78641626      -1.30121451
H       -0.74865468       0.39176353      -2.24124785
13
Frame=9 idx=002247 GeodesicLength=0.7372637277085018 rxn_smarts="[O:1]([C:2]1([H:7])[C:3]([H:8])([H:9])[C:4]([H:10])([H:11])[C:5]1([H:12])[H:13])[H:6]>>[C:3](=[C:4]([H:10])[H:11])([H:8])[H:9].[O:1]([C:2](=[C:5]([H:12])[H:13])[H:7])[H:6]"
O        1.93769990       0.36915924      -0.40114490
C        0.71233227      -0.09398716      -0.73877834
C       -0.04013885      -0.39310600       1.35216077
C       -1.19465892      -0.16280907       0.53934697
C       -0.26196307       0.74255748      -1.32451984
H        2.26273407      -0.21131109       0.29759633
H        0.62997466      -1.14190913      -1.02128016
H        0.21818527       0.40227426       2.04512284
H        0.12087367      -1.37390115       1.79027383
H       -1.85785425       0.66451271       0.76965196
H       -1.76382815      -1.04088389       0.24248254
H       -0.02813447       1.80198708      -1.30008517
H       -0.73522213       0.43741670      -2.25082683
13
Frame=10 idx=002247 GeodesicLength=0.8184314296761032 rxn_smarts="[O:1]([C:2]1([H:7])[C:3]([H:8])([H:9])[C:4]([H:10])([H:11])[C:5]1([H:12])[H:13])[H:6]>>[C:3](=[C:4]([H:10])[H:11])([H:8])[H:9].[O:1]([C:2](=[C:5]([H:12])[H:13])[H:7])[H:6]"
O        1.95231887       0.34015266      -0.41186320
C        0.71354816      -0.09408653      -0.74979010
C       -0.04254480      -0.37396391       1.35097814
C       -1.21250590      -0.18806114       0.54936949
C       -0.25056489       0.76460737      -1.32320601
H        2.25909065      -0.24572854       0.29013498
H        0.60960398      -1.13585845      -1.04957527
H        0.19927337       0.44232925       2.02605884
H        0.13843252      -1.33575469       1.82325544
H       -1.90530790       0.61458666       0.78060795
H       -1.75422911      -1.09008458       0.27217499
H        0.01448508       1.81737909      -1.29916981
H       -0.72160004       0.48448281      -2.25897543
13
Frame=11 idx=002247 GeodesicLength=0.8994660194571679 rxn_smarts="[O:1]([C:2]1([H:7])[C:3]([H:8])([H:9])[C:4]([H:10])([H:11])[C:5]1([H:12])[H:13])[H:6]>>[C:3](=[C:4]([H:10])[H:11])([H:8])[H:9].[O:1]([C:2](=[C:5]([H:12])[H:13])[H:7])[H:6]"
O        1.96639081       0.30974542      -0.42258819
C        0.71467959      -0.09404430      -0.76136528
C       -0.04580067      -0.35438531       1.34908104
C       -1.23013206      -0.21479375       0.55968861
C       -0.23832506       0.78769708      -1.32135372
H        2.25382986      -0.28107736       0.28294949
H        0.58837977      -1.12863831      -1.07891791
H        0.17857456       0.48317615       2.00450629
H        0.15572485      -1.29468733       1.85604458
H       -1.95183932       0.56183408       0.79209943
H       -1.74286177      -1.14030229       0.30406686
H        0.05920061       1.83251248      -1.29862085
H       -0.70782117       0.53296343      -2.26559035
13
Frame=12 idx=002247 GeodesicLength=0.9804443437144177 rxn_smarts="[O:1]([C:2]1([H:7])[C:3]([H:8])([H:9])[C:4]([H:10])([H:11])[C:5]1([H:12])[H:13])[H:6]>>[C:3](=[C:4]([H:10])[H:11])([H:8])[H:9].[O:1]([C:2](=[C:5]([H:12])[H:13])[H:7])[H:6]"
O        1.97982189       0.27802055      -0.43324824
C        0.71571248      -0.09378616      -0.77347675
C       -0.04993980      -0.33448015       1.34647093
C       -1.24749089      -0.24300411       0.57038160
C       -0.22514693       0.81183786      -1.31901055
H        2.24690289      -0.31725745       0.27603909
H        0.56631982      -1.12010615      -1.10922944
H        0.15600054       0.52455530       1.98057038
H        0.17263843      -1.25079019       1.88840868
H       -1.99729419       0.50634076       0.80433269
H       -1.72968749      -1.19130151       0.33816427
H        0.10605851       1.84727095      -1.29876045
H       -0.69389527       0.58270029      -2.27064221
13
Frame=13 idx=002247 GeodesicLength=1.0613543321080254 rxn_smarts="[O:1]([C:2]1([H:7])[C:3]([H:8])([H:9])[C:4]([H:10])([H:11])[C:5]1([H:12])[H:13])[H:6]>>[C:3](=[C:4]([H:10])[H:11])([H:8])[H:9].[O:1]([C:2](=[C:5]([H:12])[H:13])[H:7])[H:6]"
O        1.99247205       0.24476310      -0.44380885
C        0.71660786      -0.09327457      -0.78616663
C       -0.05503429      -0.31421851       1.34311778
C       -1.26443638      -0.27283045       0.58151775
C       -0.21088812       0.83716228      -1.31606655
H        2.23801457      -0.35444030       0.26939877
H        0.54329872      -1.11008311      -1.14060788
H        0.13132262       0.56644813       1.95388020
H        0.18905318      -1.20369310       1.92036658
H       -2.04153543       0.44785457       0.81729397
H       -1.71429310      -1.24316882       0.37460892
H        0.15530164       1.86160359      -1.29960869
H       -0.67988333       0.63387719      -2.27392535
13
Frame=14 idx=002247 GeodesicLength=1.1422515084014404 rxn_smarts="[O:1]([C:2]1([H:7])[C:3]([H:8])([H:9])[C:4]([H:10])([H:11])[C:5]1([H:12])[H:13])[H:6]>>[C:3](=[C:4]([H:10])[H:11])([H:8])[H:9].[O:1]([C:2](=[C:5]([H:12])[H:13])[H:7])[H:6]"
O        2.00424081       0.21010286      -0.45419865
C        0.71736375      -0.09241536      -0.79938870
C       -0.06112383      -0.29375193       1.33902242
C       -1.28091672      -0.30424809       0.59318841
C       -0.19541568       0.86366114      -1.31259334
H        2.22715878      -0.39248169       0.26301655
H        0.51935341      -1.09840664      -1.17288952
H        0.10442212       0.60848601       1.92463340
H        0.20480137      -1.15353862       1.95158251
H       -2.08436373       0.38649826       0.83125988
H       -1.69665921      -1.29554245       0.41336641
H        0.20690872       1.87534997      -1.30156450
H       -0.66576978       0.68628654      -2.27543485
13
Frame=15 idx=002247 GeodesicLength=1.2231639901733042 rxn_smarts="[O:1]([C:2]1([H:7])[C:3]([H:8])([H:9])[C:4]([H:10])([H:11])[C:5]1([H:12])[H:13])[H:6]>>[C:3](=[C:4]([H:10])[H:11])([H:8])[H:9].[O:1]([C:2](=[C:5]([H:12])[H:13])[H:7])[H:6]"
O        2.01497565       0.17385239      -0.46439718
C        0.71794240      -0.09114590      -0.81316397
C       -0.06828648      -0.27306771       1.33416447
C       -1.29677883      -0.33739597       0.60547636
C       -0.17854830       0.89146927      -1.30850672
H        2.21407448      -0.43155607       0.25685721
H        0.49435319      -1.08486788      -1.20609953
H        0.07501847       0.65055296       1.89259574
H        0.21972289      -1.09997669       1.98200921
H       -2.12562430       0.32202073       0.84629936
H       -1.67637121      -1.34840267       0.45453432
H        0.26110725       1.88840968      -1.30477774
H       -0.65158521       0.74010788      -2.27499153
13
Frame=16 idx=002247 GeodesicLength=1.304187158940281 rxn_smarts="[O:1]([C:2]1([H:7])[C:3]([H:8])([H:9])[C:4]([H:10])([H:11])[C:5]1([H:12])[H:13])[H:6]>>[C:3](=[C:4]([H:10])[H:11])([H:8])[H:9].[O:1]([C:2](=[C:5]([H:12])[H:13])[H:7])[H:6]"
O        2.02452158       0.13594303      -0.47437151
C        0.71831767      -0.08938470      -0.82749082
C       -0.07661213      -0.25222428       1.32851603
C       -1.31189968      -0.37236929       0.61848947
C       -0.16007438       0.92069019      -1.30379105
H        2.19857931      -0.47172384       0.25091378
H        0.46820831      -1.06927541      -1.24015823
H        0.04282355       0.69239716       1.85768093
H        0.23362986      -1.04283212       2.01142170
H       -2.16512020       0.25429423       0.86261703
H       -1.65312237      -1.40158380       0.49820068
H        0.31805620       1.90064284      -1.30954577
H       -0.63730772       0.79542599      -2.27248224
