14
Frame=0 idx=011113 GeodesicLength=0.0 rxn_smarts="[C:1]1([H:8])([H:9])[C@:2]2([H:10])[C@@:3]3([H:11])[C@:4]2([H:12])[N:5]2[C@:6]1([H:13])[C@@:7]32[H:14]>>[C:1]1([H:8])([H:9])[C@@:2]2([H:10])[C@:3]3([H:11])[C@@:4]2([H:12])[C@:7]3([H:14])[N:5]=[C:6]1[H:13]"
C        1.23350216      -0.30097744      -0.62649302
C       -0.05043549      -1.08925847      -0.36636239
C       -1.23536555      -0.20296949      -0.46319888
C       -0.84441440      -0.61975121       0.82570853
N        0.68177634       0.78876605       1.46474363
C        0.90744895       0.98466682       0.13018600
C       -0.60652082       0.90842367       0.43219120
H        1.38723765      -0.15845830      -1.69914774
H        2.11113189      -0.77979146      -0.19096147
H       -0.14119382      -2.13743227      -0.62165233
H       -2.12872151      -0.05747012      -1.04580627
H       -1.24283104      -1.02898213       1.73542575
H        1.18056207       1.96324193      -0.27258201
H       -1.25217638       1.72999237       0.69794900
14
Frame=1 idx=011113 GeodesicLength=0.07149700465722283 rxn_smarts="[C:1]1([H:8])([H:9])[C@:2]2([H:10])[C@@:3]3([H:11])[C@:4]2([H:12])[N:5]2[C@:6]1([H:13])[C@@:7]32[H:14]>>[C:1]1([H:8])([H:9])[C@@:2]2([H:10])[C@:3]3([H:11])[C@@:4]2([H:12])[C@:7]3([H:14])[N:5]=[C:6]1[H:13]"
C        1.24061072      -0.30236753      -0.62578226
C       -0.04938167      -1.08385523      -0.36542598
C       -1.23275711      -0.19277750      -0.45703826
C       -0.83675229      -0.61950746       0.83152560
N        0.66560025       0.78430740       1.45604510
C        0.91203815       0.98257933       0.12510330
C       -0.61277438       0.92010853       0.43600147
H        1.39930711      -0.16423155      -1.69816444
H        2.11258164      -0.78584262      -0.18412970
H       -0.14548637      -2.12916097      -0.63045990
H       -2.13041648      -0.06408984      -1.03706676
H       -1.24179379      -1.04450022       1.73128020
H        1.17872586       1.95889255      -0.28606170
H       -1.25950164       1.74044512       0.70417335
14
Frame=2 idx=011113 GeodesicLength=0.1429876953653109 rxn_smarts="[C:1]1([H:8])([H:9])[C@:2]2([H:10])[C@@:3]3([H:11])[C@:4]2([H:12])[N:5]2[C@:6]1([H:13])[C@@:7]32[H:14]>>[C:1]1([H:8])([H:9])[C@@:2]2([H:10])[C@:3]3([H:11])[C@@:4]2([H:12])[C@:7]3([H:14])[N:5]=[C:6]1[H:13]"
C        1.24772886      -0.30384457      -0.62492135
C       -0.04839719      -1.07841280      -0.36456410
C       -1.23019694      -0.18252988      -0.45087172
C       -0.82915865      -0.61933379       0.83726092
N        0.64969583       0.78012423       1.44718300
C        0.91657162       0.98046334       0.12006769
C       -0.61910310       0.93177041       0.43994859
H        1.41150023      -0.17015410      -1.69698167
H        2.11391417      -0.79195009      -0.17707600
H       -0.14984984      -2.12073159      -0.63931565
H       -2.13178204      -0.07046829      -1.02837385
H       -1.24046089      -1.06003884       1.72682343
H        1.17645881       1.95432343      -0.29993632
H       -1.26692085       1.75078254       0.71075703
14
Frame=3 idx=011113 GeodesicLength=0.21448039097795032 rxn_smarts="[C:1]1([H:8])([H:9])[C@:2]2([H:10])[C@@:3]3([H:11])[C@:4]2([H:12])[N:5]2[C@:6]1([H:13])[C@@:7]32[H:14]>>[C:1]1([H:8])([H:9])[C@@:2]2([H:10])[C@:3]3([H:11])[C@@:4]2([H:12])[C@:7]3([H:14])[N:5]=[C:6]1[H:13]"
C        1.25486137      -0.30540762      -0.62390914
C       -0.04747940      -1.07292928      -0.36378135
C       -1.22768793      -0.17223032      -0.44469621
C       -0.82162645      -0.61923223       0.84291410
N        0.63404938       0.77620938       1.43816008
C        0.92105566       0.97832417       0.11507179
C       -0.62550884       0.94341328       0.44402707
H        1.42382861      -0.17622965      -1.69559584
H        2.11512950      -0.79811434      -0.16979481
H       -0.15427802      -2.11214184      -0.64823022
H       -2.13284212      -0.07660296      -1.01971786
H       -1.23883011      -1.07559141       1.72206100
H        1.17376291       1.94952530      -0.31420725
H       -1.27443457       1.76100751       0.71769864
14
Frame=4 idx=011113 GeodesicLength=0.2859748760095823 rxn_smarts="[C:1]1([H:8])([H:9])[C@:2]2([H:10])[C@@:3]3([H:11])[C@:4]2([H:12])[N:5]2[C@:6]1([H:13])[C@@:7]32[H:14]>>[C:1]1([H:8])([H:9])[C@@:2]2([H:10])[C@:3]3([H:11])[C@@:4]2([H:12])[C@:7]3([H:14])[N:5]=[C:6]1[H:13]"
C        1.26200743      -0.30705501      -0.62274350
C       -0.04662323      -1.06739912      -0.36308244
C       -1.22522596      -0.16188441      -0.43850721
C       -0.81413906      -0.61920114       0.84848425
N        0.61864424       0.77256062       1.42897694
C        0.92548987       0.97616339       0.11010840
C       -0.63199118       0.95503619       0.44823342
H        1.43629751      -0.18246669      -1.69400135
H        2.11621816      -0.80433053      -0.16227985
H       -0.15876746      -2.10337886      -0.65722201
H       -2.13360339      -0.08249407      -1.01108933
H       -1.23689925      -1.09113486       1.71699390
H        1.17063178       1.94447396      -0.32887345
H       -1.28203946       1.77111051       0.72500224
14
Frame=5 idx=011113 GeodesicLength=0.3574673608587595 rxn_smarts="[C:1]1([H:8])([H:9])[C@:2]2([H:10])[C@@:3]3([H:11])[C@:4]2([H:12])[N:5]2[C@:6]1([H:13])[C@@:7]32[H:14]>>[C:1]1([H:8])([H:9])[C@@:2]2([H:10])[C@:3]3([H:11])[C@@:4]2([H:12])[C@:7]3([H:14])[N:5]=[C:6]1[H:13]"
C        1.26916415      -0.30878386      -0.62143359
C       -0.04582482      -1.06182807      -0.36246358
C       -1.22281396      -0.15150300      -0.43230477
C       -0.80669589      -0.61924633       0.85397136
N        0.60346935       0.76915814       1.41963675
C        0.92988237       0.97398093       0.10517450
C       -0.63855124       0.96663714       0.45255915
H        1.44888615      -0.18885653      -1.69220719
H        2.11718879      -0.81058825      -0.15455404
H       -0.16329770      -2.09445712      -0.66626263
H       -2.13407250      -0.08812253      -1.00251118
H       -1.23467555      -1.10664551       1.71164046
H        1.16707707       1.93916597      -0.34390543
H       -1.28973621       1.78108902       0.73266018
14
Frame=6 idx=011113 GeodesicLength=0.42896747274852054 rxn_smarts="[C:1]1([H:8])([H:9])[C@:2]2([H:10])[C@@:3]3([H:11])[C@:4]2([H:12])[N:5]2[C@:6]1([H:13])[C@@:7]32[H:14]>>[C:1]1([H:8])([H:9])[C@@:2]2([H:10])[C@:3]3([H:11])[C@@:4]2([H:12])[C@:7]3([H:14])[N:5]=[C:6]1[H:13]"
C        1.27633665      -0.31059397      -0.61997796
C       -0.04508023      -1.05621164      -0.36193040
C       -1.22045231      -0.14108816      -0.42608306
C       -0.79928605      -0.61936687       0.85937530
N        0.58851119       0.76599972       1.41013872
C        0.93423752       0.97178115       0.10026245
C       -0.64519061       0.97822017       0.45700150
H        1.46161145      -0.19540718      -1.69020818
H        2.11803802      -0.81688944      -0.14661158
H       -0.16786570      -2.08536862      -0.67536964
H       -2.13426917      -0.09349213      -0.99396819
H       -1.23216178      -1.12211394       1.70600179
H        1.16309834       1.93358980      -0.35930686
H       -1.29752731       1.79094110       0.74067612
14
Frame=7 idx=011113 GeodesicLength=0.500483107417526 rxn_smarts="[C:1]1([H:8])([H:9])[C@:2]2([H:10])[C@@:3]3([H:11])[C@:4]2([H:12])[N:5]2[C@:6]1([H:13])[C@@:7]32[H:14]>>[C:1]1([H:8])([H:9])[C@@:2]2([H:10])[C@:3]3([H:11])[C@@:4]2([H:12])[C@:7]3([H:14])[N:5]=[C:6]1[H:13]"
C        1.28352875      -0.31248204      -0.61837422
C       -0.04438630      -1.05054602      -0.36148794
C       -1.21814262      -0.13064391      -0.41983945
C       -0.79189442      -0.61956196       0.86469542
N        0.57375394       0.76308535       1.40048212
C        0.93855848       0.96956786       0.09536653
C       -0.65191083       0.98978625       0.46155517
H        1.47448706      -0.20211977      -1.68799850
H        2.11876466      -0.82323139      -0.13844626
H       -0.17247196      -2.07610494      -0.68455905
H       -2.13421757      -0.09860658      -0.98544245
H       -1.22935637      -1.13752872       1.70007721
H        1.15869694       1.92772098      -0.37507482
H       -1.30540974       1.80066489       0.74904624
14
Frame=8 idx=011113 GeodesicLength=0.5720152132749323 rxn_smarts="[C:1]1([H:8])([H:9])[C@:2]2([H:10])[C@@:3]3([H:11])[C@:4]2([H:12])[N:5]2[C@:6]1([H:13])[C@@:7]32[H:14]>>[C:1]1([H:8])([H:9])[C@@:2]2([H:10])[C@:3]3([H:11])[C@@:4]2([H:12])[C@:7]3([H:14])[N:5]=[C:6]1[H:13]"
C        1.29074049      -0.31444759      -0.61661662
C       -0.04373934      -1.04482384      -0.36114596
C       -1.21588463      -0.12016910      -0.41357526
C       -0.78451233      -0.61982869       0.86992529
N        0.55919259       0.76041046       1.39065949
C        0.94285011       0.96734786       0.09047469
C       -0.65871294       1.00134104       0.46621447
H        1.48752255      -0.20900754      -1.68556499
H        2.11935843      -0.82961046      -0.13004391
H       -0.17711046      -2.06665525      -0.69384910
H       -2.13394457      -0.10347119      -0.97691534
H       -1.22624976      -1.15289114       1.69387203
H        1.15387598       1.92154358      -0.39120281
H       -1.31338612       1.81026186       0.75776801
14
Frame=9 idx=011113 GeodesicLength=0.6435620144442491 rxn_smarts="[C:1]1([H:8])([H:9])[C@:2]2([H:10])[C@@:3]3([H:11])[C@:4]2([H:12])[N:5]2[C@:6]1([H:13])[C@@:7]32[H:14]>>[C:1]1([H:8])([H:9])[C@@:2]2([H:10])[C@:3]3([H:11])[C@@:4]2([H:12])[C@:7]3([H:14])[N:5]=[C:6]1[H:13]"
C        1.29797022      -0.31648615      -0.61471975
C       -0.04313592      -1.03905223      -0.36089467
C       -1.21367882      -0.10967891      -0.40728268
C       -0.77713112      -0.62017021       0.87507176
N        0.54480970       0.75796361       1.38067514
C        0.94711858       0.96511647       0.08559232
C       -0.66559507       1.01287822       0.47097556
H        1.50069523      -0.21605219      -1.68292532
H        2.11983138      -0.83601738      -0.12143879
H       -0.18176964      -2.05703323      -0.70320833
H       -2.13344191      -0.10807867      -0.96841164
H       -1.22286688      -1.16816352       1.68739053
H        1.14864264       1.91505083      -0.40765847
H       -1.32144841       1.81972337       0.76683435
14
Frame=10 idx=011113 GeodesicLength=0.7151269616108004 rxn_smarts="[C:1]1([H:8])([H:9])[C@:2]2([H:10])[C@@:3]3([H:11])[C@:4]2([H:12])[N:5]2[C@:6]1([H:13])[C@@:7]32[H:14]>>[C:1]1([H:8])([H:9])[C@@:2]2([H:10])[C@:3]3([H:11])[C@@:4]2([H:12])[C@:7]3([H:14])[N:5]=[C:6]1[H:13]"
C        1.30521818      -0.31859721      -0.61267698
C       -0.04257190      -1.03322307      -0.36074550
C       -1.21152726      -0.09917130      -0.40096553
C       -0.76974122      -0.62058198       0.88012647
N        0.53059303       0.75574696       1.37052397
C        0.95136572       0.96288054       0.08070636
C       -0.67256279       1.02440299       0.47582970
H        1.51402112      -0.22326556      -1.68006416
H        2.12017277      -0.84245076      -0.11261759
H       -0.18644321      -2.04722586      -0.71266184
H       -2.13274385      -0.11243624      -0.95990523
H       -1.21919143      -1.18334586       1.68064140
H        1.14301461       1.90821976      -0.42443647
H       -1.32960376       1.82904759       0.77624540
14
Frame=11 idx=011113 GeodesicLength=0.7867094824193569 rxn_smarts="[C:1]1([H:8])([H:9])[C@:2]2([H:10])[C@@:3]3([H:11])[C@:4]2([H:12])[N:5]2[C@:6]1([H:13])[C@@:7]32[H:14]>>[C:1]1([H:8])([H:9])[C@@:2]2([H:10])[C@:3]3([H:11])[C@@:4]2([H:12])[C@:7]3([H:14])[N:5]=[C:6]1[H:13]"
C        1.31248055      -0.32077645      -0.61049964
C       -0.04204579      -1.02734221      -0.36069042
C       -1.20943015      -0.08865815      -0.39461897
C       -0.76233628      -0.62106439       0.88509604
N        0.51653226       0.75374616       1.36020367
C        0.95559884       0.96063631       0.07582040
C       -0.67961360       1.03591286       0.48077205
H        1.52747602      -0.23063337      -1.67699518
H        2.12039083      -0.84889974      -0.10360769
H       -0.19112048      -2.03724480      -0.72218484
H       -2.13184348      -0.11654409      -0.95142288
H       -1.21524279      -1.19841022       1.67363498
H        1.13699629       1.90104532      -0.44150052
H       -1.33784222       1.83823277       0.78599300
14
Frame=12 idx=011113 GeodesicLength=0.8583081601263688 rxn_smarts="[C:1]1([H:8])([H:9])[C@:2]2([H:10])[C@@:3]3([H:11])[C@:4]2([H:12])[N:5]2[C@:6]1([H:13])[C@@:7]32[H:14]>>[C:1]1([H:8])([H:9])[C@@:2]2([H:10])[C@:3]3([H:11])[C@@:4]2([H:12])[C@:7]3([H:14])[N:5]=[C:6]1[H:13]"
C        1.31975767      -0.32302229      -0.60818415
C       -0.04155308      -1.02140193      -0.36073965
C       -1.20738976      -0.07813976      -0.38824642
C       -0.75490466      -0.62161274       0.88997165
N        0.50261358       0.75196782       1.34971038
C        0.95982014       0.95839012       0.07092378
C       -0.68675166       1.04740973       0.48579450
H        1.54107207      -0.23816349      -1.67370700
H        2.12047586      -0.85536350      -0.09440073
H       -0.19579701      -2.02707957      -0.73179412
H       -2.13077425      -0.12041037      -0.94293576
H       -1.21101003      -1.21335221       1.66637274
H        1.13061107       1.89350705      -0.45883954
H       -1.34616995       1.84727114       0.79607431
14
Frame=13 idx=011113 GeodesicLength=0.9299313020150264 rxn_smarts="[C:1]1([H:8])([H:9])[C@:2]2([H:10])[C@@:3]3([H:11])[C@:4]2([H:12])[N:5]2[C@:6]1([H:13])[C@@:7]32[H:14]>>[C:1]1([H:8])([H:9])[C@@:2]2([H:10])[C@:3]3([H:11])[C@@:4]2([H:12])[C@:7]3([H:14])[N:5]=[C:6]1[H:13]"
C        1.32704544      -0.32532978      -0.60574225
C       -0.04109235      -1.01540929      -0.36088468
C       -1.20540456      -0.06762620      -0.38184359
C       -0.74743894      -0.62222585       0.89475885
N        0.48882532       0.75039783       1.33903691
C        0.96403535       0.95613741       0.06602005
C       -0.69397448       1.05889207       0.49089154
H        1.55478264      -0.24584017      -1.67021329
H        2.12043564      -0.86183254      -0.08502461
H       -0.20046073      -2.01674462      -0.74146289
H       -2.12952785      -0.12403232      -0.93447122
H       -1.20650815      -1.22814626       1.65886623
H        1.12385967       1.88559499      -0.47640927
H       -1.35457702       1.85616473       0.80647821
14
Frame=14 idx=011113 GeodesicLength=1.0015708403733334 rxn_smarts="[C:1]1([H:8])([H:9])[C@:2]2([H:10])[C@@:3]3([H:11])[C@:4]2([H:12])[N:5]2[C@:6]1([H:13])[C@@:7]32[H:14]>>[C:1]1([H:8])([H:9])[C@@:2]2([H:10])[C@:3]3([H:11])[C@@:4]2([H:12])[C@:7]3([H:14])[N:5]=[C:6]1[H:13]"
C        1.33434278      -0.32769893      -0.60317053
C       -0.04065974      -1.00935581      -0.36113538
C       -1.20347822      -0.05711793      -0.37541512
C       -0.73992970      -0.62289704       0.89944958
N        0.47515616       0.74904240       1.32818071
C        0.96824711       0.95388371       0.06109958
C       -0.70128654       1.07036216       0.49605459
H        1.56861896      -0.25367361      -1.66650307
H        2.12026035      -0.86830513      -0.07547205
H       -0.20510909      -2.00622818      -0.75120915
H       -2.12813670      -0.12742464      -0.92600075
H       -1.20172796      -1.24278919       1.65111751
H        1.11677161       1.87729846      -0.49419932
H       -1.36306903       1.86490372       0.81720342
14
Frame=15 idx=011113 GeodesicLength=1.0732282925534855 rxn_smarts="[C:1]1([H:8])([H:9])[C@:2]2([H:10])[C@@:3]3([H:11])[C@:4]2([H:12])[N:5]2[C@:6]1([H:13])[C@@:7]32[H:14]>>[C:1]1([H:8])([H:9])[C@@:2]2([H:10])[C@:3]3([H:11])[C@@:4]2([H:12])[C@:7]3([H:14])[N:5]=[C:6]1[H:13]"
C        1.34164508      -0.33012378      -0.60048135
C       -0.04025360      -1.00324807      -0.36148534
C       -1.20161121      -0.04662560      -0.36896087
C       -0.73237039      -0.62362467       0.90404747
N        0.46159380       0.74789203       1.31713697
C        0.97246187       0.95162586       0.05616573
C       -0.70868677       1.08181700       0.50127609
H        1.58255533      -0.26164589      -1.66259098
H        2.11995747      -0.87477131      -0.06577194
H       -0.20973117      -1.99554583      -0.76100703
H       -2.12660308      -0.13059283      -0.91754312
H       -1.19668597      -1.25725514       1.64313899
H        1.10936744       1.86861120      -0.51216082
H       -1.37163880       1.87348704       0.82823619
14
Frame=16 idx=011113 GeodesicLength=1.1448961158073212 rxn_smarts="[C:1]1([H:8])([H:9])[C@:2]2([H:10])[C@@:3]3([H:11])[C@:4]2([H:12])[N:5]2[C@:6]1([H:13])[C@@:7]32[H:14]>>[C:1]1([H:8])([H:9])[C@@:2]2([H:10])[C@:3]3([H:11])[C@@:4]2([H:12])[C@:7]3([H:14])[N:5]=[C:6]1[H:13]"
C        1.34894451      -0.33259955      -0.59768685
C       -0.03987015      -0.99709059      -0.36193046
C       -1.19980343      -0.03615859      -0.36248384
C       -0.72475506      -0.62440544       0.90855166
N        0.44812509       0.74694041       1.30590312
C        0.97668438       0.94936096       0.05122091
C       -0.71617558       1.09325254       0.50654700
H        1.59656274      -0.26974098      -1.65848950
H        2.11952941      -0.88122295      -0.05595390
H       -0.21431377      -1.98471201      -0.77083295
H       -2.12493182      -0.13354596      -0.90910904
H       -1.19139485      -1.27151920       1.63494605
H        1.10168182       1.85953150      -0.53024049
H       -1.38028329       1.88190985       0.83955829
