12
Frame=0 idx=002630 GeodesicLength=0.0 rxn_smarts="[C:1]([C@@:2]1([H:10])[O:3][C:4]([H:11])([H:12])[C:5]1=[O:6])([H:7])([H:8])[H:9]>>[C:1]([C:2]1=[C:5]([O:6][H:10])[C:4]([H:11])([H:12])[O:3]1)([H:7])([H:8])[H:9]"
C       -1.65100592      -0.60855536      -0.43108956
C       -0.25807502      -0.21714701      -0.17294644
O        0.80169524      -1.01998090      -0.44610548
C        1.71154518       0.04476525      -0.01438094
C        0.46172501       0.83377490       0.38566517
O        0.21818241       2.08818672       0.80598493
H       -2.32147269       0.16362075      -0.05698029
H       -1.80991087      -0.72136471      -1.50639447
H       -1.88610855      -1.56322778       0.04407311
H        0.09488624       0.86098139       1.49812087
H        2.25178831       0.44604780      -0.86951239
H        2.38675070      -0.30710107       0.76356554
12
Frame=1 idx=002630 GeodesicLength=0.09752306501842212 rxn_smarts="[C:1]([C@@:2]1([H:10])[O:3][C:4]([H:11])([H:12])[C:5]1=[O:6])([H:7])([H:8])[H:9]>>[C:1]([C:2]1=[C:5]([O:6][H:10])[C:4]([H:11])([H:12])[O:3]1)([H:7])([H:8])[H:9]"
C       -1.64914707      -0.60462946      -0.42894551
C       -0.25845223      -0.23076293      -0.13354555
O        0.80467913      -1.03049062      -0.42110054
C        1.71560801       0.04551988      -0.02490203
C        0.47199068       0.84011206       0.37455561
O        0.21547695       2.08012511       0.81174246
H       -2.32124328       0.16820323      -0.05882739
H       -1.78710604      -0.70290803      -1.50845949
H       -1.90045539      -1.56288575       0.03038089
H        0.06186063       0.85005832       1.50158573
H        2.24364651       0.43285629      -0.89427676
H        2.40314211      -0.28519808       0.75179257
12
Frame=2 idx=002630 GeodesicLength=0.19506353123886583 rxn_smarts="[C:1]([C@@:2]1([H:10])[O:3][C:4]([H:11])([H:12])[C:5]1=[O:6])([H:7])([H:8])[H:9]>>[C:1]([C:2]1=[C:5]([O:6][H:10])[C:4]([H:11])([H:12])[O:3]1)([H:7])([H:8])[H:9]"
C       -1.64631463      -0.60049793      -0.42690798
C       -0.25891912      -0.24287403      -0.09490734
O        0.80717540      -1.04052253      -0.39560894
C        1.71871657       0.04601986      -0.03558808
C        0.48114688       0.84581091       0.36373680
O        0.21372605       2.07150132       0.81798618
H       -2.32076502       0.17266321      -0.06147007
H       -1.76326687      -0.68527676      -1.50994306
H       -1.91306926      -1.56184645       0.01691755
H        0.02868664       0.83958042       1.50571937
H        2.23422591       0.41909063      -0.91890947
H        2.41865745      -0.26364866       0.73897506
12
Frame=3 idx=002630 GeodesicLength=0.29261186204871614 rxn_smarts="[C:1]([C@@:2]1([H:10])[O:3][C:4]([H:11])([H:12])[C:5]1=[O:6])([H:7])([H:8])[H:9]>>[C:1]([C:2]1=[C:5]([O:6][H:10])[C:4]([H:11])([H:12])[O:3]1)([H:7])([H:8])[H:9]"
C       -1.64265063      -0.59620682      -0.42493069
C       -0.25942925      -0.25304055      -0.05800305
O        0.80927301      -1.04981947      -0.37009854
C        1.72102815       0.04627124      -0.04635681
C        0.48940932       0.85116576       0.35287446
O        0.21307342       2.06230626       0.82517670
H       -2.32007717       0.17702301      -0.06485606
H       -1.73911039      -0.66898338      -1.51075940
H       -1.92366918      -1.56007831       0.00430812
H       -0.00504292       0.82928713       1.51024450
H        2.22413002       0.40482403      -0.94303631
H        2.43306563      -0.24274890       0.72543706
12
Frame=4 idx=002630 GeodesicLength=0.39015990963252345 rxn_smarts="[C:1]([C@@:2]1([H:10])[O:3][C:4]([H:11])([H:12])[C:5]1=[O:6])([H:7])([H:8])[H:9]>>[C:1]([C:2]1=[C:5]([O:6][H:10])[C:4]([H:11])([H:12])[O:3]1)([H:7])([H:8])[H:9]"
C       -1.63832662      -0.59180655      -0.42300141
C       -0.25996188      -0.26112788      -0.02324420
O        0.81107053      -1.05825929      -0.34478247
C        1.72269624       0.04631208      -0.05716710
C        0.49697264       0.85640724       0.34173685
O        0.21361851       2.05249667       0.83363484
H       -2.31923897       0.18130647      -0.06896705
H       -1.71508071      -0.65426959      -1.51095062
H       -1.93228224      -1.55763878      -0.00712314
H       -0.03955500       0.81904746       1.51498889
H        2.21374050       0.39011249      -0.96650542
H        2.44634700      -0.22258031       0.71138084
12
Frame=5 idx=002630 GeodesicLength=0.4877026711901221 rxn_smarts="[C:1]([C@@:2]1([H:10])[O:3][C:4]([H:11])([H:12])[C:5]1=[O:6])([H:7])([H:8])[H:9]>>[C:1]([C:2]1=[C:5]([O:6][H:10])[C:4]([H:11])([H:12])[O:3]1)([H:7])([H:8])[H:9]"
C       -1.63349082      -0.58734109      -0.42112328
C       -0.26051332      -0.26718629       0.00934754
O        0.81265297      -1.06580241      -0.31970171
C        1.72384095       0.04619034      -0.06801095
C        0.50398278       0.86170925       0.33015013
O        0.21543894       2.04199698       0.84356330
H       -2.31830676       0.18552086      -0.07379144
H       -1.69138737      -0.64117301      -1.51061181
H       -1.93908366      -1.55463190      -0.01728527
H       -0.07497504       0.80883788       1.51986730
H        2.20325626       0.37497485      -0.98930989
H        2.45858507      -0.20309545       0.69690608
12
Frame=6 idx=002630 GeodesicLength=0.5852383857545267 rxn_smarts="[C:1]([C@@:2]1([H:10])[O:3][C:4]([H:11])([H:12])[C:5]1=[O:6])([H:7])([H:8])[H:9]>>[C:1]([C:2]1=[C:5]([O:6][H:10])[C:4]([H:11])([H:12])[O:3]1)([H:7])([H:8])[H:9]"
C       -1.62825109      -0.58284238      -0.41930463
C       -0.26108791      -0.27133242       0.03993760
O        0.81408438      -1.07244324      -0.29480295
C        1.72454619       0.04595531      -0.07890284
C        0.51053872       0.86720595       0.31797217
O        0.21861505       2.03069071       0.85510937
H       -2.31732329       0.18966694      -0.07933513
H       -1.66808897      -0.62964192      -1.50984254
H       -1.94428418      -1.55116044      -0.02620017
H       -0.11140415       0.79868995       1.52484732
H        2.19275717       0.35940000      -1.01151751
H        2.46989809      -0.18418844       0.68203931
12
Frame=7 idx=002630 GeodesicLength=0.6827661707958526 rxn_smarts="[C:1]([C@@:2]1([H:10])[O:3][C:4]([H:11])([H:12])[C:5]1=[O:6])([H:7])([H:8])[H:9]>>[C:1]([C:2]1=[C:5]([O:6][H:10])[C:4]([H:11])([H:12])[O:3]1)([H:7])([H:8])[H:9]"
C       -1.62267739      -0.57833142      -0.41755263
C       -0.26169082      -0.27368187       0.06875376
O        0.81541026      -1.07818026      -0.26999039
C        1.72486737       0.04565371      -0.08986971
C        0.51670622       0.87300811       0.30507853
O        0.22324421       2.01841690       0.86839918
H       -2.31631818       0.19373845      -0.08561418
H       -1.64516403      -0.61959479      -1.50872755
H       -1.94807302      -1.54731172      -0.03393126
H       -0.14896628       0.78866708       1.52991657
H        2.18225706       0.34335642      -1.03322348
H        2.48040460      -0.16574061       0.66676115
12
Frame=8 idx=002630 GeodesicLength=0.7802908366776601 rxn_smarts="[C:1]([C@@:2]1([H:10])[O:3][C:4]([H:11])([H:12])[C:5]1=[O:6])([H:7])([H:8])[H:9]>>[C:1]([C:2]1=[C:5]([O:6][H:10])[C:4]([H:11])([H:12])[O:3]1)([H:7])([H:8])[H:9]"
C       -1.61680750      -0.57381851      -0.41587504
C       -0.26232532      -0.27432261       0.09603579
O        0.81666375      -1.08300713      -0.24513328
C        1.72483922       0.04533073      -0.10095028
C        0.52253203       0.87921238       0.29137402
O        0.22944687       2.00495477       0.88356674
H       -2.31530787       0.19773581      -0.09267477
H       -1.62253878      -0.61095929      -1.50733496
H       -1.95060755      -1.54314813      -0.04054271
H       -0.18783777       0.77885317       1.53507182
H        2.17171471       0.32679834      -1.05454271
H        2.49022822      -0.14762951       0.65100536
12
Frame=9 idx=002630 GeodesicLength=0.8777972425018217 rxn_smarts="[C:1]([C@@:2]1([H:10])[O:3][C:4]([H:11])([H:12])[C:5]1=[O:6])([H:7])([H:8])[H:9]>>[C:1]([C:2]1=[C:5]([O:6][H:10])[C:4]([H:11])([H:12])[O:3]1)([H:7])([H:8])[H:9]"
C       -1.61064381      -0.56930540      -0.41427420
C       -0.26299085      -0.27331182       0.12201239
O        0.81786520      -1.08690085      -0.22008790
C        1.72447269       0.04502776      -0.11219297
C        0.52805710       0.88589349       0.27678795
O        0.23735624       1.99004476       0.90075600
H       -2.31428430       0.20165577      -0.10057476
H       -1.60009459      -0.60367875      -1.50571125
H       -1.95199901      -1.53869921      -0.04608371
H       -0.22825649       0.76935263       1.54029316
H        2.16104654       0.30968212      -1.07558870
H        2.49947129      -0.12976050       0.63466400
12
Frame=10 idx=002630 GeodesicLength=0.9753008698177877 rxn_smarts="[C:1]([C@@:2]1([H:10])[O:3][C:4]([H:11])([H:12])[C:5]1=[O:6])([H:7])([H:8])[H:9]>>[C:1]([C:2]1=[C:5]([O:6][H:10])[C:4]([H:11])([H:12])[O:3]1)([H:7])([H:8])[H:9]"
C       -1.60416232      -0.56478494      -0.41276004
C       -0.26368593      -0.27066419       0.14693289
O        0.81903536      -1.08983363      -0.19463682
C        1.72376983       0.04478228      -0.12366403
C        0.53332777       0.89313047       0.26133975
O        0.24713112       1.97332050       0.92014551
H       -2.31322960       0.20551340      -0.10943578
H       -1.57765930      -0.59771457      -1.50389471
H       -1.95233501      -1.53398482      -0.05060385
H       -0.27056436       0.76032630       1.54555737
H        2.15007808       0.29194037      -1.09652371
H        2.50829438      -0.11203117       0.61754341
12
Frame=11 idx=002630 GeodesicLength=1.0728066398982041 rxn_smarts="[C:1]([C@@:2]1([H:10])[O:3][C:4]([H:11])([H:12])[C:5]1=[O:6])([H:7])([H:8])[H:9]>>[C:1]([C:2]1=[C:5]([O:6][H:10])[C:4]([H:11])([H:12])[O:3]1)([H:7])([H:8])[H:9]"
C       -1.59729606      -0.56024165      -0.41134093
C       -0.26440641      -0.26637062       0.17106615
O        0.82019233      -1.09176356      -0.16851062
C        1.72270716       0.04462135      -0.13544836
C        0.53840568       0.90098416       0.24513413
O        0.25892034       1.95435148       0.94194069
H       -2.31208931       0.20932721      -0.11941564
H       -1.55498328      -0.59303882      -1.50190656
H       -1.95166339      -1.52899622      -0.05414877
H       -0.31519339       0.75199392       1.55080437
H        2.13853626       0.27350404      -1.11753634
H        2.51687006      -0.09437129       0.59936188
12
Frame=12 idx=002630 GeodesicLength=1.1703184317441369 rxn_smarts="[C:1]([C@@:2]1([H:10])[O:3][C:4]([H:11])([H:12])[C:5]1=[O:6])([H:7])([H:8])[H:9]>>[C:1]([C:2]1=[C:5]([O:6][H:10])[C:4]([H:11])([H:12])[O:3]1)([H:7])([H:8])[H:9]"
C       -1.58994022      -0.55565412      -0.41002179
C       -0.26514186      -0.26040396       0.19470802
O        0.82136032      -1.09263407      -0.14139893
C        1.72124308       0.04455622      -0.14764645
C        0.54338337       0.90950329       0.22838650
O        0.27282635       1.93263275       0.96636248
H       -2.31077598       0.21311880      -0.13070301
H       -1.53174849      -0.58962053      -1.49974733
H       -1.94999901      -1.52371132      -0.05676742
H       -0.36264969       0.74465813       1.55591553
H        2.12604766       0.25430406      -1.13883455
H        2.52539448      -0.07674924       0.57974696
12
Frame=13 idx=002630 GeodesicLength=1.2678437131760703 rxn_smarts="[C:1]([C@@:2]1([H:10])[O:3][C:4]([H:11])([H:12])[C:5]1=[O:6])([H:7])([H:8])[H:9]>>[C:1]([C:2]1=[C:5]([O:6][H:10])[C:4]([H:11])([H:12])[O:3]1)([H:7])([H:8])[H:9]"
C       -1.58193956      -0.55099325      -0.40879528
C       -0.26587820      -0.25272873       0.21818706
O        0.82256546      -1.09236503      -0.11296559
C        1.71930495       0.04457516      -0.16036850
C        0.54838729       0.91871614       0.21144238
O        0.28885594       1.90759284       0.99361442
H       -2.30914430       0.21690259      -0.14349723
H       -1.50755358      -0.58740146      -1.49738335
H       -1.94731035      -1.51809346      -0.05851700
H       -0.41347051       0.73870721       1.56067633
H        2.11212442       0.23428359      -1.16063398
H        2.53405844      -0.05919560       0.55824075
12
Frame=14 idx=002630 GeodesicLength=1.3654111241163036 rxn_smarts="[C:1]([C@@:2]1([H:10])[O:3][C:4]([H:11])([H:12])[C:5]1=[O:6])([H:7])([H:8])[H:9]>>[C:1]([C:2]1=[C:5]([O:6][H:10])[C:4]([H:11])([H:12])[O:3]1)([H:7])([H:8])[H:9]"
C       -1.57312745      -0.54623240      -0.40763739
C       -0.26659700      -0.24331956       0.24184558
O        0.82385409      -1.09086606      -0.08293381
C        1.71682116       0.04463606      -0.17370608
C        0.55358408       0.92865099       0.19478970
O        0.30683631       1.87863401       1.02380535
H       -2.30703105       0.22068361      -0.15796001
H       -1.48199528      -0.58627861      -1.49475189
H       -1.94354012      -1.51213009      -0.05947849
H       -0.46809673       0.73462569       1.56476849
H        2.09623012       0.21342118      -1.18311142
H        2.54306188      -0.04182482       0.53436996
12
Frame=15 idx=002630 GeodesicLength=1.4630527041234906 rxn_smarts="[C:1]([C@@:2]1([H:10])[O:3][C:4]([H:11])([H:12])[C:5]1=[O:6])([H:7])([H:8])[H:9]>>[C:1]([C:2]1=[C:5]([O:6][H:10])[C:4]([H:11])([H:12])[O:3]1)([H:7])([H:8])[H:9]"
C       -1.56335244      -0.54134634      -0.40647753
C       -0.26726783      -0.23220390       0.26595504
O        0.82527749      -1.08803651      -0.05126868
C        1.71372521       0.04466480      -0.18767837
C        0.55917099       0.93929668       0.17897070
O        0.32627424       1.84527593       1.05674552
H       -2.30424799       0.22442866      -0.17407152
H       -1.45477969      -0.58604001      -1.49173629
H       -1.93859968      -1.50583234      -0.05973495
H       -0.52661819       0.73287473       1.56774618
H        2.07794277       0.19180321      -1.20627617
H        2.55247510      -0.02488492       0.50782606
12
Frame=16 idx=002630 GeodesicLength=1.5608072883976958 rxn_smarts="[C:1]([C@@:2]1([H:10])[O:3][C:4]([H:11])([H:12])[C:5]1=[O:6])([H:7])([H:8])[H:9]>>[C:1]([C:2]1=[C:5]([O:6][H:10])[C:4]([H:11])([H:12])[O:3]1)([H:7])([H:8])[H:9]"
C       -1.55257978      -0.53631677      -0.40518310
C       -0.26784630      -0.21952061       0.29059227
O        0.82688416      -1.08381972      -0.01841682
C        1.71002406       0.04456219      -0.20215287
C        0.56534873       0.95058346       0.16444461
O        0.34619949       1.80741251       1.09164109
H       -2.30066084       0.22806737      -0.19145715
H       -1.42595472      -0.58631140      -1.48818007
H       -1.93243391      -1.49926994      -0.05936636
H       -0.58840500       0.73367626       1.56915047
H        2.05725956       0.16969717      -1.22982601
H        2.56216453      -0.00876052       0.47875395
