14
Frame=0 idx=010988 GeodesicLength=0.0 rxn_smarts="[O:1]=[C:2]([C:3]12[C:4]([H:9])([H:10])[N:5]([C:6]1([H:11])[H:12])[C:7]2([H:13])[H:14])[H:8]>>[O:1]=[C:2]([C:4]([N+:5]12[C-:3]([C:6]1([H:11])[H:12])[C:7]2([H:13])[H:14])([H:9])[H:10])[H:8]"
O        2.04998594      -0.63917600      -1.15525598
C        1.15846132       0.22724759      -0.92052536
C        0.56642222       0.39059295       0.44355581
C       -0.43668533      -0.37900310      -1.03427286
N       -1.06774465      -0.38721308       0.38942783
C       -0.73586831       1.05098511       0.73072721
C        0.15548146      -0.83654514       1.17149580
H        1.14128092       1.19659073      -1.45874871
H       -1.06623799       0.22372621      -1.68228948
H       -0.29125087      -1.39703356      -1.37860676
H       -1.11631401       1.79471863       0.03648277
H       -0.94818621       1.27541090       1.77096989
H       -0.01469134      -0.75068691       2.23895447
H        0.60534687      -1.76961436       0.84808543
14
Frame=1 idx=010988 GeodesicLength=0.0948068168908075 rxn_smarts="[O:1]=[C:2]([C:3]12[C:4]([H:9])([H:10])[N:5]([C:6]1([H:11])[H:12])[C:7]2([H:13])[H:14])[H:8]>>[O:1]=[C:2]([C:4]([N+:5]12[C-:3]([C:6]1([H:11])[H:12])[C:7]2([H:13])[H:14])([H:9])[H:10])[H:8]"
O        2.06439878      -0.63956080      -1.17683725
C        1.17422198       0.22042085      -0.93557453
C        0.56149585       0.39449331       0.44474347
C       -0.43911145      -0.38033376      -1.03172044
N       -1.06419302      -0.38681391       0.38896518
C       -0.74371024       1.05075309       0.73481248
C        0.15418803      -0.83391562       1.17546702
H        1.16341634       1.19799332      -1.45856436
H       -1.06641775       0.22610455      -1.67908086
H       -0.30693196      -1.39989322      -1.37834628
H       -1.12707137       1.79452184       0.04205185
H       -0.95914595       1.27180354       1.77554002
H       -0.01828774      -0.74869348       2.24299888
H        0.60714850      -1.76687971       0.85554483
14
Frame=2 idx=010988 GeodesicLength=0.1895990182286263 rxn_smarts="[O:1]=[C:2]([C:3]12[C:4]([H:9])([H:10])[N:5]([C:6]1([H:11])[H:12])[C:7]2([H:13])[H:14])[H:8]>>[O:1]=[C:2]([C:4]([N+:5]12[C-:3]([C:6]1([H:11])[H:12])[C:7]2([H:13])[H:14])([H:9])[H:10])[H:8]"
O        2.07896642      -0.64011779      -1.19905304
C        1.19010044       0.21328298      -0.95105747
C        0.55645109       0.39861072       0.44597501
C       -0.44150098      -0.38164828      -1.02912234
N       -1.06063392      -0.38640549       0.38855603
C       -0.75178761       1.05048656       0.73896608
C        0.15295088      -0.83112673       1.17947285
H        1.18620187       1.19922901      -1.45790795
H       -1.06647520       0.22854677      -1.67583907
H       -0.32290972      -1.40261574      -1.37800212
H       -1.13821776       1.79421210       0.04770512
H       -0.97037742       1.26808609       1.78016600
H       -0.02184960      -0.74660609       2.24707466
H        0.60908151      -1.76393411       0.86306624
14
Frame=3 idx=010988 GeodesicLength=0.2843809466615795 rxn_smarts="[O:1]=[C:2]([C:3]12[C:4]([H:9])([H:10])[N:5]([C:6]1([H:11])[H:12])[C:7]2([H:13])[H:14])[H:8]>>[O:1]=[C:2]([C:4]([N+:5]12[C-:3]([C:6]1([H:11])[H:12])[C:7]2([H:13])[H:14])([H:9])[H:10])[H:8]"
O        2.09368394      -0.64085436      -1.22193504
C        1.20609849       0.20582436      -0.96699987
C        0.55127886       0.40296001       0.44725673
C       -0.44385121      -0.38294348      -1.02647546
N       -1.05706598      -0.38598690       0.38820264
C       -0.76011473       1.05018371       0.74318991
C        0.15177528      -0.82816940       1.18351331
H        1.20967224       1.20026542      -1.45674077
H       -1.06640594       0.23105547      -1.67256180
H       -0.33919189      -1.40518649      -1.37757062
H       -1.14977141       1.79378231       0.05344349
H       -0.98189665       1.26425143       1.78484950
H       -0.02537391      -0.74442160       2.25118168
H        0.61116292      -1.76076049       0.87064630
14
Frame=4 idx=010988 GeodesicLength=0.3791561736747623 rxn_smarts="[O:1]=[C:2]([C:3]12[C:4]([H:9])([H:10])[N:5]([C:6]1([H:11])[H:12])[C:7]2([H:13])[H:14])[H:8]>>[O:1]=[C:2]([C:4]([N+:5]12[C-:3]([C:6]1([H:11])[H:12])[C:7]2([H:13])[H:14])([H:9])[H:10])[H:8]"
O        2.10854400      -0.64177914      -1.24551902
C        1.22221628       0.19803454      -0.98343035
C        0.54596861       0.40755910       0.44859526
C       -0.44615826      -0.38421487      -1.02377679
N       -1.05348735      -0.38555719       0.38790690
C       -0.76870812       1.04984203       0.74748639
C        0.15066758      -0.82503239       1.18758842
H        1.23386811       1.20106003      -1.45501824
H       -1.06620494       0.23363454      -1.66924632
H       -0.35578560      -1.40758628      -1.37704877
H       -1.16175476       1.79322371       0.05926836
H       -0.99372204       1.26029026       1.78959262
H       -0.02885621      -0.74213579       2.25531997
H        0.61341269      -1.75733857       0.87828158
14
Frame=5 idx=010988 GeodesicLength=0.47392789108367556 rxn_smarts="[O:1]=[C:2]([C:3]12[C:4]([H:9])([H:10])[N:5]([C:6]1([H:11])[H:12])[C:7]2([H:13])[H:14])[H:8]>>[O:1]=[C:2]([C:4]([N+:5]12[C-:3]([C:6]1([H:11])[H:12])[C:7]2([H:13])[H:14])([H:9])[H:10])[H:8]"
O        2.12354165      -0.64290020      -1.26983467
C        1.23845350       0.18990549      -1.00038134
C        0.54051006       0.41242502       0.44999738
C       -0.44841877      -0.38545683      -1.02102346
N       -1.04989623      -0.38511492       0.38767081
C       -0.77758326       1.04945907       0.75185836
C        0.14963380      -0.82170535       1.19169770
H        1.25882543       1.20156993      -1.45269764
H       -1.06586873       0.23628819      -1.66588994
H       -0.37269515      -1.40979931      -1.37643396
H       -1.17418810       1.79252855       0.06518203
H       -1.00587153       1.25619466       1.79439823
H       -0.03229253      -0.73974522       2.25948890
H        0.61584987      -1.75364906       0.88596760
14
Frame=6 idx=010988 GeodesicLength=0.5687005692654862 rxn_smarts="[O:1]=[C:2]([C:3]12[C:4]([H:9])([H:10])[N:5]([C:6]1([H:11])[H:12])[C:7]2([H:13])[H:14])[H:8]>>[O:1]=[C:2]([C:4]([N+:5]12[C-:3]([C:6]1([H:11])[H:12])[C:7]2([H:13])[H:14])([H:9])[H:10])[H:8]"
O        2.13866270      -0.64422749      -1.29492680
C        1.25481016       0.18142728      -1.01788512
C        0.53488976       0.41758042       0.45147149
C       -0.45062627      -0.38666304      -1.01821221
N       -1.04628966      -0.38465875       0.38749608
C       -0.78676110       1.04903130       0.75630906
C        0.14868214      -0.81817360       1.19584157
H        1.28459236       1.20173473      -1.44972563
H       -1.06538960       0.23902244      -1.66248953
H       -0.38992624      -1.41179973      -1.37572339
H       -1.18709888       1.79168544       0.07118624
H       -1.01836788       1.25195077       1.79926890
H       -0.03567764      -0.73724430       2.26368883
H        0.61850016      -1.74966546       0.89370052
14
Frame=7 idx=010988 GeodesicLength=0.6634765527921755 rxn_smarts="[O:1]=[C:2]([C:3]12[C:4]([H:9])([H:10])[N:5]([C:6]1([H:11])[H:12])[C:7]2([H:13])[H:14])[H:8]>>[O:1]=[C:2]([C:4]([N+:5]12[C-:3]([C:6]1([H:11])[H:12])[C:7]2([H:13])[H:14])([H:9])[H:10])[H:8]"
O        2.15389593      -0.64577088      -1.32083309
C        1.27128559       0.17259317      -1.03597776
C        0.52909458       0.42304669       0.45302536
C       -0.45277548      -0.38782569      -1.01534010
N       -1.04266471      -0.38418679       0.38738474
C       -0.79626154       1.04855478       0.76084256
C        0.14781992      -0.81442340       1.20001938
H        1.31121422       1.20149437      -1.44605172
H       -1.06476177       0.24184421      -1.65904223
H       -0.40748094      -1.41356716      -1.37491395
H       -1.20051332       1.79068321       0.07728483
H       -1.03123385       1.24754672       1.80420881
H       -0.03900607      -0.73462706       2.26791890
H        0.62138745      -1.74536218       0.90147425
14
Frame=8 idx=010988 GeodesicLength=0.7582606260456138 rxn_smarts="[O:1]=[C:2]([C:3]12[C:4]([H:9])([H:10])[N:5]([C:6]1([H:11])[H:12])[C:7]2([H:13])[H:14])[H:8]>>[O:1]=[C:2]([C:4]([N+:5]12[C-:3]([C:6]1([H:11])[H:12])[C:7]2([H:13])[H:14])([H:9])[H:10])[H:8]"
O        2.16922462      -0.64754242      -1.34759778
C        1.28787708       0.16339500      -1.05469988
C        0.52310803       0.42885073       0.45466896
C       -0.45485804      -0.38893509      -1.01240397
N       -1.03901680      -0.38369702       0.38733862
C       -0.80610827       1.04802448       0.76546409
C        0.14705542      -0.81043652       1.20423061
H        1.33874231       1.20077096      -1.44161811
H       -1.06397635       0.24476262      -1.65554445
H       -0.42535949      -1.41507301      -1.37400415
H       -1.21446215       1.78950730       0.08348230
H       -1.04449578       1.24296515       1.80922301
H       -0.04227158      -0.73188648       2.27217869
H        0.62454100      -1.74070569       0.90928206
14
Frame=9 idx=010988 GeodesicLength=0.853102339989507 rxn_smarts="[O:1]=[C:2]([C:3]12[C:4]([H:9])([H:10])[N:5]([C:6]1([H:11])[H:12])[C:7]2([H:13])[H:14])[H:8]>>[O:1]=[C:2]([C:4]([N+:5]12[C-:3]([C:6]1([H:11])[H:12])[C:7]2([H:13])[H:14])([H:9])[H:10])[H:8]"
O        2.18461843      -0.64956966      -1.37530996
C        1.30457686       0.15381576      -1.07412291
C        0.51690242       0.43504077       0.45642249
C       -0.45685517      -0.38996393      -1.00940013
N       -1.03533949      -0.38318691       0.38735655
C       -0.81634249       1.04743494       0.77017889
C        0.14640926      -0.80618352       1.20847869
H        1.36723990       1.19940729      -1.43629824
H       -1.06301735       0.24780582      -1.65198734
H       -0.44354957      -1.41626997      -1.37300166
H       -1.22899945       1.78813983       0.08977962
H       -1.05820307       1.23818305       1.81431433
H       -0.04545762      -0.72901267       2.27647043
H        0.62801734      -1.73564081       0.91711924
14
Frame=10 idx=010988 GeodesicLength=0.9479548451528774 rxn_smarts="[O:1]=[C:2]([C:3]12[C:4]([H:9])([H:10])[N:5]([C:6]1([H:11])[H:12])[C:7]2([H:13])[H:14])[H:8]>>[O:1]=[C:2]([C:4]([N+:5]12[C-:3]([C:6]1([H:11])[H:12])[C:7]2([H:13])[H:14])([H:9])[H:10])[H:8]"
O        2.20006185      -0.65184868      -1.40398206
C        1.32138680       0.14386964      -1.09426710
C        0.51046859       0.44163005       0.45828671
C       -0.45876589      -0.39091250      -1.00632687
N       -1.03162853      -0.38265383       0.38744150
C       -0.82697831       1.04678044       0.77499167
C        0.14588464      -0.80165247       1.21275982
H        1.39675791       1.19735148      -1.43007192
H       -1.06188248       0.25097137      -1.64837194
H       -0.46206035      -1.41714161      -1.37189989
H       -1.24414692       1.78656659       0.09618415
H       -1.07236782       1.23318393       1.81948833
H       -0.04856206      -0.72599891       2.28079089
H        0.63183256      -1.73014551       0.92497672
14
Frame=11 idx=010988 GeodesicLength=1.042808280659542 rxn_smarts="[O:1]=[C:2]([C:3]12[C:4]([H:9])([H:10])[N:5]([C:6]1([H:11])[H:12])[C:7]2([H:13])[H:14])[H:8]>>[O:1]=[C:2]([C:4]([N+:5]12[C-:3]([C:6]1([H:11])[H:12])[C:7]2([H:13])[H:14])([H:9])[H:10])[H:8]"
O        2.21553512      -0.65439365      -1.43365943
C        1.33830696       0.13355590      -1.11517603
C        0.50378856       0.44864860       0.46026982
C       -0.46058076      -0.39176736      -1.00318200
N       -1.02787890      -0.38209410       0.38759462
C       -0.83804075       1.04605393       0.77990710
C        0.14549340      -0.79682314       1.21707350
H        1.42734267       1.19450351      -1.42286996
H       -1.06056228       0.25427284      -1.64469439
H       -0.48088798      -1.41765649      -1.37069973
H       -1.25994185       1.78477128       0.10270015
H       -1.08702055       1.22794854       1.82474933
H       -0.05157520      -0.72283740       2.28513919
H        0.63602157      -1.72418246       0.93284784
14
Frame=12 idx=010988 GeodesicLength=1.137659637060494 rxn_smarts="[O:1]=[C:2]([C:3]12[C:4]([H:9])([H:10])[N:5]([C:6]1([H:11])[H:12])[C:7]2([H:13])[H:14])[H:8]>>[O:1]=[C:2]([C:4]([N+:5]12[C-:3]([C:6]1([H:11])[H:12])[C:7]2([H:13])[H:14])([H:9])[H:10])[H:8]"
O        2.23100660      -0.65721953      -1.46440510
C        1.35533564       0.12287556      -1.13689852
C        0.49683988       0.45613491       0.46238396
C       -0.46228591      -0.39251069      -0.99996313
N       -1.02408303      -0.38150423       0.38781607
C       -0.84956336       1.04524772       0.78493112
C        0.14524962      -0.79166900       1.22141996
H        1.45905449       1.19072700      -1.41460556
H       -1.05904307       0.25772867      -1.64095047
H       -0.50002477      -1.41777293      -1.36940445
H       -1.27643211       1.78273172       0.10933314
H       -1.10219840       1.22245001       1.83010212
H       -0.05448533      -0.71951623       2.28951494
H        0.64062976      -1.71770298       0.94072593
14
Frame=13 idx=010988 GeodesicLength=1.2325095174626426 rxn_smarts="[O:1]=[C:2]([C:3]12[C:4]([H:9])([H:10])[N:5]([C:6]1([H:11])[H:12])[C:7]2([H:13])[H:14])[H:8]>>[O:1]=[C:2]([C:4]([N+:5]12[C-:3]([C:6]1([H:11])[H:12])[C:7]2([H:13])[H:14])([H:9])[H:10])[H:8]"
O        2.24645078      -0.66034540      -1.49627055
C        1.37247289       0.11183295      -1.15949131
C        0.48959917       0.46412742       0.46464112
C       -0.46386643      -0.39312210      -0.99666799
N       -1.02023199      -0.38087926       0.38810682
C       -0.86157787       1.04435141       0.79007126
C        0.14516721      -0.78616263       1.22579798
H        1.49194229       1.18588507      -1.40519673
H       -1.05731061       0.26135928      -1.63713506
H       -0.51946142      -1.41745363      -1.36801698
H       -1.29366309       1.78042506       0.11609102
H       -1.11794056       1.21666244       1.83555340
H       -0.05728140      -0.71602531       2.29391641
H        0.64570101      -1.71065532       0.94860063
14
Frame=14 idx=010988 GeodesicLength=1.32735424105973 rxn_smarts="[O:1]=[C:2]([C:3]12[C:4]([H:9])([H:10])[N:5]([C:6]1([H:11])[H:12])[C:7]2([H:13])[H:14])[H:8]>>[O:1]=[C:2]([C:4]([N+:5]12[C-:3]([C:6]1([H:11])[H:12])[C:7]2([H:13])[H:14])([H:9])[H:10])[H:8]"
O        2.26182027      -0.66378537      -1.52933980
C        1.38971546       0.10043685      -1.18300993
C        0.48203663       0.47267470       0.46705496
C       -0.46530483      -0.39357827      -0.99329452
N       -1.01631583      -0.38021416       0.38846678
C       -0.87412653       1.04335467       0.79533434
C        0.14526517      -0.78026870       1.23020805
H        1.52608433       1.17979079      -1.39452772
H       -1.05534820       0.26518846      -1.63324392
H       -0.53918341      -1.41664929      -1.36654232
H       -1.31169660       1.77782302       0.12297950
H       -1.13429321       1.21054848       1.84110818
H       -0.05994712      -0.71234764       2.29834328
H        0.65129387      -1.70297352       0.95646312
14
Frame=15 idx=010988 GeodesicLength=1.4221831392949162 rxn_smarts="[O:1]=[C:2]([C:3]12[C:4]([H:9])([H:10])[N:5]([C:6]1([H:11])[H:12])[C:7]2([H:13])[H:14])[H:8]>>[O:1]=[C:2]([C:4]([N+:5]12[C-:3]([C:6]1([H:11])[H:12])[C:7]2([H:13])[H:14])([H:9])[H:10])[H:8]"
O        2.27707290      -0.66755285      -1.56368781
C        1.40706189       0.08870149      -1.20751185
C        0.47412119       0.48182415       0.46963739
C       -0.46658256      -0.39385382      -0.98984084
N       -1.01232359      -0.37950156       0.38889629
C       -0.88724975       1.04224387       0.80072813
C        0.14556059      -0.77394997       1.23464805
H        1.56154577       1.17224840      -1.38248766
H       -1.05313786       0.26924208      -1.62927130
H       -0.55917236      -1.41531169      -1.36498520
H       -1.33059171       1.77489088       0.13000832
H       -1.15130222       1.20407292       1.84677289
H       -0.06246703      -0.70846517       2.30279225
H        0.65746473      -1.69458873       0.96430136
14
Frame=16 idx=010988 GeodesicLength=1.5169919689695637 rxn_smarts="[O:1]=[C:2]([C:3]12[C:4]([H:9])([H:10])[N:5]([C:6]1([H:11])[H:12])[C:7]2([H:13])[H:14])[H:8]>>[O:1]=[C:2]([C:4]([N+:5]12[C-:3]([C:6]1([H:11])[H:12])[C:7]2([H:13])[H:14])([H:9])[H:10])[H:8]"
O        2.29214988      -0.67165659      -1.59941139
C        1.42450577       0.07665188      -1.23306614
C        0.46581781       0.49163390       0.47240279
C       -0.46767899      -0.39391949      -0.98630569
N       -1.00824404      -0.37873505       0.38939375
C       -0.90099623       1.04100539       0.80625884
C        0.14607710      -0.76716457       1.23911879
H        1.59841466       1.16301092      -1.36892829
H       -1.05066244       0.27354915      -1.62521209
H       -0.57940638      -1.41338385      -1.36335351
H       -1.35042325       1.77159337       0.13718243
H       -1.16902294       1.19719447       1.85255106
H       -0.06481718      -0.70435751       2.30726333
H        0.66428625      -1.68542203       0.97210614
