16
Frame=0 idx=011129 GeodesicLength=0.0 rxn_smarts="[C:1]([C:2]1([C:6]#[N:7])[C:3]([H:11])([H:12])[C:4]([H:13])([H:14])[C:5]1([H:15])[H:16])([H:8])([H:9])[H:10]>>[C:1]([C:2]([C:3]([H:11])([H:12])[H:14])([C:5]([C:4][H:13])([H:15])[H:16])[C:6]#[N:7])([H:8])([H:9])[H:10]"
C        1.00129676       1.29184479       0.15943821
C        0.43683314      -0.11473745      -0.05317102
C       -0.43803606      -0.54334566       1.13400928
C       -1.84799460       0.27943498      -0.34380761
C       -0.63520729      -0.15018864      -1.16193061
C        1.53381845      -1.05785785      -0.29007382
N        2.38830652      -1.80241672      -0.47055185
H        1.57651637       1.60772855      -0.71096824
H        1.65569003       1.31553712       1.03216087
H        0.18007413       1.99264161       0.31103517
H       -0.06708053      -0.25633008       2.11916552
H       -0.71274569      -1.59418045       1.11527898
H       -2.57841641      -0.54332754      -0.30384441
H       -1.37373850       0.16995093       1.01999891
H       -0.69177603      -1.15449730      -1.59097865
H       -0.42754032       0.55974376      -1.96576072
16
Frame=1 idx=011129 GeodesicLength=0.05432202718643577 rxn_smarts="[C:1]([C:2]1([C:6]#[N:7])[C:3]([H:11])([H:12])[C:4]([H:13])([H:14])[C:5]1([H:15])[H:16])([H:8])([H:9])[H:10]>>[C:1]([C:2]([C:3]([H:11])([H:12])[H:14])([C:5]([C:4][H:13])([H:15])[H:16])[C:6]#[N:7])([H:8])([H:9])[H:10]"
C        1.00296470       1.29173455       0.15928047
C        0.43878799      -0.11494815      -0.05170959
C       -0.44003123      -0.54262618       1.13360224
C       -1.84601993       0.26978781      -0.34213179
C       -0.63408188      -0.15309329      -1.15998154
C        1.53526229      -1.05814146      -0.28939214
N        2.38859015      -1.80372042      -0.47123352
H        1.57678548       1.60788153      -0.71203144
H        1.65817984       1.31605162       1.03133286
H        0.18188707       1.99254048       0.31178958
H       -0.06249076      -0.26127247       2.11793914
H       -0.70641217      -1.59599755       1.11816929
H       -2.58697758      -0.54355352      -0.32200913
H       -1.38150277       0.18849833       1.03144920
H       -0.68911286      -1.15563975      -1.59318671
H       -0.43582833       0.56249846      -1.96188691
16
Frame=2 idx=011129 GeodesicLength=0.1086350180431899 rxn_smarts="[C:1]([C:2]1([C:6]#[N:7])[C:3]([H:11])([H:12])[C:4]([H:13])([H:14])[C:5]1([H:15])[H:16])([H:8])([H:9])[H:10]>>[C:1]([C:2]([C:3]([H:11])([H:12])[H:14])([C:5]([C:4][H:13])([H:15])[H:16])[C:6]#[N:7])([H:8])([H:9])[H:10]"
C        1.00461815       1.29157670       0.15913258
C        0.44077875      -0.11522888      -0.05022358
C       -0.44194629      -0.54200820       1.13326184
C       -1.84403372       0.25984526      -0.34012363
C       -0.63299737      -0.15603068      -1.15794545
C        1.53676058      -1.05844650      -0.28875401
N        2.38890964      -1.80504343      -0.47202818
H        1.57699316       1.60801134      -0.71310254
H        1.66068612       1.31653516       1.03048787
H        0.18367291       1.99236819       0.31258844
H       -0.05815806      -0.26591724       2.11672006
H       -0.69971023      -1.59791550       1.12122466
H       -2.59558416      -0.54329538      -0.34073502
H       -1.38921666       0.20709310       1.04267906
H       -0.68645148      -1.15676687      -1.59537411
H       -0.44432135       0.56522294      -1.95780797
16
Frame=3 idx=011129 GeodesicLength=0.16292327043988775 rxn_smarts="[C:1]([C:2]1([C:6]#[N:7])[C:3]([H:11])([H:12])[C:4]([H:13])([H:14])[C:5]1([H:15])[H:16])([H:8])([H:9])[H:10]>>[C:1]([C:2]([C:3]([H:11])([H:12])[H:14])([C:5]([C:4][H:13])([H:15])[H:16])[C:6]#[N:7])([H:8])([H:9])[H:10]"
C        1.00624413       1.29136678       0.15899461
C        0.44280558      -0.11558510      -0.04871309
C       -0.44376947      -0.54151041       1.13298775
C       -1.84203498       0.24959545      -0.33778967
C       -0.63195199      -0.15901299      -1.15581903
C        1.53832154      -1.05877013      -0.28816223
N        2.38928535      -1.80637023      -0.47293857
H        1.57712491       1.60811681      -0.71417880
H        1.66319457       1.31698740       1.02962426
H        0.18541242       1.99211371       0.31343206
H       -0.05406865      -0.27026883       2.11551401
H       -0.69264110      -1.59993930       1.12444087
H       -2.60422350      -0.54245687      -0.36000855
H       -1.39689037       0.22573029       1.05366774
H       -0.68379192      -1.15789035      -1.59753175
H       -0.45301651       0.56789377      -1.95351961
16
Frame=4 idx=011129 GeodesicLength=0.2172310391878875 rxn_smarts="[C:1]([C:2]1([C:6]#[N:7])[C:3]([H:11])([H:12])[C:4]([H:13])([H:14])[C:5]1([H:15])[H:16])([H:8])([H:9])[H:10]>>[C:1]([C:2]([C:3]([H:11])([H:12])[H:14])([C:5]([C:4][H:13])([H:15])[H:16])[C:6]#[N:7])([H:8])([H:9])[H:10]"
C        1.00785888       1.29112774       0.15886730
C        0.44487125      -0.11602104      -0.04717776
C       -0.44549676      -0.54117410       1.13279758
C       -1.84004962       0.23900775      -0.33516256
C       -0.63096191      -0.16205535      -1.15362805
C        1.53995776      -1.05910916      -0.28761043
N        2.38974270      -1.80768650      -0.47394961
H        1.57720230       1.60823974      -0.71527099
H        1.66573436       1.31743620       1.02876438
H        0.18711466       1.99179451       0.31431354
H       -0.05020076      -0.27435374       2.11437175
H       -0.68522921      -1.60211678       1.12783950
H       -2.61290594      -0.54095737      -0.37980438
H       -1.40454573       0.24440212       1.06440400
H       -0.68116678      -1.15903630      -1.59968452
H       -0.46192523       0.57050228      -1.94906976
16
Frame=5 idx=011129 GeodesicLength=0.27147981430238005 rxn_smarts="[C:1]([C:2]1([C:6]#[N:7])[C:3]([H:11])([H:12])[C:4]([H:13])([H:14])[C:5]1([H:15])[H:16])([H:8])([H:9])[H:10]>>[C:1]([C:2]([C:3]([H:11])([H:12])[H:14])([C:5]([C:4][H:13])([H:15])[H:16])[C:6]#[N:7])([H:8])([H:9])[H:10]"
C        1.00940722       1.29081541       0.15874779
C        0.44697194      -0.11653363      -0.04561691
C       -0.44708596      -0.54095133       1.13267125
C       -1.83801681       0.22812175      -0.33219074
C       -0.62999189      -0.16516166      -1.15130610
C        1.54165172      -1.05945765      -0.28713416
N        2.39024096      -1.80899976      -0.47510229
H        1.57714479       1.60830251      -0.71636484
H        1.66822846       1.31784725       1.02784880
H        0.18873354       1.99136359       0.31525504
H       -0.04654920      -0.27813912       2.11321909
H       -0.67742260      -1.60434697       1.13136847
H       -2.62158648      -0.53875538      -0.40023090
H       -1.41220735       0.26308120       1.07492576
H       -0.67851943      -1.16019175      -1.60174316
H       -0.47099890       0.57300553      -1.94434709
16
Frame=6 idx=011129 GeodesicLength=0.3256833182567751 rxn_smarts="[C:1]([C:2]1([C:6]#[N:7])[C:3]([H:11])([H:12])[C:4]([H:13])([H:14])[C:5]1([H:15])[H:16])([H:8])([H:9])[H:10]>>[C:1]([C:2]([C:3]([H:11])([H:12])[H:14])([C:5]([C:4][H:13])([H:15])[H:16])[C:6]#[N:7])([H:8])([H:9])[H:10]"
C        1.01090788       1.29046133       0.15863866
C        0.44911356      -0.11714158      -0.04403239
C       -0.44855859      -0.54093326       1.13261922
C       -1.83598951       0.21685069      -0.32894712
C       -0.62906619      -0.16836205      -1.14891793
C        1.54344486      -1.05981497      -0.28669300
N        2.39087539      -1.81026182      -0.47635651
H        1.57699609       1.60837913      -0.71746257
H        1.67070873       1.31825201       1.02693778
H        0.19026128       1.99083739       0.31622708
H       -0.04309790      -0.28167559       2.11213301
H       -0.66925947      -1.60675219       1.13507325
H       -2.63030121      -0.53561922      -0.42108901
H       -1.41985957       0.28178848       1.08511254
H       -0.67589191      -1.16140352      -1.60378893
H       -0.48028344       0.57539516      -1.93945409
16
Frame=7 idx=011129 GeodesicLength=0.37991507203095104 rxn_smarts="[C:1]([C:2]1([C:6]#[N:7])[C:3]([H:11])([H:12])[C:4]([H:13])([H:14])[C:5]1([H:15])[H:16])([H:8])([H:9])[H:10]>>[C:1]([C:2]([C:3]([H:11])([H:12])[H:14])([C:5]([C:4][H:13])([H:15])[H:16])[C:6]#[N:7])([H:8])([H:9])[H:10]"
C        1.01235496       1.29006289       0.15853859
C        0.45128878      -0.11783481      -0.04241524
C       -0.44988518      -0.54108637       1.13266196
C       -1.83395069       0.20524022      -0.32540087
C       -0.62818660      -0.17165243      -1.14641934
C        1.54530843      -1.06018333      -0.28631301
N        2.39158024      -1.81150242      -0.47776570
H        1.57672563       1.60844704      -0.71857719
H        1.67317817       1.31865318       1.02599333
H        0.19170920       1.99022273       0.31725483
H       -0.03982203      -0.28494631       2.11110241
H       -0.66073126      -1.60927175       1.13894551
H       -2.63894832      -0.53164810      -0.44258804
H       -1.42757626       0.30050977       1.09506998
H       -0.67328927      -1.16266529      -1.60574963
H       -0.48975581       0.57765499      -1.93433758
16
Frame=8 idx=011129 GeodesicLength=0.4340637129850539 rxn_smarts="[C:1]([C:2]1([C:6]#[N:7])[C:3]([H:11])([H:12])[C:4]([H:13])([H:14])[C:5]1([H:15])[H:16])([H:8])([H:9])[H:10]>>[C:1]([C:2]([C:3]([H:11])([H:12])[H:14])([C:5]([C:4][H:13])([H:15])[H:16])[C:6]#[N:7])([H:8])([H:9])[H:10]"
C        1.01371284       1.28960210       0.15844576
C        0.45351029      -0.11863905      -0.04077655
C       -0.45106403      -0.54147321       1.13277092
C       -1.83189556       0.19319868      -0.32158374
C       -0.62733245      -0.17508152      -1.14383778
C        1.54729575      -1.06054935      -0.28597894
N        2.39248125      -1.81264107      -0.47927427
H        1.57630787       1.60851020      -0.71969453
H        1.67558934       1.31904467       1.02503214
H        0.19300906       1.98947013       0.31831800
H       -0.03672408      -0.28798129       2.11012951
H       -0.65181052      -1.61196491       1.14297978
H       -2.64764689      -0.52642201      -0.46449272
H       -1.43532689       0.31922049       1.10465400
H       -0.67068287      -1.16402557      -1.60766731
H       -0.49942310       0.57973172      -1.92902427
16
Frame=9 idx=011129 GeodesicLength=0.4882243072249693 rxn_smarts="[C:1]([C:2]1([C:6]#[N:7])[C:3]([H:11])([H:12])[C:4]([H:13])([H:14])[C:5]1([H:15])[H:16])([H:8])([H:9])[H:10]>>[C:1]([C:2]([C:3]([H:11])([H:12])[H:14])([C:5]([C:4][H:13])([H:15])[H:16])[C:6]#[N:7])([H:8])([H:9])[H:10]"
C        1.01499174       1.28909619       0.15836142
C        0.45576324      -0.11953919      -0.03910426
C       -0.45208000      -0.54206447       1.13297871
C       -1.82982911       0.18077345      -0.31747675
C       -0.62652365      -0.17863201      -1.14114041
C        1.54936319      -1.06092305      -0.28570842
N        2.39347367      -1.81373901      -0.48095522
H        1.57573877       1.60857058      -0.72082773
H        1.67796359       1.31944355       1.02403458
H        0.19419360       1.98861619       0.31943655
H       -0.03377945      -0.29076681       2.10922615
H       -0.64251612      -1.61479124       1.14718704
H       -2.65619649      -0.52015077      -0.48701053
H       -1.44318341       0.33794296       1.11396668
H       -0.66810119      -1.16547086      -1.60948644
H       -0.50927837       0.58163448      -1.92348137
16
Frame=10 idx=011129 GeodesicLength=0.5423373318286182 rxn_smarts="[C:1]([C:2]1([C:6]#[N:7])[C:3]([H:11])([H:12])[C:4]([H:13])([H:14])[C:5]1([H:15])[H:16])([H:8])([H:9])[H:10]>>[C:1]([C:2]([C:3]([H:11])([H:12])[H:14])([C:5]([C:4][H:13])([H:15])[H:16])[C:6]#[N:7])([H:8])([H:9])[H:10]"
C        1.01615535       1.28852979       0.15828102
C        0.45807046      -0.12056446      -0.03740678
C       -0.45291281      -0.54293318       1.13326241
C       -1.82773951       0.16785038      -0.31312057
C       -0.62573091      -0.18237366      -1.13835813
C        1.55158070      -1.06128232      -0.28548336
N        2.39470630      -1.81469430      -0.48274652
H        1.57498497       1.60863637      -0.72197092
H        1.68025582       1.31985875       1.02301532
H        0.19518990       1.98760596       0.32058570
H       -0.03098210      -0.29334645       2.10840034
H       -0.63279465      -1.61781819       1.15156319
H       -2.66481531      -0.51228820      -0.50992666
H       -1.45114221       0.35661119       1.12288289
H       -0.66551049      -1.16707905      -1.61123164
H       -0.51931550       0.58328737      -1.91774629
16
Frame=11 idx=011129 GeodesicLength=0.5964222683206161 rxn_smarts="[C:1]([C:2]1([C:6]#[N:7])[C:3]([H:11])([H:12])[C:4]([H:13])([H:14])[C:5]1([H:15])[H:16])([H:8])([H:9])[H:10]>>[C:1]([C:2]([C:3]([H:11])([H:12])[H:14])([C:5]([C:4][H:13])([H:15])[H:16])[C:6]#[N:7])([H:8])([H:9])[H:10]"
C        1.01721374       1.28791500       0.15820952
C        0.46040491      -0.12169848      -0.03567636
C       -0.45358166      -0.54404747       1.13364774
C       -1.82565194       0.15448031      -0.30850462
C       -0.62498651      -0.18626981      -1.13547055
C        1.55389556      -1.06164087      -0.28531362
N        2.39606078      -1.81558117      -0.48472777
H        1.57406324       1.60870502      -0.72312510
H        1.68248023       1.32029155       1.02197185
H        0.19602710       1.98647422       0.32177799
H       -0.02832755      -0.29569962       2.10766067
H       -0.62269501      -1.62100660       1.15612673
H       -2.67315893      -0.50314119      -0.53333761
H       -1.45924810       0.37530054       1.13144583
H       -0.66294672      -1.16880394      -1.61289189
H       -0.52954914       0.58472252      -1.91179282
16
Frame=12 idx=011129 GeodesicLength=0.6504670818486971 rxn_smarts="[C:1]([C:2]1([C:6]#[N:7])[C:3]([H:11])([H:12])[C:4]([H:13])([H:14])[C:5]1([H:15])[H:16])([H:8])([H:9])[H:10]>>[C:1]([C:2]([C:3]([H:11])([H:12])[H:14])([C:5]([C:4][H:13])([H:15])[H:16])[C:6]#[N:7])([H:8])([H:9])[H:10]"
C        1.01812697       1.28724069       0.15814123
C        0.46278618      -0.12296537      -0.03391776
C       -0.45405642      -0.54546084       1.13411653
C       -1.82354473       0.14056520      -0.30364958
C       -0.62425885      -0.19038873      -1.13248530
C        1.55636299      -1.06198207      -0.28519307
N        2.39764444      -1.81633063      -0.48685907
H        1.57291905       1.60878371      -0.72429093
H        1.68459457       1.32075517       1.02089567
H        0.19663777       1.98517707       0.32300486
H       -0.02580737      -0.29785621       2.10700259
H       -0.61215440      -1.62440188       1.16086719
H       -2.68139155      -0.49221381      -0.55712121
H       -1.46752851       0.39394161       1.13957845
H       -0.66036989      -1.17072492      -1.61445758
H       -0.53996025       0.58586102      -1.90563203
16
Frame=13 idx=011129 GeodesicLength=0.7044913153617404 rxn_smarts="[C:1]([C:2]1([C:6]#[N:7])[C:3]([H:11])([H:12])[C:4]([H:13])([H:14])[C:5]1([H:15])[H:16])([H:8])([H:9])[H:10]>>[C:1]([C:2]([C:3]([H:11])([H:12])[H:14])([C:5]([C:4][H:13])([H:15])[H:16])[C:6]#[N:7])([H:8])([H:9])[H:10]"
C        1.01887561       1.28650890       0.15807112
C        0.46521433      -0.12437672      -0.03212731
C       -0.45432322      -0.54720067       1.13468391
C       -1.82142253       0.12605135      -0.29855732
C       -0.62355189      -0.19476562      -1.12939873
C        1.55899656      -1.06230342      -0.28512136
N        2.39948869      -1.81692270      -0.48914075
H        1.57152158       1.60888026      -0.72548263
H        1.68659007       1.32126655       1.01977700
H        0.19699194       1.98370439       0.32426763
H       -0.02340124      -0.29983252       2.10644069
H       -0.60114661      -1.62802638       1.16580103
H       -2.68946203      -0.47927280      -0.58130431
H       -1.47602488       0.41250917       1.14726775
H       -0.65778459      -1.17288198      -1.61591540
H       -0.55056178       0.58666219      -1.89926132
16
Frame=14 idx=011129 GeodesicLength=0.75851240177396 rxn_smarts="[C:1]([C:2]1([C:6]#[N:7])[C:3]([H:11])([H:12])[C:4]([H:13])([H:14])[C:5]1([H:15])[H:16])([H:8])([H:9])[H:10]>>[C:1]([C:2]([C:3]([H:11])([H:12])[H:14])([C:5]([C:4][H:13])([H:15])[H:16])[C:6]#[N:7])([H:8])([H:9])[H:10]"
C        1.01944200       1.28572189       0.15799020
C        0.46769110      -0.12594570      -0.03030064
C       -0.45437257      -0.54930525       1.13535874
C       -1.81929471       0.11086524      -0.29323255
C       -0.62286768      -0.19944094      -1.12620833
C        1.56181338      -1.06259503      -0.28508851
N        2.40163162      -1.81731636      -0.49156967
H        1.56984476       1.60900869      -0.72671590
H        1.68846002       1.32184320       1.01860264
H        0.19706043       1.98203946       0.32555491
H       -0.02109792      -0.30165747       2.10599003
H       -0.58964770      -1.63191464       1.17095314
H       -2.69732245      -0.46403583      -0.60587817
H       -1.48478472       0.43096944       1.15448431
H       -0.65519307      -1.17532074      -1.61724973
H       -0.56136250       0.58708404      -1.89269048
16
Frame=15 idx=011129 GeodesicLength=0.8124705915742152 rxn_smarts="[C:1]([C:2]1([C:6]#[N:7])[C:3]([H:11])([H:12])[C:4]([H:13])([H:14])[C:5]1([H:15])[H:16])([H:8])([H:9])[H:10]>>[C:1]([C:2]([C:3]([H:11])([H:12])[H:14])([C:5]([C:4][H:13])([H:15])[H:16])[C:6]#[N:7])([H:8])([H:9])[H:10]"
C        1.01976952       1.28485734       0.15790801
C        0.47020194      -0.12767987      -0.02845217
C       -0.45420399      -0.55176802       1.13609926
C       -1.81712992       0.09499731      -0.28770627
C       -0.62218266      -0.20442930      -1.12291189
C        1.56479983      -1.06286212      -0.28511435
N        2.40404953      -1.81752976      -0.49416901
H        1.56784590       1.60912937      -0.72794693
H        1.69010128       1.32247182       1.01738581
H        0.19678192       1.98015965       0.32685784
H       -0.01892605      -0.30331340       2.10559128
H       -0.57763489      -1.63603831       1.17626823
H       -2.70475714      -0.44639190      -0.63058454
H       -1.49382869       0.44936197       1.16112816
H       -0.65255742      -1.17805043      -1.61846561
H       -0.57232915       0.58708567      -1.88588781
16
Frame=16 idx=011129 GeodesicLength=0.8664175833805088 rxn_smarts="[C:1]([C:2]1([C:6]#[N:7])[C:3]([H:11])([H:12])[C:4]([H:13])([H:14])[C:5]1([H:15])[H:16])([H:8])([H:9])[H:10]>>[C:1]([C:2]([C:3]([H:11])([H:12])[H:14])([C:5]([C:4][H:13])([H:15])[H:16])[C:6]#[N:7])([H:8])([H:9])[H:10]"
C        1.01985078       1.28392807       0.15780986
C        0.47275853      -0.12959763      -0.02657157
C       -0.45380625      -0.55465166       1.13694410
C       -1.81496246       0.07833089      -0.28199368
C       -0.62150817      -0.20979510      -1.11952387
C        1.56800155      -1.06308453      -0.28517368
N        2.40681696      -1.81749786      -0.49694618
H        1.56550929       1.60928054      -0.72921793
H        1.69152955       1.32319282       1.01612429
H        0.19612294       1.97804653       0.32815489
H       -0.01686625      -0.30484592       2.10530495
H       -0.56507804      -1.64046104       1.18181242
H       -2.71176865      -0.42590754      -0.65544364
H       -1.50323237       0.46760856       1.16718265
H       -0.64989306      -1.18114752      -1.61955515
H       -0.58347435       0.58660140      -1.87890745
