12
Frame=0 idx=003034 GeodesicLength=0.0 rxn_smarts="[O:1]=[C:2]([C:3]([C:4]([C:5](=[O:6])[H:12])([H:10])[H:11])([H:8])[H:9])[H:7]>>[O+:1](=[C-:2][H:7])[C:3]([C:4]([C:5](=[O:6])[H:12])([H:10])[H:11])([H:8])[H:9]"
O       -0.96567735      -0.76165620      -1.02396257
C       -1.89476809      -1.09793141      -0.19693530
C       -0.42958394      -0.45060474       0.60802836
C        0.45720656       0.72481547       0.21735799
C        1.65117401       0.33466603      -0.62507779
O        2.19506885      -0.72957153      -0.54746529
H       -2.76151671      -0.37600025      -0.27831619
H        0.10682394      -1.33690928       0.91425923
H       -1.14228053      -0.09095161       1.36349125
H       -0.11272721       1.51861714      -0.26655609
H        0.86359182       1.14775738       1.14523565
H        2.03268869       1.11776899      -1.31005929
12
Frame=1 idx=003034 GeodesicLength=0.04244430767264621 rxn_smarts="[O:1]=[C:2]([C:3]([C:4]([C:5](=[O:6])[H:12])([H:10])[H:11])([H:8])[H:9])[H:7]>>[O+:1](=[C-:2][H:7])[C:3]([C:4]([C:5](=[O:6])[H:12])([H:10])[H:11])([H:8])[H:9]"
O       -0.98554934      -0.72347790      -1.03375013
C       -1.88391683      -1.11741924      -0.20389582
C       -0.43473033      -0.43548237       0.60337073
C        0.46581355       0.73038863       0.21885117
C        1.65595025       0.33037594      -0.62367762
O        2.17522836      -0.74748111      -0.56725250
H       -2.78793751      -0.44320003      -0.26782236
H        0.09823560      -1.32059589       0.92175780
H       -1.14232411      -0.07272514       1.36177061
H       -0.09493535       1.53063638      -0.26556982
H        0.87548596       1.15022082       1.14655999
H        2.05867974       1.11875991      -1.29034205
12
Frame=2 idx=003034 GeodesicLength=0.08473655798934616 rxn_smarts="[O:1]=[C:2]([C:3]([C:4]([C:5](=[O:6])[H:12])([H:10])[H:11])([H:8])[H:9])[H:7]>>[O+:1](=[C-:2][H:7])[C:3]([C:4]([C:5](=[O:6])[H:12])([H:10])[H:11])([H:8])[H:9]"
O       -1.00727193      -0.68269556      -1.04254744
C       -1.87138682      -1.13642202      -0.21238540
C       -0.44020002      -0.41968763       0.59901182
C        0.47457827       0.73610294       0.22080125
C        1.66023224       0.32561983      -0.62231848
O        2.15390824      -0.76518690      -0.58765067
H       -2.81128110      -0.51408918      -0.25783878
H        0.08915512      -1.30345817       0.92981473
H       -1.14327443      -0.05362229       1.35965083
H       -0.07640170       1.54332240      -0.26364890
H        0.88802100       1.15221640       1.14837393
H        2.08392112       1.11790017      -1.27126289
12
Frame=3 idx=003034 GeodesicLength=0.12684879186736697 rxn_smarts="[O:1]=[C:2]([C:3]([C:4]([C:5](=[O:6])[H:12])([H:10])[H:11])([H:8])[H:9])[H:7]>>[O+:1](=[C-:2][H:7])[C:3]([C:4]([C:5](=[O:6])[H:12])([H:10])[H:11])([H:8])[H:9]"
O       -1.03099026      -0.63971014      -1.04987526
C       -1.85721466      -1.15466591      -0.22226810
C       -0.44598490      -0.40327505       0.59517591
C        0.48338236       0.74186730       0.22310569
C        1.66366553       0.32030013      -0.62141767
O        2.13090621      -0.78264846      -0.60888294
H       -2.83098552      -0.58836204      -0.24905471
H        0.07962386      -1.28554437       0.93859882
H       -1.14504891      -0.03364906       1.35741819
H       -0.05736874       1.55649469      -0.26086721
H        0.90127691       1.15371415       1.15044978
H        2.10873813       1.11547876      -1.25238248
12
Frame=4 idx=003034 GeodesicLength=0.1686885203325165 rxn_smarts="[O:1]=[C:2]([C:3]([C:4]([C:5](=[O:6])[H:12])([H:10])[H:11])([H:8])[H:9])[H:7]>>[O+:1](=[C-:2][H:7])[C:3]([C:4]([C:5](=[O:6])[H:12])([H:10])[H:11])([H:8])[H:9]"
O       -1.05657449      -0.59507237      -1.05532533
C       -1.84144877      -1.17173510      -0.23348912
C       -0.45202237      -0.38636485       0.59207303
C        0.49214060       0.74760338       0.22581724
C        1.66612496       0.31447738      -0.62097251
O        2.10618628      -0.79970217      -0.63083461
H       -2.84639601      -0.66526500      -0.24230891
H        0.06968439      -1.26701369       0.94816940
H       -1.14747554      -0.01298497       1.35539807
H       -0.03804087       1.56994230      -0.25718204
H        0.91519088       1.15471112       1.15276865
H        2.13263094       1.11140397      -1.23411385
12
Frame=5 idx=003034 GeodesicLength=0.21052224639321682 rxn_smarts="[O:1]=[C:2]([C:3]([C:4]([C:5](=[O:6])[H:12])([H:10])[H:11])([H:8])[H:9])[H:7]>>[O+:1](=[C-:2][H:7])[C:3]([C:4]([C:5](=[O:6])[H:12])([H:10])[H:11])([H:8])[H:9]"
O       -1.08431598      -0.54852783      -1.05871611
C       -1.82394817      -1.18751802      -0.24625972
C       -0.45832493      -0.36894228       0.58974339
C        0.50081441       0.75330740       0.22891487
C        1.66760826       0.30808507      -0.62092877
O        2.07974449      -0.81639369      -0.65332316
H       -2.85710409      -0.74486036      -0.23760835
H        0.05929084      -1.24791359       0.95850344
H       -1.15054709       0.00835980       1.35369972
H       -0.01843366       1.58362319      -0.25271304
H        0.92967648       1.15526697       1.15530602
H        2.15553944       1.10551333      -1.21661829
12
Frame=6 idx=003034 GeodesicLength=0.2524836979877183 rxn_smarts="[O:1]=[C:2]([C:3]([C:4]([C:5](=[O:6])[H:12])([H:10])[H:11])([H:8])[H:9])[H:7]>>[O+:1](=[C-:2][H:7])[C:3]([C:4]([C:5](=[O:6])[H:12])([H:10])[H:11])([H:8])[H:9]"
O       -1.11452889      -0.49997480      -1.05981879
C       -1.80465936      -1.20174546      -0.26085314
C       -0.46487627      -0.35111527       0.58811333
C        0.50930884       0.75891976       0.23231177
C        1.66807564       0.30107153      -0.62116307
O        2.05189145      -0.83262982      -0.67563888
H       -2.86246897      -0.82668656      -0.23474032
H        0.04835708      -1.22846569       0.96931245
H       -1.15407473       0.03014858       1.35241779
H        0.00138490       1.59737108      -0.24766425
H        0.94447884       1.15546727       1.15793934
H        2.17711148       1.09763938      -1.20021623
12
Frame=7 idx=003034 GeodesicLength=0.2945244916613452 rxn_smarts="[O:1]=[C:2]([C:3]([C:4]([C:5](=[O:6])[H:12])([H:10])[H:11])([H:8])[H:9])[H:7]>>[O+:1](=[C-:2][H:7])[C:3]([C:4]([C:5](=[O:6])[H:12])([H:10])[H:11])([H:8])[H:9]"
O       -1.14690091      -0.45061784      -1.05813797
C       -1.78397304      -1.21397327      -0.27679785
C       -0.47159078      -0.33308069       0.58753803
C        0.51745719       0.76433034       0.23590796
C        1.66729758       0.29351875      -0.62201512
O        2.02273545      -0.84827775      -0.69785919
H       -2.86231230      -0.90945620      -0.23496265
H        0.03709512      -1.20894726       0.98067845
H       -1.15770520       0.05214781       1.35223033
H        0.02090800       1.61082212      -0.24226041
H        0.95955970       1.15543781       1.16042879
H        2.19742920       1.08809618      -1.18475037
12
Frame=8 idx=003034 GeodesicLength=0.3366635045002194 rxn_smarts="[O:1]=[C:2]([C:3]([C:4]([C:5](=[O:6])[H:12])([H:10])[H:11])([H:8])[H:9])[H:7]>>[O+:1](=[C-:2][H:7])[C:3]([C:4]([C:5](=[O:6])[H:12])([H:10])[H:11])([H:8])[H:9]"
O       -1.18061371      -0.40183587      -1.05323855
C       -1.76212346      -1.22391669      -0.29347213
C       -0.47836271      -0.31493968       0.58841674
C        0.52517554       0.76950109       0.23976467
C        1.66520627       0.28558112      -0.62334545
O        1.99166833      -0.86332420      -0.72058311
H       -2.85643858      -0.99198432      -0.23978081
H        0.02567005      -1.18949158       0.99281548
H       -1.16110349       0.07430591       1.35365293
H        0.03981825       1.62367990      -0.23661226
H        0.97486778       1.15537465       1.16266995
H        2.21623573       1.07704968      -1.17028746
12
Frame=9 idx=003034 GeodesicLength=0.37923358901016585 rxn_smarts="[O:1]=[C:2]([C:3]([C:4]([C:5](=[O:6])[H:12])([H:10])[H:11])([H:8])[H:9])[H:7]>>[O+:1](=[C-:2][H:7])[C:3]([C:4]([C:5](=[O:6])[H:12])([H:10])[H:11])([H:8])[H:9]"
O       -1.21661058      -0.35297337      -1.04534109
C       -1.73921419      -1.23153059      -0.31142224
C       -0.48526262      -0.29680578       0.59024870
C        0.53234090       0.77439474       0.24353219
C        1.66182657       0.27715927      -0.62529792
O        1.95988861      -0.87770343      -0.74238698
H       -2.84478712      -1.07406750      -0.24751609
H        0.01396158      -1.17040091       1.00497177
H       -1.16409281       0.09629513       1.35655461
H        0.05803846       1.63589975      -0.23118842
H        0.99004156       1.15529890       1.16441884
H        2.23386964       1.06443379      -1.15657336
12
Frame=10 idx=003034 GeodesicLength=0.42242907137710606 rxn_smarts="[O:1]=[C:2]([C:3]([C:4]([C:5](=[O:6])[H:12])([H:10])[H:11])([H:8])[H:9])[H:7]>>[O+:1](=[C-:2][H:7])[C:3]([C:4]([C:5](=[O:6])[H:12])([H:10])[H:11])([H:8])[H:9]"
O       -1.25361310      -0.30554345      -1.03397280
C       -1.71530908      -1.23674639      -0.32972670
C       -0.49217222      -0.27862168       0.59375120
C        0.53899216       0.77905027       0.24749488
C        1.65734068       0.26837602      -0.62738625
O        1.92587467      -0.89157140      -0.76492746
H       -2.82736583      -1.15495915      -0.26056529
H        0.00222453      -1.15154253       1.01790174
H       -1.16654251       0.11841703       1.36151117
H        0.07537767       1.64725463      -0.22600445
H        1.00518905       1.15557531       1.16576830
H        2.25000398       1.05031135      -1.14384434
12
Frame=11 idx=003034 GeodesicLength=0.4664793453141373 rxn_smarts="[O:1]=[C:2]([C:3]([C:4]([C:5](=[O:6])[H:12])([H:10])[H:11])([H:8])[H:9])[H:7]>>[O+:1](=[C-:2][H:7])[C:3]([C:4]([C:5](=[O:6])[H:12])([H:10])[H:11])([H:8])[H:9]"
O       -1.29256272      -0.25916350      -1.01942474
C       -1.69068377      -1.23950044      -0.34892168
C       -0.49917134      -0.26056837       0.59829420
C        0.54497046       0.78341958       0.25122215
C        1.65165334       0.25920832      -0.62993382
O        1.89106744      -0.90479189      -0.78661207
H       -2.80419527      -1.23412108      -0.27694251
H       -0.00967138      -1.13329779       1.03068744
H       -1.16819876       0.14023709       1.36831646
H        0.09167848       1.65770447      -0.22152379
H        1.01995496       1.15611977       1.16641261
H        2.26515857       1.03475386      -1.13157425
12
Frame=12 idx=003034 GeodesicLength=0.5115261115085333 rxn_smarts="[O:1]=[C:2]([C:3]([C:4]([C:5](=[O:6])[H:12])([H:10])[H:11])([H:8])[H:9])[H:7]>>[O+:1](=[C-:2][H:7])[C:3]([C:4]([C:5](=[O:6])[H:12])([H:10])[H:11])([H:8])[H:9]"
O       -1.33175443      -0.21552457      -1.00141363
C       -1.66543388      -1.23987220      -0.36768452
C       -0.50606599      -0.24257276       0.60471027
C        0.55038990       0.78755497       0.25513519
C        1.64520098       0.24970016      -0.63209819
O        1.85365193      -0.91741976      -0.80936578
H       -2.77558598      -1.31078067      -0.29953958
H       -0.02136062      -1.11545122       1.04429718
H       -1.16894704       0.16219111       1.37751141
H        0.10681238       1.66698834      -0.21773728
H        1.03442523       1.15745478       1.16656547
H        2.27866751       1.01773182      -1.12038055
12
Frame=13 idx=003034 GeodesicLength=0.5574984649367565 rxn_smarts="[O:1]=[C:2]([C:3]([C:4]([C:5](=[O:6])[H:12])([H:10])[H:11])([H:8])[H:9])[H:7]>>[O+:1](=[C-:2][H:7])[C:3]([C:4]([C:5](=[O:6])[H:12])([H:10])[H:11])([H:8])[H:9]"
O       -1.37231970      -0.17408269      -0.98043852
C       -1.64000607      -1.23775165      -0.38681976
C       -0.51295653      -0.22493218       0.61205504
C        0.55503639       0.79132860       0.25870151
C        1.63775027       0.23987572      -0.63450005
O        1.81607117      -0.92929279      -0.83074687
H       -2.74175701      -1.38400863      -0.32543981
H       -0.03302295      -1.09854499       1.05740066
H       -1.16851320       0.18361309       1.38865336
H        0.12053367       1.67507580      -0.21498292
H        1.04819209       1.15921883       1.16587353
H        2.29099185       0.99950092      -1.10975618
12
Frame=14 idx=003034 GeodesicLength=0.6045125838335214 rxn_smarts="[O:1]=[C:2]([C:3]([C:4]([C:5](=[O:6])[H:12])([H:10])[H:11])([H:8])[H:9])[H:7]>>[O+:1](=[C-:2][H:7])[C:3]([C:4]([C:5](=[O:6])[H:12])([H:10])[H:11])([H:8])[H:9]"
O       -1.41346627      -0.13578475      -0.95650401
C       -1.61470072      -1.23342102      -0.40550324
C       -0.51971651      -0.20767808       0.62071602
C        0.55900495       0.79482304       0.26204177
C        1.62967708       0.22979585      -0.63669072
O        1.77743843      -0.94041809      -0.85185524
H       -2.70335638      -1.45338135      -0.35593716
H       -0.04440387      -1.08253096       1.07053875
H       -1.16678877       0.20467913       1.40197397
H        0.13278369       1.68185427      -0.21351770
H        1.06129419       1.16191106       1.16437636
H        2.30223418       0.98015089      -1.09963879
12
Frame=15 idx=003034 GeodesicLength=0.6524159675500893 rxn_smarts="[O:1]=[C:2]([C:3]([C:4]([C:5](=[O:6])[H:12])([H:10])[H:11])([H:8])[H:9])[H:7]>>[O+:1](=[C-:2][H:7])[C:3]([C:4]([C:5](=[O:6])[H:12])([H:10])[H:11])([H:8])[H:9]"
O       -1.45410131      -0.10166620      -0.92998686
C       -1.58987981      -1.22717895      -0.42270833
C       -0.52619667      -0.19082977       0.63086006
C        0.56235206       0.79805151       0.26530055
C        1.62123645       0.21944099      -0.63825991
O        1.73727775      -0.95065852      -0.87324805
H       -2.66102170      -1.51815678      -0.39196375
H       -0.05525414      -1.06730785       1.08399203
H       -1.16365204       0.22558306       1.41743855
H        0.14346437       1.68720353      -0.21331517
H        1.07368247       1.16571416       1.16216469
H        2.31209258       0.95980482      -1.09027381
12
Frame=16 idx=003034 GeodesicLength=0.7013082274986667 rxn_smarts="[O:1]=[C:2]([C:3]([C:4]([C:5](=[O:6])[H:12])([H:10])[H:11])([H:8])[H:9])[H:7]>>[O+:1](=[C-:2][H:7])[C:3]([C:4]([C:5](=[O:6])[H:12])([H:10])[H:11])([H:8])[H:9]"
O       -1.49540750      -0.07082198      -0.90104434
C       -1.56556406      -1.21901783      -0.43952490
C       -0.53253262      -0.17453254       0.64176037
C        0.56494643       0.80094747       0.26810785
C        1.61224187       0.20884917      -0.63974474
O        1.69727656      -0.96012846      -0.89338719
H       -2.61479124      -1.57806871      -0.43100201
H       -0.06581349      -1.05315416       1.09689618
H       -1.15910336       0.24585944       1.43455976
H        0.15249101       1.69120511      -0.21451703
H        1.08516111       1.17028529       1.15899812
H        2.32109528       0.93857719      -1.08110207
