15
Frame=0 idx=007806 GeodesicLength=0.0 rxn_smarts="[C:1]([C:2]1([C:3]([H:11])([H:12])[H:13])[C:4]([H:14])([H:15])[C:5](=[O:6])[O:7]1)([H:8])([H:9])[H:10]>>[C-:5]#[O+:6].[C:1]([C:2]1([C:3]([H:11])([H:12])[H:13])[C:4]([H:14])([H:15])[O:7]1)([H:8])([H:9])[H:10]"
C       -1.08673129       1.25296142      -0.49780837
C       -0.17599624       0.16180041       0.04957171
C       -0.94865399      -0.87977003       0.84525768
C        0.79329509      -0.38250850      -0.89621505
C        2.41885672      -0.64956912       0.34359849
O        3.34957470      -0.28918981       0.88641367
O        0.92636321       0.69880372       0.72671711
H       -0.51274529       1.97069265      -1.08424475
H       -1.89451947       0.84771720      -1.11185650
H       -1.52473425       1.78305286       0.34990261
H       -0.27932136      -1.65962799       1.21121867
H       -1.41329924      -0.40077612       1.70793239
H       -1.73410257      -1.34157032       0.24106782
H        0.85805784      -1.42744784      -1.16833920
H        1.22395611       0.31543152      -1.60321633
15
Frame=1 idx=007806 GeodesicLength=0.07371046514560892 rxn_smarts="[C:1]([C:2]1([C:3]([H:11])([H:12])[H:13])[C:4]([H:14])([H:15])[C:5](=[O:6])[O:7]1)([H:8])([H:9])[H:10]>>[C-:5]#[O+:6].[C:1]([C:2]1([C:3]([H:11])([H:12])[H:13])[C:4]([H:14])([H:15])[O:7]1)([H:8])([H:9])[H:10]"
C       -1.07510442       1.25706784      -0.49060613
C       -0.18458587       0.14871880       0.05313788
C       -0.97354127      -0.88612407       0.84020055
C        0.79619553      -0.39836858      -0.88098033
C        2.46103213      -0.59429732       0.31802048
O        3.38838865      -0.23455996       0.86871013
O        0.92510700       0.66234055       0.73916008
H       -0.48504196       1.97076321      -1.06598851
H       -1.88192664       0.86684617      -1.11542320
H       -1.51398946       1.78695944       0.35675616
H       -0.31633153      -1.67575771       1.20705496
H       -1.43859162      -0.40616099       1.70221013
H       -1.76019541      -1.33595224       0.22874192
H        0.85653714      -1.44637398      -1.14416984
H        1.20204772       0.28489882      -1.61682429
15
Frame=2 idx=007806 GeodesicLength=0.14515850591371338 rxn_smarts="[C:1]([C:2]1([C:3]([H:11])([H:12])[H:13])[C:4]([H:14])([H:15])[C:5](=[O:6])[O:7]1)([H:8])([H:9])[H:10]>>[C-:5]#[O+:6].[C:1]([C:2]1([C:3]([H:11])([H:12])[H:13])[C:4]([H:14])([H:15])[O:7]1)([H:8])([H:9])[H:10]"
C       -1.06203363       1.26119744      -0.48259262
C       -0.19287788       0.13510787       0.05684877
C       -0.99887335      -0.89263560       0.83453300
C        0.79909978      -0.41521930      -0.86553086
C        2.50123497      -0.53410365       0.28952809
O        3.42470356      -0.17713620       0.85019473
O        0.92401168       0.62378373       0.75226200
H       -0.45561442       1.97026678      -1.04665471
H       -1.86788086       0.88694726      -1.11822005
H       -1.50145439       1.79094377       0.36456630
H       -0.35453848      -1.69244762       1.20206276
H       -1.46432378      -0.41176127       1.69591078
H       -1.78655597      -1.32972877       0.21535884
H        0.85638000      -1.46661822      -1.11773557
H        1.17872277       0.25140377      -1.63053146
15
Frame=3 idx=007806 GeodesicLength=0.21423466850879502 rxn_smarts="[C:1]([C:2]1([C:3]([H:11])([H:12])[H:13])[C:4]([H:14])([H:15])[C:5](=[O:6])[O:7]1)([H:8])([H:9])[H:10]>>[C-:5]#[O+:6].[C:1]([C:2]1([C:3]([H:11])([H:12])[H:13])[C:4]([H:14])([H:15])[O:7]1)([H:8])([H:9])[H:10]"
C       -1.04745166       1.26532836      -0.47373863
C       -0.20081513       0.12099891       0.06062326
C       -1.02448973      -0.89926282       0.82820361
C        0.80203037      -0.43303327      -0.84999484
C        2.53847407      -0.46854505       0.25834322
O        3.45798539      -0.11737281       0.83077263
O        0.92311638       0.58316428       0.76582192
H       -0.42445865       1.96913547      -1.02628754
H       -1.85236349       0.90801186      -1.12008688
H       -1.48694625       1.79497172       0.37343088
H       -0.39376125      -1.70961854       1.19612098
H       -1.49026027      -0.41756723       1.68903841
H       -1.81301090      -1.32286840       0.20092399
H        0.85781502      -1.48813835      -1.08892623
H        1.15413609       0.21479588      -1.64424477
15
Frame=4 idx=007806 GeodesicLength=0.28096819811734375 rxn_smarts="[C:1]([C:2]1([C:3]([H:11])([H:12])[H:13])[C:4]([H:14])([H:15])[C:5](=[O:6])[O:7]1)([H:8])([H:9])[H:10]>>[C-:5]#[O+:6].[C:1]([C:2]1([C:3]([H:11])([H:12])[H:13])[C:4]([H:14])([H:15])[O:7]1)([H:8])([H:9])[H:10]"
C       -1.03138243       1.26937778      -0.46408530
C       -0.20826832       0.10654309       0.06444515
C       -1.05003878      -0.90590796       0.82127582
C        0.80501904      -0.45160096      -0.83455585
C        2.57189815      -0.39680191       0.22414784
O        3.48747283      -0.05698676       0.81124849
O        0.92258503       0.54064697       0.77961130
H       -0.39185792       1.96724887      -1.00522605
H       -1.83543149       0.92981341      -1.12088440
H       -1.47045439       1.79901142       0.38328927
H       -0.43353638      -1.72706614       1.18922210
H       -1.51609118      -0.42347406       1.68162802
H       -1.83917480      -1.31538891       0.18559561
H        0.86108069      -1.51065530      -1.05776089
H        1.12817995       0.17524046      -1.65795112
15
Frame=5 idx=007806 GeodesicLength=0.3451956689817768 rxn_smarts="[C:1]([C:2]1([C:3]([H:11])([H:12])[H:13])[C:4]([H:14])([H:15])[C:5](=[O:6])[O:7]1)([H:8])([H:9])[H:10]>>[C-:5]#[O+:6].[C:1]([C:2]1([C:3]([H:11])([H:12])[H:13])[C:4]([H:14])([H:15])[O:7]1)([H:8])([H:9])[H:10]"
C       -1.01410377       1.27326782      -0.45381363
C       -0.21516291       0.09198337       0.06812496
C       -1.07500211      -0.91243360       0.81384933
C        0.80815037      -0.47054847      -0.81950789
C        2.60009009      -0.31867688       0.18767216
O        3.51255663       0.00166399       0.79200411
O        0.92246273       0.49687922       0.79312569
H       -0.35839365       1.96460034      -0.98392160
H       -1.81743347       0.95199463      -1.12052011
H       -1.45214890       1.80298837       0.39402275
H       -0.47305638      -1.74443232       1.18141328
H       -1.54120046      -0.42937384       1.67385448
H       -1.86453571      -1.30742280       0.16969810
H        0.86639148      -1.53367212      -1.02456954
H        1.10138605       0.13318229      -1.67143211
15
Frame=6 idx=007806 GeodesicLength=0.40724973142015686 rxn_smarts="[C:1]([C:2]1([C:3]([H:11])([H:12])[H:13])[C:4]([H:14])([H:15])[C:5](=[O:6])[O:7]1)([H:8])([H:9])[H:10]>>[C-:5]#[O+:6].[C:1]([C:2]1([C:3]([H:11])([H:12])[H:13])[C:4]([H:14])([H:15])[O:7]1)([H:8])([H:9])[H:10]"
C       -0.99580440       1.27691843      -0.44307857
C       -0.22141512       0.07755293       0.07171409
C       -1.09906472      -0.91875211       0.80601574
C        0.81157992      -0.48953103      -0.80482984
C        2.62187039      -0.23392536       0.14976733
O        3.53318062       0.05646745       0.77242417
O        0.92279033       0.45239266       0.80625974
H       -0.32451531       1.96120089      -0.96277267
H       -1.79851676       0.97420814      -1.11907172
H       -1.43233750       1.80683895       0.40540782
H       -0.51183259      -1.76149002       1.17278817
H       -1.56543745      -0.43520367       1.66573980
H       -1.88869206      -1.29908884       0.15335461
H        0.87399808      -1.55667312      -0.98942239
H        1.07419658       0.08908470      -1.68429629
15
Frame=7 idx=007806 GeodesicLength=0.46732844613284025 rxn_smarts="[C:1]([C:2]1([C:3]([H:11])([H:12])[H:13])[C:4]([H:14])([H:15])[C:5](=[O:6])[O:7]1)([H:8])([H:9])[H:10]>>[C-:5]#[O+:6].[C:1]([C:2]1([C:3]([H:11])([H:12])[H:13])[C:4]([H:14])([H:15])[O:7]1)([H:8])([H:9])[H:10]"
C       -0.97681997       1.28024272      -0.43215269
C       -0.22700227       0.06348301       0.07511235
C       -1.12185855      -0.92476781       0.79790703
C        0.81549435      -0.50815156      -0.79054909
C        2.63585505      -0.14433713       0.11280607
O        3.54941154       0.10643703       0.75094732
O        0.92348299       0.40795674       0.81877524
H       -0.29079374       1.95712718      -0.94222184
H       -1.77900632       0.99603792      -1.11668486
H       -1.41140401       1.81047815       0.41714481
H       -0.54922492      -1.77796080       1.16346453
H       -1.58839710      -0.44089237       1.65745072
H       -1.91129809      -1.29053949       0.13687256
H        0.88358878      -1.57903357      -0.95312511
H        1.04797225       0.04392000      -1.69574703
15
Frame=8 idx=007806 GeodesicLength=0.5257652930731583 rxn_smarts="[C:1]([C:2]1([C:3]([H:11])([H:12])[H:13])[C:4]([H:14])([H:15])[C:5](=[O:6])[O:7]1)([H:8])([H:9])[H:10]>>[C-:5]#[O+:6].[C:1]([C:2]1([C:3]([H:11])([H:12])[H:13])[C:4]([H:14])([H:15])[O:7]1)([H:8])([H:9])[H:10]"
C       -0.95782669       1.28311851      -0.42146698
C       -0.23187950       0.05025100       0.07834632
C       -1.14279330      -0.93031787       0.78983925
C        0.82006670      -0.52566033      -0.77664303
C        2.64142237      -0.05216148       0.07899661
O        3.56172756       0.14910400       0.72676921
O        0.92452878       0.36484587       0.83042692
H       -0.25830688       1.95257763      -0.92292835
H       -1.75939504       1.01666647      -1.11375562
H       -1.39041520       1.81376391       0.42859237
H       -0.58416806      -1.79332585       1.15387325
H       -1.60973755      -0.44627729       1.64914814
H       -1.93165827      -1.28218246       0.12075264
H        0.89443230      -1.59975993      -0.91686987
H        1.02400278      -0.00064217      -1.70508086
15
Frame=9 idx=007806 GeodesicLength=0.583234490841559 rxn_smarts="[C:1]([C:2]1([C:3]([H:11])([H:12])[H:13])[C:4]([H:14])([H:15])[C:5](=[O:6])[O:7]1)([H:8])([H:9])[H:10]>>[C-:5]#[O+:6].[C:1]([C:2]1([C:3]([H:11])([H:12])[H:13])[C:4]([H:14])([H:15])[O:7]1)([H:8])([H:9])[H:10]"
C       -0.93851010       1.28557512      -0.41095604
C       -0.23611774       0.03749686       0.08133554
C       -1.16229983      -0.93547973       0.78175296
C        0.82520166      -0.54266003      -0.76306105
C        2.63887354       0.03715758       0.05110609
O        3.57061231       0.19120468       0.69744326
O        0.92584812       0.32245752       0.84131852
H       -0.22640273       1.94750943      -0.90458940
H       -1.73948657       1.03648694      -1.11029412
H       -1.36885541       1.81675268       0.43991351
H       -0.61737072      -1.80796511       1.14379294
H       -1.62951475      -0.45137148       1.64095295
H       -1.95051239      -1.27365200       0.10501502
H        0.90469844      -1.61943008      -0.88212321
H        1.00383616      -0.04408237      -1.71160696
15
Frame=10 idx=007806 GeodesicLength=0.6406009809926084 rxn_smarts="[C:1]([C:2]1([C:3]([H:11])([H:12])[H:13])[C:4]([H:14])([H:15])[C:5](=[O:6])[O:7]1)([H:8])([H:9])[H:10]>>[C-:5]#[O+:6].[C:1]([C:2]1([C:3]([H:11])([H:12])[H:13])[C:4]([H:14])([H:15])[O:7]1)([H:8])([H:9])[H:10]"
C       -0.91854980       1.28761430      -0.40046460
C       -0.23971331       0.02493705       0.08411659
C       -1.18074015      -0.94027510       0.77365272
C        0.83068040      -0.55975199      -0.74987172
C        2.62941695       0.12085854       0.02929640
O        3.57639910       0.23732609       0.66328956
O        0.92759709       0.28013987       0.85145691
H       -0.19453066       1.94186281      -0.88691562
H       -1.71899980       1.05580566      -1.10628211
H       -1.34630816       1.81946121       0.45132148
H       -0.64947550      -1.82213202       1.13313967
H       -1.64792862      -0.45611235       1.63293243
H       -1.96840875      -1.26463077       0.08965990
H        0.91299013      -1.63874857      -0.84978380
H        0.98757108      -0.08635474      -1.71554781
15
Frame=11 idx=007806 GeodesicLength=0.6984808102906355 rxn_smarts="[C:1]([C:2]1([C:3]([H:11])([H:12])[H:13])[C:4]([H:14])([H:15])[C:5](=[O:6])[O:7]1)([H:8])([H:9])[H:10]>>[C-:5]#[O+:6].[C:1]([C:2]1([C:3]([H:11])([H:12])[H:13])[C:4]([H:14])([H:15])[O:7]1)([H:8])([H:9])[H:10]"
C       -0.89807606       1.28922204      -0.39004438
C       -0.24264546       0.01262836       0.08666646
C       -1.19799682      -0.94464253       0.76564847
C        0.83636707      -0.57694390      -0.73718397
C        2.61417541       0.19874682       0.01273416
O        3.57902776       0.28712027       0.62608696
O        0.92986517       0.23811325       0.86057450
H       -0.16294151       1.93572561      -0.87003986
H       -1.69805811       1.07451310      -1.10172560
H       -1.32288572       1.82186696       0.46273579
H       -0.68032810      -1.83572065       1.12205413
H       -1.66485620      -0.46041640       1.62514708
H       -1.98524818      -1.25514015       0.07489639
H        0.91889537      -1.65785991      -0.82012198
H        0.97470539      -0.12721285      -1.71742815
15
Frame=12 idx=007806 GeodesicLength=0.7567247132380741 rxn_smarts="[C:1]([C:2]1([C:3]([H:11])([H:12])[H:13])[C:4]([H:14])([H:15])[C:5](=[O:6])[O:7]1)([H:8])([H:9])[H:10]>>[C-:5]#[O+:6].[C:1]([C:2]1([C:3]([H:11])([H:12])[H:13])[C:4]([H:14])([H:15])[O:7]1)([H:8])([H:9])[H:10]"
C       -0.87753378       1.29036431      -0.37996036
C       -0.24497174       0.00065641       0.08864590
C       -1.21377567      -0.94846783       0.75804641
C        0.84214996      -0.59407975      -0.72550358
C        2.59462878       0.26972753       0.00086043
O        3.57815536       0.33991003       0.58861798
O        0.93272341       0.19686628       0.86807879
H       -0.13220879       1.92916936      -0.85439932
H       -1.67728961       1.09235280      -1.09667723
H       -1.29886941       1.82395463       0.47398022
H       -0.70936337      -1.84847402       1.11084383
H       -1.67963527      -0.46408638       1.61808253
H       -2.00104833      -1.24526521       0.06142811
H        0.92182439      -1.67672717      -0.79416138
H        0.96521407      -0.16590101      -1.71788234
15
Frame=13 idx=007806 GeodesicLength=0.8156849701527012 rxn_smarts="[C:1]([C:2]1([C:3]([H:11])([H:12])[H:13])[C:4]([H:14])([H:15])[C:5](=[O:6])[O:7]1)([H:8])([H:9])[H:10]>>[C-:5]#[O+:6].[C:1]([C:2]1([C:3]([H:11])([H:12])[H:13])[C:4]([H:14])([H:15])[O:7]1)([H:8])([H:9])[H:10]"
C       -0.85696901       1.29107046      -0.37020317
C       -0.24671645      -0.01097909       0.09010225
C       -1.22817191      -0.95176713       0.75086142
C        0.84800538      -0.61118425      -0.71477189
C        2.57169629       0.33464442      -0.00720205
O        3.57392646       0.39501011       0.55168967
O        0.93616413       0.15645548       0.87402660
H       -0.10238351       1.92228332      -0.84000668
H       -1.65674129       1.10935753      -1.09117090
H       -1.27431123       1.82574266       0.48505611
H       -0.73671288      -1.86041020       1.09960776
H       -1.69244901      -0.46714683       1.61170345
H       -2.01586738      -1.23503963       0.04920526
H        0.92202507      -1.69545723      -0.77154660
H        0.95850533      -0.20257962      -1.71735124
15
Frame=14 idx=007806 GeodesicLength=0.8752078063952256 rxn_smarts="[C:1]([C:2]1([C:3]([H:11])([H:12])[H:13])[C:4]([H:14])([H:15])[C:5](=[O:6])[O:7]1)([H:8])([H:9])[H:10]>>[C-:5]#[O+:6].[C:1]([C:2]1([C:3]([H:11])([H:12])[H:13])[C:4]([H:14])([H:15])[O:7]1)([H:8])([H:9])[H:10]"
C       -0.83680547       1.29137579      -0.36096497
C       -0.24796252      -0.02209649       0.09097624
C       -1.24104644      -0.95452086       0.74422436
C        0.85396468      -0.62790480      -0.70501899
C        2.54626881       0.39411573      -0.01186919
O        3.56666379       0.45005854       0.51623369
O        0.94009153       0.11745158       0.87834990
H       -0.07398314       1.91525944      -0.82708525
H       -1.63682212       1.12529612      -1.08539068
H       -1.24975463       1.82723293       0.49572292
H       -0.76200723      -1.87134894       1.08862673
H       -1.70322575      -0.46959169       1.60610591
H       -2.02954395      -1.22472651       0.03841963
H        0.91983946      -1.71372170      -0.75217408
H        0.95432298      -0.23687913      -1.71615621
15
Frame=15 idx=007806 GeodesicLength=0.9351516568884318 rxn_smarts="[C:1]([C:2]1([C:3]([H:11])([H:12])[H:13])[C:4]([H:14])([H:15])[C:5](=[O:6])[O:7]1)([H:8])([H:9])[H:10]>>[C-:5]#[O+:6].[C:1]([C:2]1([C:3]([H:11])([H:12])[H:13])[C:4]([H:14])([H:15])[O:7]1)([H:8])([H:9])[H:10]"
C       -0.81728096       1.29132948      -0.35234760
C       -0.24879567      -0.03262155       0.09125493
C       -1.25241637      -0.95675305       0.73819328
C        0.86003724      -0.64405852      -0.69621178
C        2.51907503       0.44864794      -0.01348152
O        3.55676600       0.50376794       0.48265510
O        0.94440433       0.08010505       0.88111745
H       -0.04723152       1.90823123      -0.81569534
H       -1.61775395       1.14009737      -1.07948476
H       -1.22553461       1.82845050       0.50583960
H       -0.78515568      -1.88124524       1.07808009
H       -1.71203937      -0.47145145       1.60131709
H       -2.04207646      -1.21449367       0.02912265
H        0.91558614      -1.73133358      -0.73583494
H        0.95241585      -0.26867246      -1.71452425
15
Frame=16 idx=007806 GeodesicLength=0.9953968498310746 rxn_smarts="[C:1]([C:2]1([C:3]([H:11])([H:12])[H:13])[C:4]([H:14])([H:15])[C:5](=[O:6])[O:7]1)([H:8])([H:9])[H:10]>>[C-:5]#[O+:6].[C:1]([C:2]1([C:3]([H:11])([H:12])[H:13])[C:4]([H:14])([H:15])[O:7]1)([H:8])([H:9])[H:10]"
C       -0.79851591       1.29098936      -0.34438631
C       -0.24929518      -0.04252990       0.09097408
C       -1.26238303      -0.95850967       0.73276850
C        0.86621941      -0.65955929      -0.68825917
C        2.49067709       0.49869071      -0.01231194
O        3.54467694       0.55546355       0.45096521
O        0.94900483       0.04450095       0.88248328
H       -0.02217707       1.90129638      -0.80578188
H       -1.59962741       1.15377856      -1.07356949
H       -1.20186931       1.82942995       0.51533321
H       -0.80622400      -1.89012655       1.06806919
H       -1.71907295      -0.47278332       1.59729550
H       -2.05352136      -1.20445662       0.02124774
H        0.90957742      -1.74818246      -0.72222964
H        0.95253054      -0.29800165      -1.71259827
