14
Frame=0 idx=005257 GeodesicLength=0.0 rxn_smarts="[C:1]1([H:7])([H:8])[C@:2]2([H:9])[C@:3]3([H:10])[C:4]([H:11])([H:12])[C@@:5]1([H:13])[C@:6]23[H:14]>>[C:1]1([H:7])([H:8])[C@@:2]2([H:9])[C:4]([H:11])([H:12])[C@:5]1([H:13])[C@:6]2([C:3][H:10])[H:14]"
C       -1.21701225      -0.32358483       0.58115896
C       -0.19410614       0.78444043       0.45680246
C        1.37308321       0.80355134      -0.82258867
C        0.94417718      -0.77413068       0.41573403
C       -0.29240355      -0.89376338      -0.49337307
C       -0.06263920       0.57298072      -1.03123250
H       -2.20121776      -0.00037872       0.23435185
H       -1.27998547      -0.87638815       1.52159884
H       -0.10128952       1.71759846       1.00042169
H        1.55093462       1.86622404      -0.57204846
H        1.91092728      -1.12317089       0.08699898
H        0.76812907      -1.08151003       1.45013452
H       -0.49553814      -1.77578699      -1.09689737
H       -0.70305928       1.10391865      -1.73106125
14
Frame=1 idx=005257 GeodesicLength=0.03311024583515139 rxn_smarts="[C:1]1([H:7])([H:8])[C@:2]2([H:9])[C@:3]3([H:10])[C:4]([H:11])([H:12])[C@@:5]1([H:13])[C@:6]23[H:14]>>[C:1]1([H:7])([H:8])[C@@:2]2([H:9])[C:4]([H:11])([H:12])[C@:5]1([H:13])[C@:6]2([C:3][H:10])[H:14]"
C       -1.21839376      -0.32168109       0.58029981
C       -0.19198789       0.78493704       0.46120758
C        1.37061659       0.80580659      -0.80724663
C        0.94565177      -0.77273969       0.41754355
C       -0.29068400      -0.89396128      -0.49162831
C       -0.06155987       0.57173099      -1.02967585
H       -2.20169958       0.00004015       0.23000880
H       -1.28502896      -0.87352074       1.52104845
H       -0.11197280       1.71989904       1.00402962
H        1.55709150       1.87317493      -0.59010157
H        1.90733251      -1.12920960       0.08021646
H        0.77772223      -1.09091418       1.45001449
H       -0.49542135      -1.77528363      -1.09554715
H       -0.70166639       1.10172148      -1.73016926
14
Frame=2 idx=005257 GeodesicLength=0.06618856802181627 rxn_smarts="[C:1]1([H:7])([H:8])[C@:2]2([H:9])[C@:3]3([H:10])[C:4]([H:11])([H:12])[C@@:5]1([H:13])[C@:6]23[H:14]>>[C:1]1([H:7])([H:8])[C@@:2]2([H:9])[C:4]([H:11])([H:12])[C@:5]1([H:13])[C@:6]2([C:3][H:10])[H:14]"
C       -1.21984691      -0.31981789       0.57943414
C       -0.19003161       0.78546851       0.46574925
C        1.36797028       0.80827205      -0.79185159
C        0.94710707      -0.77125676       0.41941222
C       -0.28895317      -0.89408632      -0.48986528
C       -0.06052339       0.57060359      -1.02800944
H       -2.20224759       0.00036071       0.22563356
H       -1.29016355      -0.87075417       1.52044340
H       -0.12282821       1.72208553       1.00774386
H        1.56383209       1.87916797      -0.60860723
H        1.90375715      -1.13470124       0.07354162
H        0.78746100      -1.10029752       1.44978455
H       -0.49520389      -1.77468421      -1.09424474
H       -0.70032925       1.09963975      -1.72916432
14
Frame=3 idx=005257 GeodesicLength=0.09923983680435208 rxn_smarts="[C:1]1([H:7])([H:8])[C@:2]2([H:9])[C@:3]3([H:10])[C:4]([H:11])([H:12])[C@@:5]1([H:13])[C@:6]23[H:14]>>[C:1]1([H:7])([H:8])[C@@:2]2([H:9])[C:4]([H:11])([H:12])[C@:5]1([H:13])[C@:6]2([C:3][H:10])[H:14]"
C       -1.22137107      -0.31799450       0.57855284
C       -0.18825131       0.78602958       0.47042224
C        1.36512390       0.81094776      -0.77639589
C        0.94854377      -0.76966313       0.42133693
C       -0.28721043      -0.89412382      -0.48808098
C       -0.05954663       0.56960090      -1.02622362
H       -2.20286359       0.00057897       0.22122096
H       -1.29537821      -0.86808537       1.51976435
H       -0.13386282       1.72413873       1.01155965
H        1.57119051       1.88412059      -0.62754743
H        1.90021215      -1.13962384       0.06697644
H        0.79736117      -1.10963204       1.44942704
H       -0.49487849      -1.77396547      -1.09298150
H       -0.69906894       1.09767164      -1.72803104
14
Frame=4 idx=005257 GeodesicLength=0.1322699893144777 rxn_smarts="[C:1]1([H:7])([H:8])[C@:2]2([H:9])[C@:3]3([H:10])[C:4]([H:11])([H:12])[C@@:5]1([H:13])[C@:6]23[H:14]>>[C:1]1([H:7])([H:8])[C@@:2]2([H:9])[C:4]([H:11])([H:12])[C@:5]1([H:13])[C@:6]2([C:3][H:10])[H:14]"
C       -1.22296859      -0.31620779       0.57764865
C       -0.18666341       0.78662251       0.47521675
C        1.36205716       0.81383471      -0.76088073
C        0.94996614      -0.76793336       0.42331046
C       -0.28545368      -0.89405895      -0.48627151
C       -0.05864660       0.56872568      -1.02431280
H       -2.20355512       0.00068966       0.21677036
H       -1.30066474      -0.86550531       1.51899604
H       -0.14509038       1.72604972       1.01546816
H        1.57920187       1.88791849      -0.64686756
H        1.89671829      -1.14394849       0.06050770
H        0.80744267      -1.11888918       1.44891557
H       -0.49443535      -1.77310910      -1.09174370
H       -0.69790826       1.09581142      -1.72675740
14
Frame=5 idx=005257 GeodesicLength=0.1652805647839921 rxn_smarts="[C:1]1([H:7])([H:8])[C@:2]2([H:9])[C@:3]3([H:10])[C:4]([H:11])([H:12])[C@@:5]1([H:13])[C@:6]23[H:14]>>[C:1]1([H:7])([H:8])[C@@:2]2([H:9])[C:4]([H:11])([H:12])[C@:5]1([H:13])[C@:6]2([C:3][H:10])[H:14]"
C       -1.22466193      -0.31448644       0.57675049
C       -0.18529536       0.78727751       0.48015235
C        1.35876600       0.81700043      -0.74534412
C        0.95136314      -0.76606075       0.42533206
C       -0.28368615      -0.89391749      -0.48445510
C       -0.05783041       0.56800392      -1.02230860
H       -2.20434553       0.00065434       0.21231210
H       -1.30605099      -0.86306392       1.51819577
H       -0.15653016       1.72787932       1.01950937
H        1.58800455       1.89051573      -0.66657885
H        1.89328382      -1.14766461       0.05411231
H        0.81769400      -1.12805871       1.44828223
H       -0.49386398      -1.77217416      -1.09057131
H       -0.69684699       1.09409484      -1.72538869
14
Frame=6 idx=005257 GeodesicLength=0.19827944788739033 rxn_smarts="[C:1]1([H:7])([H:8])[C@:2]2([H:9])[C@:3]3([H:10])[C:4]([H:11])([H:12])[C@@:5]1([H:13])[C@:6]23[H:14]>>[C:1]1([H:7])([H:8])[C@@:2]2([H:9])[C:4]([H:11])([H:12])[C@:5]1([H:13])[C@:6]2([C:3][H:10])[H:14]"
C       -1.22645692      -0.31285279       0.57588909
C       -0.18416665       0.78804919       0.48522366
C        1.35520638       0.82048811      -0.72986967
C        0.95272692      -0.76402182       0.42740242
C       -0.28192139      -0.89373698      -0.48265272
C       -0.05713162       0.56745089      -1.02029091
H       -2.20524517       0.00042823       0.20786646
H       -1.31152528      -0.86078548       1.51745751
H       -0.16819730       1.72973137       1.02369208
H        1.59777828       1.89185819      -0.68645454
H        1.88990801      -1.15074881       0.04771906
H        0.82812925      -1.13713165       1.44754798
H       -0.49317976      -1.77125715      -1.08948731
H       -0.69592476       1.09252872      -1.72404311
14
Frame=7 idx=005257 GeodesicLength=0.23111906930038356 rxn_smarts="[C:1]1([H:7])([H:8])[C@:2]2([H:9])[C@:3]3([H:10])[C:4]([H:11])([H:12])[C@@:5]1([H:13])[C@:6]23[H:14]>>[C:1]1([H:7])([H:8])[C@@:2]2([H:9])[C:4]([H:11])([H:12])[C@:5]1([H:13])[C@:6]2([C:3][H:10])[H:14]"
C       -1.22829110      -0.31122037       0.57490707
C       -0.18316241       0.78869172       0.49048324
C        1.35155124       0.82410907      -0.71404037
C        0.95408917      -0.76191804       0.42956824
C       -0.28010799      -0.89334509      -0.48079060
C       -0.05641562       0.56703196      -1.01792304
H       -2.20615745       0.00022940       0.20328880
H       -1.31708780      -0.85861738       1.51635739
H       -0.17994858       1.73113994       1.02803917
H        1.60757333       1.89213128      -0.70753691
H        1.88656241      -1.15334944       0.04169024
H        0.83872543      -1.14609974       1.44666764
H       -0.49235064      -1.76991575      -1.08844898
H       -0.69498001       1.09113246      -1.72226188
14
Frame=8 idx=005257 GeodesicLength=0.264063076447141 rxn_smarts="[C:1]1([H:7])([H:8])[C@:2]2([H:9])[C@:3]3([H:10])[C:4]([H:11])([H:12])[C@@:5]1([H:13])[C@:6]23[H:14]>>[C:1]1([H:7])([H:8])[C@@:2]2([H:9])[C:4]([H:11])([H:12])[C@:5]1([H:13])[C@:6]2([C:3][H:10])[H:14]"
C       -1.23026264      -0.30971207       0.57399802
C       -0.18251994       0.78952178       0.49581562
C        1.34744845       0.82813273      -0.69844283
C        0.95541525      -0.75950263       0.43171265
C       -0.27831539      -0.89291700      -0.47895023
C       -0.05596045       0.56678613      -1.01563137
H       -2.20725068      -0.00029998       0.19878996
H       -1.32269553      -0.85659624       1.51541691
H       -0.19206636       1.73267620       1.03246190
H        1.61904570       1.89068049      -0.72817213
H        1.88332470      -1.15510743       0.03546832
H        0.84958312      -1.15482029       1.44557386
H       -0.49138689      -1.76867012      -1.08744295
H       -0.69435935       1.08982844      -1.72059773
14
Frame=9 idx=005257 GeodesicLength=0.2965542986163886 rxn_smarts="[C:1]1([H:7])([H:8])[C@:2]2([H:9])[C@:3]3([H:10])[C:4]([H:11])([H:12])[C@@:5]1([H:13])[C@:6]23[H:14]>>[C:1]1([H:7])([H:8])[C@@:2]2([H:9])[C:4]([H:11])([H:12])[C@:5]1([H:13])[C@:6]2([C:3][H:10])[H:14]"
C       -1.23226573      -0.30817352       0.57300567
C       -0.18195348       0.79031238       0.50132853
C        1.34335081       0.83227038      -0.68261390
C        0.95674128      -0.75707831       0.43395275
C       -0.27645294      -0.89234569      -0.47708713
C       -0.05539011       0.56669238      -1.01310261
H       -2.20832283      -0.00073427       0.19417887
H       -1.32843152      -0.85464006       1.51424470
H       -0.20419520       1.73391361       1.03712162
H        1.63004556       1.88826715      -0.74976195
H        1.88014666      -1.15652855       0.02951938
H        0.86058459      -1.16351880       1.44439381
H       -0.49028021      -1.76716456      -1.08651561
H       -0.69357687       1.08872788      -1.71866412
14
Frame=10 idx=005257 GeodesicLength=0.32903476338149884 rxn_smarts="[C:1]1([H:7])([H:8])[C@:2]2([H:9])[C@:3]3([H:10])[C:4]([H:11])([H:12])[C@@:5]1([H:13])[C@:6]23[H:14]>>[C:1]1([H:7])([H:8])[C@@:2]2([H:9])[C:4]([H:11])([H:12])[C@:5]1([H:13])[C@:6]2([C:3][H:10])[H:14]"
C       -1.23438360      -0.30674899       0.57202548
C       -0.18166280       0.79121125       0.50699870
C        1.33894337       0.83682392      -0.66677486
C        0.95805117      -0.75442996       0.43625723
C       -0.27460070      -0.89169113      -0.47523817
C       -0.05499278       0.56682187      -1.01051802
H       -2.20953777      -0.00140083       0.18954286
H       -1.33423553      -0.85290381       1.51308023
H       -0.21658105       1.73513393       1.04195883
H        1.64215175       1.88423421      -0.77163516
H        1.87706460      -1.15724795       0.02360761
H        0.87185173      -1.17203978       1.44309892
H       -0.48905732      -1.76560702      -1.08569817
H       -0.69301107       1.08784431      -1.71670550
14
Frame=11 idx=005257 GeodesicLength=0.36170806600604993 rxn_smarts="[C:1]1([H:7])([H:8])[C@:2]2([H:9])[C@:3]3([H:10])[C:4]([H:11])([H:12])[C@@:5]1([H:13])[C@:6]23[H:14]>>[C:1]1([H:7])([H:8])[C@@:2]2([H:9])[C:4]([H:11])([H:12])[C@:5]1([H:13])[C@:6]2([C:3][H:10])[H:14]"
C       -1.23662363      -0.30543352       0.57106217
C       -0.18178681       0.79218359       0.51277541
C        1.33404141       0.84177300      -0.65097856
C        0.95932873      -0.75140872       0.43851649
C       -0.27273099      -0.89086990      -0.47337076
C       -0.05489092       0.56713488      -1.00781967
H       -2.21090990      -0.00238348       0.18496921
H       -1.34006009      -0.85132900       1.51186358
H       -0.22946130       1.73626723       1.04687140
H        1.65600815       1.87808867      -0.79348826
H        1.87407617      -1.15703835       0.01758076
H        0.88341141      -1.18017908       1.44148112
H       -0.48759684      -1.76387180      -1.08488542
H       -0.69280540       1.08706649      -1.71457748
14
Frame=12 idx=005257 GeodesicLength=0.3940612775119588 rxn_smarts="[C:1]1([H:7])([H:8])[C@:2]2([H:9])[C@:3]3([H:10])[C:4]([H:11])([H:12])[C@@:5]1([H:13])[C@:6]23[H:14]>>[C:1]1([H:7])([H:8])[C@@:2]2([H:9])[C:4]([H:11])([H:12])[C@:5]1([H:13])[C@:6]2([C:3][H:10])[H:14]"
C       -1.23893171      -0.30414481       0.57004931
C       -0.18207627       0.79318654       0.51876314
C        1.32902778       0.84704372      -0.63499373
C        0.96060453      -0.74825261       0.44086735
C       -0.27079378      -0.88989004      -0.47150568
C       -0.05475432       0.56768094      -1.00493112
H       -2.21231426      -0.00340185       0.18030474
H       -1.34602030      -0.84989831       1.51049891
H       -0.24247465       1.73719892       1.05205602
H        1.66984503       1.87031857      -0.81613944
H        1.87120746      -1.15628344       0.01173433
H        0.89517091      -1.18820580       1.43974846
H       -0.48595594      -1.76190722      -1.08420417
H       -0.69253446       1.08655539      -1.71224813
14
Frame=13 idx=005257 GeodesicLength=0.4264086060402324 rxn_smarts="[C:1]1([H:7])([H:8])[C@:2]2([H:9])[C@:3]3([H:10])[C:4]([H:11])([H:12])[C@@:5]1([H:13])[C@:6]23[H:14]>>[C:1]1([H:7])([H:8])[C@@:2]2([H:9])[C:4]([H:11])([H:12])[C@:5]1([H:13])[C@:6]2([C:3][H:10])[H:14]"
C       -1.24135485      -0.30297133       0.56903794
C       -0.18270403       0.79429608       0.52491686
C        1.32363990       0.85280012      -0.61897626
C        0.96187508      -0.74479011       0.44324563
C       -0.26883904      -0.88876671      -0.46965424
C       -0.05483937       0.56848955      -1.00194173
H       -2.21386370      -0.00467466       0.17563017
H       -1.35203080      -0.84869362       1.50909318
H       -0.25585707       1.73808275       1.05744139
H        1.68492146       1.86040688      -0.83904640
H        1.86846195      -1.15471014       0.00587752
H        0.90725015      -1.19594746       1.43782501
H       -0.48411990      -1.75980598      -1.08363234
H       -0.69253977       1.08628463      -1.70981675
14
Frame=14 idx=005257 GeodesicLength=0.4587338231975824 rxn_smarts="[C:1]1([H:7])([H:8])[C@:2]2([H:9])[C@:3]3([H:10])[C:4]([H:11])([H:12])[C@@:5]1([H:13])[C@:6]23[H:14]>>[C:1]1([H:7])([H:8])[C@@:2]2([H:9])[C:4]([H:11])([H:12])[C@:5]1([H:13])[C@:6]2([C:3][H:10])[H:14]"
C       -1.24387718      -0.30188320       0.56800719
C       -0.18367381       0.79548755       0.53122589
C        1.31786295       0.85901899      -0.60290033
C        0.96314897      -0.74099061       0.44562951
C       -0.26684383      -0.88744591      -0.46780319
C       -0.05513948       0.56956141      -0.99880612
H       -2.21553621      -0.00617464       0.17094074
H       -1.35807478      -0.84767443       1.50758575
H       -0.26964550       1.73885028       1.06299838
H        1.70110178       1.84810521      -0.86217130
H        1.86586083      -1.15227288       0.00000192
H        0.91967488      -1.20335262       1.43563789
H       -0.48204964      -1.75747478      -1.08313927
H       -0.69280900       1.08624563      -1.70720705
14
Frame=15 idx=005257 GeodesicLength=0.4910509432094819 rxn_smarts="[C:1]1([H:7])([H:8])[C@:2]2([H:9])[C@:3]3([H:10])[C:4]([H:11])([H:12])[C@@:5]1([H:13])[C@:6]23[H:14]>>[C:1]1([H:7])([H:8])[C@@:2]2([H:9])[C:4]([H:11])([H:12])[C@:5]1([H:13])[C@:6]2([C:3][H:10])[H:14]"
C       -1.24650942      -0.30090833       0.56696780
C       -0.18500985       0.79678383       0.53773366
C        1.31168554       0.86581049      -0.58673874
C        0.96442468      -0.73682241       0.44803033
C       -0.26480103      -0.88591627      -0.46597227
C       -0.05566297       0.57095272      -0.99552027
H       -2.21734203      -0.00794404       0.16623608
H       -1.36416606      -0.84690462       1.50599258
H       -0.28388622       1.73952384       1.06879939
H        1.71846221       1.83313390      -0.88564496
H        1.86341271      -1.14891282      -0.00589038
H        0.93246047      -1.21039807       1.43321567
H       -0.47972132      -1.75490728      -1.08278690
H       -0.69334668       1.08650905      -1.70442197
14
Frame=16 idx=005257 GeodesicLength=0.5233735671810504 rxn_smarts="[C:1]1([H:7])([H:8])[C@:2]2([H:9])[C@:3]3([H:10])[C:4]([H:11])([H:12])[C@@:5]1([H:13])[C@:6]23[H:14]>>[C:1]1([H:7])([H:8])[C@@:2]2([H:9])[C:4]([H:11])([H:12])[C@:5]1([H:13])[C@:6]2([C:3][H:10])[H:14]"
C       -1.24925052      -0.30004835       0.56591612
C       -0.18673845       0.79819564       0.54444540
C        1.30507254       0.87322730      -0.57048245
C        0.96571136      -0.73224110       0.45043648
C       -0.26269727      -0.88414668      -0.46416447
C       -0.05643408       0.57269645      -0.99207073
H       -2.21928524      -0.00999801       0.16151841
H       -1.37029186      -0.84640269       1.50429489
H       -0.29863426       1.74009796       1.07485705
H        1.73704959       1.81516378      -0.90943285
H        1.86113737      -1.14455624      -0.01182312
H        0.94564486      -1.21703042       1.43052433
H       -0.47709702      -1.75206452      -1.08258346
H       -0.69418703       1.08710689      -1.70143560
