14
Frame=0 idx=008996 GeodesicLength=0.0 rxn_smarts="[C:1]([N:2]([C:3](=[O:4])[N:5](/[C:6](=[N:7]/[H:14])[H:13])[H:12])[H:11])([H:8])([H:9])[H:10]>>[C:1]([N:2](/[C:6](=[N:7]/[H:14])[H:13])[H:11])([H:8])([H:9])[H:10].[C:3](=[O:4])=[N:5][H:12]"
C        1.62117179      -0.57790380      -0.03787636
N        0.39122438       0.07927460       0.39818000
C        0.07708708       1.44314465      -0.19207893
O        0.82356781       2.37888872      -0.19585734
N       -1.12188496       1.09782902      -0.60023577
C       -1.03759433      -0.47541704      -0.05230067
N       -1.75610861      -0.86648011       0.94991408
H        1.61282563      -0.65886275      -1.12369505
H        1.67396252      -1.57027665       0.40715496
H        2.47833730       0.02053188       0.26841613
H        0.30882059       0.10550994       1.41467835
H       -1.82308225       1.72171841      -0.96583424
H       -0.89669340      -1.05481715      -0.97137235
H       -2.35163352      -1.64313970       0.70090714
14
Frame=1 idx=008996 GeodesicLength=0.5301286594773449 rxn_smarts="[C:1]([N:2]([C:3](=[O:4])[N:5](/[C:6](=[N:7]/[H:14])[H:13])[H:12])[H:11])([H:8])([H:9])[H:10]>>[C:1]([N:2](/[C:6](=[N:7]/[H:14])[H:13])[H:11])([H:8])([H:9])[H:10].[C:3](=[O:4])=[N:5][H:12]"
C        1.65856353      -0.59218389       0.00670996
N        0.41560253       0.08460589       0.39674161
C        0.07216950       1.45714785      -0.25903789
O        0.80295247       2.39394581      -0.41117220
N       -1.18344040       1.15190200      -0.48316656
C       -1.03385555      -0.49346802      -0.08285570
N       -1.82696106      -0.89581720       0.85342142
H        1.76243482      -0.80837824      -1.07504446
H        1.71559149      -1.58566235       0.45130435
H        2.54067378      -0.00493166       0.26204974
H        0.36625452       0.25839529       1.50365390
H       -1.95506347       1.77164618      -0.68395780
H       -0.90431248      -1.08937800      -1.03305375
H       -2.43060970      -1.64782367       0.55440737
14
Frame=2 idx=008996 GeodesicLength=1.0569652372638494 rxn_smarts="[C:1]([N:2]([C:3](=[O:4])[N:5](/[C:6](=[N:7]/[H:14])[H:13])[H:12])[H:11])([H:8])([H:9])[H:10]>>[C:1]([N:2](/[C:6](=[N:7]/[H:14])[H:13])[H:11])([H:8])([H:9])[H:10].[C:3](=[O:4])=[N:5][H:12]"
C        1.69316704      -0.60576680       0.03784332
N        0.43866093       0.08620870       0.39581147
C        0.05071371       1.46806043      -0.31784885
O        0.74387548       2.40063140      -0.61169076
N       -1.23098257       1.19433862      -0.36364758
C       -1.03630864      -0.51324913      -0.11473411
N       -1.90710903      -0.91754024       0.74663600
H        1.91625972      -0.95231047      -1.01191611
H        1.75886172      -1.59581724       0.49299412
H        2.59828858      -0.03233282       0.24510128
H        0.45692310       0.43909498       1.58989217
H       -2.04178404       1.80063749      -0.39293325
H       -0.91559327      -1.13925933      -1.08795814
H       -2.52497272      -1.63269559       0.39245042
14
Frame=3 idx=008996 GeodesicLength=1.5775146413880812 rxn_smarts="[C:1]([N:2]([C:3](=[O:4])[N:5](/[C:6](=[N:7]/[H:14])[H:13])[H:12])[H:11])([H:8])([H:9])[H:10]>>[C:1]([N:2](/[C:6](=[N:7]/[H:14])[H:13])[H:11])([H:8])([H:9])[H:10].[C:3](=[O:4])=[N:5][H:12]"
C        1.72418248      -0.62253216       0.05159845
N        0.46101467       0.08330958       0.39570692
C        0.01508686       1.47876339      -0.35987041
O        0.64780109       2.41384510      -0.76433987
N       -1.26668925       1.22136871      -0.25310091
C       -1.04551738      -0.53794269      -0.14245481
N       -1.99991925      -0.92429860       0.63294607
H        2.07634994      -1.08165484      -0.93958856
H        1.79649537      -1.60810486       0.52158386
H        2.65041509      -0.06855964       0.22417278
H        0.59711441       0.65404548       1.66677695
H       -2.09280816       1.80024331      -0.13039431
H       -0.93221019      -1.21264098      -1.12595103
H       -2.63131568      -1.59584181       0.22291486
14
Frame=4 idx=008996 GeodesicLength=2.085205374891975 rxn_smarts="[C:1]([N:2]([C:3](=[O:4])[N:5](/[C:6](=[N:7]/[H:14])[H:13])[H:12])[H:11])([H:8])([H:9])[H:10]>>[C:1]([N:2](/[C:6](=[N:7]/[H:14])[H:13])[H:11])([H:8])([H:9])[H:10].[C:3](=[O:4])=[N:5][H:12]"
C        1.75215901      -0.64610990       0.05120820
N        0.48318573       0.07630007       0.39292140
C       -0.03098366       1.49006513      -0.38711826
O        0.52529749       2.44036567      -0.86450422
N       -1.29588909       1.23432854      -0.15159770
C       -1.06214530      -0.56928144      -0.16382389
N       -2.10146674      -0.91648594       0.51433122
H        2.24517879      -1.18292141      -0.86090371
H        1.81357242      -1.63641891       0.52249138
H        2.69785996      -0.12239740       0.22797602
H        0.79497262       0.91485527       1.71743869
H       -2.12594756       1.77390624       0.09197260
H       -0.95842332      -1.30775009      -1.14353898
H       -2.73737034      -1.54845583       0.05314726
14
Frame=5 idx=008996 GeodesicLength=2.5759676067892903 rxn_smarts="[C:1]([N:2]([C:3](=[O:4])[N:5](/[C:6](=[N:7]/[H:14])[H:13])[H:12])[H:11])([H:8])([H:9])[H:10]>>[C:1]([N:2](/[C:6](=[N:7]/[H:14])[H:13])[H:11])([H:8])([H:9])[H:10].[C:3](=[O:4])=[N:5][H:12]"
C        1.78119133      -0.67490342       0.04542634
N        0.50514040       0.06319131       0.38357620
C       -0.08323087       1.50093866      -0.40201324
O        0.38532883       2.47190058      -0.93170108
N       -1.31973447       1.23579579      -0.05472539
C       -1.08811105      -0.60757912      -0.17692213
N       -2.20592983      -0.89400121       0.39759432
H        2.43702002      -1.21179576      -0.78853568
H        1.78152472      -1.71179315       0.43629387
H        2.74226101      -0.21355132       0.33984568
H        1.05372619       1.24057562       1.71609853
H       -2.15458344       1.72912783       0.26902978
H       -1.00227499      -1.41959419      -1.13631651
H       -2.83232787      -1.50831161      -0.09765069
14
Frame=6 idx=008996 GeodesicLength=3.04514516561372 rxn_smarts="[C:1]([N:2]([C:3](=[O:4])[N:5](/[C:6](=[N:7]/[H:14])[H:13])[H:12])[H:11])([H:8])([H:9])[H:10]>>[C:1]([N:2](/[C:6](=[N:7]/[H:14])[H:13])[H:11])([H:8])([H:9])[H:10].[C:3](=[O:4])=[N:5][H:12]"
C        1.81737422      -0.70698789       0.04164849
N        0.52671089       0.03411104       0.37178923
C       -0.13653168       1.51252221      -0.38249018
O        0.23170895       2.50503720      -0.95321706
N       -1.33591890       1.22444450       0.06060995
C       -1.12429853      -0.65392254      -0.18525495
N       -2.30984338      -0.86358637       0.27801754
H        2.63844580      -1.19006627      -0.69560019
H        1.73281916      -1.80528251       0.24094202
H        2.76077892      -0.36005288       0.55357723
H        1.38478211       1.64469094       1.63509522
H       -2.20040967       1.67149091       0.38036163
H       -1.06516279      -1.53498578      -1.10937331
H       -2.92045510      -1.47741258      -0.23610562
14
Frame=7 idx=008996 GeodesicLength=3.4813742986256067 rxn_smarts="[C:1]([N:2]([C:3](=[O:4])[N:5](/[C:6](=[N:7]/[H:14])[H:13])[H:12])[H:11])([H:8])([H:9])[H:10]>>[C:1]([N:2](/[C:6](=[N:7]/[H:14])[H:13])[H:11])([H:8])([H:9])[H:10].[C:3](=[O:4])=[N:5][H:12]"
C        1.85766434      -0.74306729       0.05816879
N        0.53735881      -0.02198465       0.36428003
C       -0.18702951       1.52556305      -0.30226393
O        0.07129954       2.53937247      -0.90003638
N       -1.35179919       1.19101707       0.19550315
C       -1.17415960      -0.70958586      -0.20798414
N       -2.41518256      -0.82973730       0.12887318
H        2.82076376      -1.16622424      -0.54621466
H        1.72229597      -1.85799990      -0.01281457
H        2.71668973      -0.56734291       0.80086158
H        1.79864411       2.14456975       1.41480280
H       -2.25155954       1.59575788       0.47537954
H       -1.13742650      -1.64525746      -1.07630802
H       -3.00755936      -1.45508061      -0.39224736
14
Frame=8 idx=008996 GeodesicLength=3.882074316592248 rxn_smarts="[C:1]([N:2]([C:3](=[O:4])[N:5](/[C:6](=[N:7]/[H:14])[H:13])[H:12])[H:11])([H:8])([H:9])[H:10]>>[C:1]([N:2](/[C:6](=[N:7]/[H:14])[H:13])[H:11])([H:8])([H:9])[H:10].[C:3](=[O:4])=[N:5][H:12]"
C        1.89512096      -0.78926975       0.10311011
N        0.53442549      -0.10645956       0.36019094
C       -0.22238782       1.53555638      -0.15443926
O       -0.05660715       2.58530325      -0.72817138
N       -1.37147441       1.13099338       0.32716352
C       -1.23154481      -0.76974475      -0.25359688
N       -2.51097753      -0.78328653      -0.05666696
H        2.96576221      -1.15271341      -0.35799362
H        1.77358545      -1.83864880      -0.28415841
H        2.59637425      -0.84909933       1.02850136
H        2.22264402       2.72641398       1.03406051
H       -2.30153226       1.50032701       0.55492722
H       -1.20334136      -1.74834771      -1.02054473
H       -3.09004702      -1.44102416      -0.55238241
14
Frame=9 idx=008996 GeodesicLength=4.284011920953396 rxn_smarts="[C:1]([N:2]([C:3](=[O:4])[N:5](/[C:6](=[N:7]/[H:14])[H:13])[H:12])[H:11])([H:8])([H:9])[H:10]>>[C:1]([N:2](/[C:6](=[N:7]/[H:14])[H:13])[H:11])([H:8])([H:9])[H:10].[C:3](=[O:4])=[N:5][H:12]"
C        1.91860588      -0.87113233       0.15573909
N        0.53369059      -0.20176858       0.34590884
C       -0.23554970       1.52669541       0.01035848
O       -0.10434333       2.64404159      -0.43615136
N       -1.38595921       1.05679094       0.42164809
C       -1.28297406      -0.83763454      -0.29248677
N       -2.57908847      -0.72116642      -0.25505103
H        3.07900028      -1.16596679      -0.16421315
H        1.88139700      -1.75618095      -0.52812737
H        2.40846468      -1.21368371       1.15567330
H        2.52384861       3.38724700       0.59621534
H       -2.33940289       1.40368081       0.58187540
H       -1.25058503      -1.83338989      -0.90474438
H       -3.16710434      -1.41753255      -0.68664447
14
Frame=10 idx=008996 GeodesicLength=4.740989895466104 rxn_smarts="[C:1]([N:2]([C:3](=[O:4])[N:5](/[C:6](=[N:7]/[H:14])[H:13])[H:12])[H:11])([H:8])([H:9])[H:10]>>[C:1]([N:2](/[C:6](=[N:7]/[H:14])[H:13])[H:11])([H:8])([H:9])[H:10].[C:3](=[O:4])=[N:5][H:12]"
C        1.91469105      -0.99913108       0.19755404
N        0.54332714      -0.29271917       0.33363455
C       -0.22561325       1.50247473       0.18164185
O       -0.07395516       2.67879693      -0.06696368
N       -1.39001887       0.99055767       0.47915992
C       -1.32655852      -0.91355242      -0.29289131
N       -2.60610444      -0.65650351      -0.44425957
H        3.16030735      -1.21896604       0.05994586
H        2.02608630      -1.63604410      -0.70661750
H        2.17478656      -1.63445675       1.12583133
H        2.67003464       4.10554261       0.13876175
H       -2.35951792       1.32506976       0.54408211
H       -1.27630832      -1.87970358      -0.74723188
H       -3.23115657      -1.37136505      -0.80264746
14
Frame=11 idx=008996 GeodesicLength=5.059871182894116 rxn_smarts="[C:1]([N:2]([C:3](=[O:4])[N:5](/[C:6](=[N:7]/[H:14])[H:13])[H:12])[H:11])([H:8])([H:9])[H:10]>>[C:1]([N:2](/[C:6](=[N:7]/[H:14])[H:13])[H:11])([H:8])([H:9])[H:10].[C:3](=[O:4])=[N:5][H:12]"
C        1.89054182      -1.14602135       0.17021401
N        0.56488477      -0.36454182       0.25405325
C       -0.18987828       1.48533761       0.33374905
O        0.00488068       2.68272690       0.32030331
N       -1.36921488       0.95619298       0.50240176
C       -1.36784022      -0.95461824      -0.29021037
N       -2.59337106      -0.60490041      -0.58779935
H        3.15741561      -1.36518842       0.39160989
H        2.24626217      -1.51335805      -0.80891634
H        1.91958830      -2.01014540       0.92770149
H        2.67316055       4.82275477      -0.26325883
H       -2.34502592       1.27811922       0.46578908
H       -1.32622184      -1.94623387      -0.55148522
H       -3.26518170      -1.32012393      -0.86415173
14
Frame=12 idx=008996 GeodesicLength=5.533189084097252 rxn_smarts="[C:1]([N:2]([C:3](=[O:4])[N:5](/[C:6](=[N:7]/[H:14])[H:13])[H:12])[H:11])([H:8])([H:9])[H:10]>>[C:1]([N:2](/[C:6](=[N:7]/[H:14])[H:13])[H:11])([H:8])([H:9])[H:10].[C:3](=[O:4])=[N:5][H:12]"
C        1.84204258      -1.25761164       0.18060409
N        0.57745206      -0.42279403       0.25107251
C       -0.14355808       1.48416079       0.46549408
O        0.09549768       2.65475670       0.66538672
N       -1.33813564       0.96972849       0.46186270
C       -1.37021272      -0.95596430      -0.25807749
N       -2.52501167      -0.60614271      -0.71501650
H        3.00235106      -1.51736577       0.58950258
H        2.40164746      -1.31014264      -0.77131536
H        1.74628079      -2.30498562       0.56427611
H        2.68155877       5.40769980      -0.54682233
H       -2.30477644       1.26982500       0.26758041
H       -1.44289527      -2.08440280      -0.28842499
H       -3.22224059      -1.32676128      -0.86612253
14
Frame=13 idx=008996 GeodesicLength=5.924505976601855 rxn_smarts="[C:1]([N:2]([C:3](=[O:4])[N:5](/[C:6](=[N:7]/[H:14])[H:13])[H:12])[H:11])([H:8])([H:9])[H:10]>>[C:1]([N:2](/[C:6](=[N:7]/[H:14])[H:13])[H:11])([H:8])([H:9])[H:10].[C:3](=[O:4])=[N:5][H:12]"
C        1.84169226      -1.28610135       0.07380411
N        0.65508679      -0.34212566       0.05478947
C       -0.13686038       1.51925317       0.58731948
O        0.12410474       2.61134939       1.03626895
N       -1.32071772       1.01997353       0.38646598
C       -1.33676588      -0.91636911      -0.27851430
N       -2.47302659      -0.64140684      -0.79758310
H        2.74792878      -1.71734057       0.80859747
H        2.65001091      -1.18491824      -0.67434250
H        1.62473298      -2.37833279       0.13781426
H        2.50577835       5.43629797      -0.65978098
H       -2.19737577       1.30183721      -0.06660461
H       -1.49771131      -2.06307524       0.16430432
H       -3.18687716      -1.35904147      -0.77253856
14
Frame=14 idx=008996 GeodesicLength=6.576651121998883 rxn_smarts="[C:1]([N:2]([C:3](=[O:4])[N:5](/[C:6](=[N:7]/[H:14])[H:13])[H:12])[H:11])([H:8])([H:9])[H:10]>>[C:1]([N:2](/[C:6](=[N:7]/[H:14])[H:13])[H:11])([H:8])([H:9])[H:10].[C:3](=[O:4])=[N:5][H:12]"
C        1.87434516      -0.95616733      -0.03014781
N        0.71247580      -0.03845628      -0.22046338
C       -0.26512322       1.57196940       0.87775578
O       -0.09800085       2.50119135       1.61536229
N       -1.37105603       1.11900344       0.38431855
C       -1.27373388      -0.81367645      -0.29211594
N       -2.41727234      -0.63484069      -0.83876737
H        2.48626514      -1.42783222       0.87799518
H        2.82230150      -0.59211501      -0.45372735
H        1.81002512      -2.00345898      -0.38266722
H        2.28627975       3.13245921      -0.82575103
H       -2.12417494       1.35387454      -0.33260193
H       -1.33955130      -1.84715723       0.32161877
H       -3.10277990      -1.36479375      -0.70080854
14
Frame=15 idx=008996 GeodesicLength=7.913297109285912 rxn_smarts="[C:1]([N:2]([C:3](=[O:4])[N:5](/[C:6](=[N:7]/[H:14])[H:13])[H:12])[H:11])([H:8])([H:9])[H:10]>>[C:1]([N:2](/[C:6](=[N:7]/[H:14])[H:13])[H:11])([H:8])([H:9])[H:10].[C:3](=[O:4])=[N:5][H:12]"
C        1.93344416      -0.77292710      -0.01573975
N        0.78181846       0.11791924      -0.27345161
C       -0.22034911       1.57218897       1.03792322
O       -0.06598158       2.18659115       2.04787740
N       -1.25269155       1.26492387       0.32423312
C       -1.19973477      -0.68827141      -0.26196559
N       -2.28343782      -0.52062042      -0.91291947
H        2.13108083      -1.45486951       0.86023051
H        2.89948587      -0.24849561      -0.01047916
H        2.07222340      -1.56861551      -0.76223401
H        1.24372305       1.50384336      -1.18255435
H       -1.80259423       1.45303594      -0.52211348
H       -1.24399393      -1.62473760       0.41701503
H       -2.99299279      -1.21996537      -0.74582184
14
Frame=16 idx=008996 GeodesicLength=9.747514176942664 rxn_smarts="[C:1]([N:2]([C:3](=[O:4])[N:5](/[C:6](=[N:7]/[H:14])[H:13])[H:12])[H:11])([H:8])([H:9])[H:10]>>[C:1]([N:2](/[C:6](=[N:7]/[H:14])[H:13])[H:11])([H:8])([H:9])[H:10].[C:3](=[O:4])=[N:5][H:12]"
C        2.01316587      -0.67180845      -0.06752167
N        0.73792427      -0.00132973      -0.25880518
C       -0.13461475       1.65995337       0.96559220
O        0.03651583       1.92681569       2.11354707
N       -1.14342916       1.34531538       0.22407035
C       -1.26153016      -0.65184323      -0.15603756
N       -2.27316329      -0.48697269      -0.91062307
H        1.85237170      -1.49733217       0.62436316
H        2.79459760      -0.04058863       0.36156884
H        2.40603761      -1.05289333      -1.01211011
H        0.75722728       0.66165030      -1.01903739
H       -1.52489034       1.42950889      -0.71792020
H       -1.25812288      -1.45453613       0.59034726
H       -3.00208957      -1.16593927      -0.73743370
