17
Frame=0 idx=010877 GeodesicLength=0.0 rxn_smarts="[C:1]([C@@:2]1([H:11])[O:3][C@@:4]2([H:12])[C:5]([H:13])([H:14])[C@@:6]12[C:7]([H:15])([H:16])[H:17])([H:8])([H:9])[H:10]>>[C:1]([C@@:2]1([H:11])[O+:3]=[C-:4][C:5]([H:13])([H:14])[C:6]1=[C:7]([H:16])[H:17])([H:8])([H:9])[H:10].[H:12][H:15]"
C       -2.12078835      -0.27613046       0.57362139
C       -0.64206615      -0.33665442       0.85594585
O       -0.09731744      -1.67021776       0.64011670
C        0.92495526      -1.07390599      -0.13151178
C        0.45093097      -0.67312237      -1.42260449
C        0.30667526       0.31734710      -0.14079691
C        1.02884373       1.49695525      -0.09648532
H       -2.47651564       0.74336762       0.73951755
H       -2.33989245      -0.55627834      -0.45711853
H       -2.66368647      -0.94933719       1.23808482
H       -0.41085954      -0.00988609       1.87392394
H        2.38757897      -0.31505958       0.27514705
H        1.17765618      -0.24553892      -2.10119294
H       -0.44887053      -1.08353611      -1.87448136
H        2.57004810       0.53394002       0.34134623
H        1.55534981       1.85453736      -0.96962867
H        0.79795822       2.24351991       0.65611643
17
Frame=1 idx=010877 GeodesicLength=0.12139525405788827 rxn_smarts="[C:1]([C@@:2]1([H:11])[O:3][C@@:4]2([H:12])[C:5]([H:13])([H:14])[C@@:6]12[C:7]([H:15])([H:16])[H:17])([H:8])([H:9])[H:10]>>[C:1]([C@@:2]1([H:11])[O+:3]=[C-:4][C:5]([H:13])([H:14])[C:6]1=[C:7]([H:16])[H:17])([H:8])([H:9])[H:10].[H:12][H:15]"
C       -2.12458835      -0.27107583       0.57140631
C       -0.64581161      -0.33321097       0.85180635
O       -0.09929672      -1.66793699       0.64431682
C        0.93105618      -1.09017774      -0.12452429
C        0.45586969      -0.67455153      -1.41458471
C        0.30252752       0.31811925      -0.14609084
C        1.02171534       1.50090757      -0.09347056
H       -2.47868760       0.74962173       0.73323742
H       -2.34656030      -0.55585957      -0.45741408
H       -2.66766733      -0.94081001       1.23924666
H       -0.41710296      -0.00789540       1.87096609
H        2.39795720      -0.33951053       0.27198298
H        1.19499280      -0.26472544      -2.09139948
H       -0.43571621      -1.08692596      -1.87975876
H        2.59631887       0.53562168       0.31827404
H        1.49875980       1.89869325      -0.97793464
H        0.81623369       2.22971647       0.68394068
17
Frame=2 idx=010877 GeodesicLength=0.24281929189610263 rxn_smarts="[C:1]([C@@:2]1([H:11])[O:3][C@@:4]2([H:12])[C:5]([H:13])([H:14])[C@@:6]12[C:7]([H:15])([H:16])[H:17])([H:8])([H:9])[H:10]>>[C:1]([C@@:2]1([H:11])[O+:3]=[C-:4][C:5]([H:13])([H:14])[C:6]1=[C:7]([H:16])[H:17])([H:8])([H:9])[H:10].[H:12][H:15]"
C       -2.12822104      -0.26579995       0.56906823
C       -0.64939609      -0.32965667       0.84757911
O       -0.10126648      -1.66555681       0.64852188
C        0.93708703      -1.10681414      -0.11745816
C        0.46127564      -0.67604814      -1.40647311
C        0.29848240       0.31898519      -0.15149661
C        1.01486197       1.50486164      -0.09105020
H       -2.48064884       0.75609108       0.72683892
H       -2.35304589      -0.55519793      -0.45781111
H       -2.67153101      -0.93200078       1.24027185
H       -0.42312796      -0.00563333       1.86784888
H        2.40842328      -0.36535705       0.26950755
H        1.21234384      -0.28363146      -2.08114790
H       -0.42185697      -1.09016304      -1.88510550
H        2.62287072       0.53726361       0.29490090
H        1.43787420       1.94344099      -0.98408671
H        0.83587521       2.21521680       0.71009198
17
Frame=3 idx=010877 GeodesicLength=0.36423360352878537 rxn_smarts="[C:1]([C@@:2]1([H:11])[O:3][C@@:4]2([H:12])[C:5]([H:13])([H:14])[C@@:6]12[C:7]([H:15])([H:16])[H:17])([H:8])([H:9])[H:10]>>[C:1]([C@@:2]1([H:11])[O+:3]=[C-:4][C:5]([H:13])([H:14])[C:6]1=[C:7]([H:16])[H:17])([H:8])([H:9])[H:10].[H:12][H:15]"
C       -2.13165123      -0.26028011       0.56664223
C       -0.65277360      -0.32597792       0.84323548
O       -0.10321482      -1.66307316       0.65268656
C        0.94302860      -1.12384885      -0.11039061
C        0.46713098      -0.67761418      -1.39832478
C        0.29455206       0.31993748      -0.15708679
C        1.00822408       1.50886843      -0.08940577
H       -2.48235170       0.76279907       0.72037820
H       -2.35935569      -0.55426672      -0.45826599
H       -2.67521556      -0.92288358       1.24121840
H       -0.42883228      -0.00306705       1.86452540
H        2.41897817      -0.39275266       0.26764352
H        1.22973546      -0.30228539      -2.07050276
H       -0.40731595      -1.09322876      -1.89056037
H        2.64964411       0.53894915       0.27154064
H        1.37277639       1.98854172      -0.98754009
H        0.85664098       2.20018253       0.73420673
17
Frame=4 idx=010877 GeodesicLength=0.48549105650196256 rxn_smarts="[C:1]([C@@:2]1([H:11])[O:3][C@@:4]2([H:12])[C:5]([H:13])([H:14])[C@@:6]12[C:7]([H:15])([H:16])[H:17])([H:8])([H:9])[H:10]>>[C:1]([C@@:2]1([H:11])[O+:3]=[C-:4][C:5]([H:13])([H:14])[C:6]1=[C:7]([H:16])[H:17])([H:8])([H:9])[H:10].[H:12][H:15]"
C       -2.13485972      -0.25449867       0.56414747
C       -0.65591698      -0.32215655       0.83875308
O       -0.10513852      -1.66048008       0.65679175
C        0.94885801      -1.14131257      -0.10337233
C        0.47342658      -0.67926007      -1.39018107
C        0.29074605       0.32097423      -0.16292394
C        1.00172074       1.51300027      -0.08870144
H       -2.48376701       0.76976969       0.71387272
H       -2.36549908      -0.55306264      -0.45875345
H       -2.67868429      -0.91343094       1.24213496
H       -0.43414933      -0.00015203       1.86096249
H        2.42961850      -0.42183310       0.26637452
H        1.24720537      -0.32073308      -2.05951425
H       -0.39210197      -1.09612670      -1.89615519
H        2.67663284       0.54077532       0.24826829
H        1.30357284       2.03376780      -0.98773295
H        0.87833598       2.18475911       0.75602935
17
Frame=5 idx=010877 GeodesicLength=0.6068974982290964 rxn_smarts="[C:1]([C@@:2]1([H:11])[O:3][C@@:4]2([H:12])[C:5]([H:13])([H:14])[C@@:6]12[C:7]([H:15])([H:16])[H:17])([H:8])([H:9])[H:10]>>[C:1]([C@@:2]1([H:11])[O+:3]=[C-:4][C:5]([H:13])([H:14])[C:6]1=[C:7]([H:16])[H:17])([H:8])([H:9])[H:10].[H:12][H:15]"
C       -2.13783059      -0.24843615       0.56159056
C       -0.65880584      -0.31816904       0.83409985
O       -0.10702079      -1.65774374       0.66081987
C        0.95454865      -1.15922045      -0.09644607
C        0.48013718      -0.68098953      -1.38205120
C        0.28705795       0.32208732      -0.16905824
C        0.99522019       1.51732532      -0.08910208
H       -2.48488638       0.77700972       0.70734240
H       -2.37148008      -0.55155149      -0.45925241
H       -2.68189568      -0.90362549       1.24302339
H       -0.43902661       0.00315761       1.85710143
H        2.44031135      -0.45282082       0.26557802
H        1.26476303      -0.33903047      -2.04819793
H       -0.37622784      -1.09885670      -1.90188574
H        2.70390176       0.54305859       0.22524201
H        1.23039681       2.07875852      -0.98414440
H        0.90083689       2.16904681       0.77534055
17
Frame=6 idx=010877 GeodesicLength=0.7281850551574147 rxn_smarts="[C:1]([C@@:2]1([H:11])[O:3][C@@:4]2([H:12])[C:5]([H:13])([H:14])[C@@:6]12[C:7]([H:15])([H:16])[H:17])([H:8])([H:9])[H:10]>>[C:1]([C@@:2]1([H:11])[O+:3]=[C-:4][C:5]([H:13])([H:14])[C:6]1=[C:7]([H:16])[H:17])([H:8])([H:9])[H:10].[H:12][H:15]"
C       -2.14058041      -0.24209899       0.55897604
C       -0.66145034      -0.31399281       0.82926340
O       -0.10887393      -1.65485438       0.66478857
C        0.96006565      -1.17758654      -0.08962349
C        0.48725966      -0.68281912      -1.37396032
C        0.28347465       0.32329091      -0.17554426
C        0.98858341       1.52195728      -0.09072568
H       -2.48572749       0.78452467       0.70076345
H       -2.37732510      -0.54978179      -0.45975744
H       -2.68485339      -0.89346095       1.24393130
H       -0.44345900       0.00692261       1.85293153
H        2.45103592      -0.48581771       0.26534492
H        1.28245206      -0.35722931      -2.03658227
H       -0.35968583      -1.10145510      -1.90777660
H        2.73147847       0.54596920       0.20212966
H        1.15362913       2.12324499      -0.97616467
H        0.92397653       2.15318702       0.79200587
17
Frame=7 idx=010877 GeodesicLength=0.849421214434187 rxn_smarts="[C:1]([C@@:2]1([H:11])[O:3][C@@:4]2([H:12])[C:5]([H:13])([H:14])[C@@:6]12[C:7]([H:15])([H:16])[H:17])([H:8])([H:9])[H:10]>>[C:1]([C@@:2]1([H:11])[O+:3]=[C-:4][C:5]([H:13])([H:14])[C:6]1=[C:7]([H:16])[H:17])([H:8])([H:9])[H:10].[H:12][H:15]"
C       -2.14313472      -0.23549649       0.55629471
C       -0.66387307      -0.30960158       0.82422384
O       -0.11069744      -1.65177402       0.66871884
C        0.96537285      -1.19640315      -0.08289833
C        0.49478121      -0.68475111      -1.36589392
C        0.27996114       0.32459666      -0.18241901
C        0.98162172       1.52699785      -0.09366499
H       -2.48633693       0.79229825       0.69410475
H       -2.38305776      -0.54778558      -0.46026548
H       -2.68756100      -0.88293874       1.24486497
H       -0.44746611       0.01120031       1.84841969
H        2.46173151      -0.52097923       0.26570561
H        1.30029617      -0.37537439      -2.02464527
H       -0.34246112      -1.10394471      -1.91381418
H        2.75946840       0.54983440       0.17859508
H        1.07370439       2.16686064      -0.96325573
H        0.94765075       2.13726089       0.80592942
17
Frame=8 idx=010877 GeodesicLength=0.9702708399715609 rxn_smarts="[C:1]([C@@:2]1([H:11])[O:3][C@@:4]2([H:12])[C:5]([H:13])([H:14])[C@@:6]12[C:7]([H:15])([H:16])[H:17])([H:8])([H:9])[H:10]>>[C:1]([C@@:2]1([H:11])[O+:3]=[C-:4][C:5]([H:13])([H:14])[C:6]1=[C:7]([H:16])[H:17])([H:8])([H:9])[H:10].[H:12][H:15]"
C       -2.14553730      -0.22866470       0.55352549
C       -0.66611846      -0.30497189       0.81899296
O       -0.11251304      -1.64851034       0.67268333
C        0.97042646      -1.21567833      -0.07622110
C        0.50270653      -0.68680230      -1.35785776
C        0.27648267       0.32604887      -0.18971340
C        0.97415821       1.53260947      -0.09794743
H       -2.48677409       0.80032668       0.68727839
H       -2.38870676      -0.54568005      -0.46081371
H       -2.69005616      -0.87208650       1.24586239
H       -0.45111098       0.01606434       1.84360705
H        2.47237958      -0.55837194       0.26684985
H        1.31834069      -0.39349993      -2.01238899
H       -0.32451980      -1.10638974      -1.92003298
H        2.78783013       0.55482256       0.15394400
H        0.99121534       2.20937632      -0.94487520
H        0.97179698       2.12140748       0.81710711
17
Frame=9 idx=010877 GeodesicLength=1.0917437459999761 rxn_smarts="[C:1]([C@@:2]1([H:11])[O:3][C@@:4]2([H:12])[C:5]([H:13])([H:14])[C@@:6]12[C:7]([H:15])([H:16])[H:17])([H:8])([H:9])[H:10]>>[C:1]([C@@:2]1([H:11])[O+:3]=[C-:4][C:5]([H:13])([H:14])[C:6]1=[C:7]([H:16])[H:17])([H:8])([H:9])[H:10].[H:12][H:15]"
C       -2.14782075      -0.22157166       0.55065175
C       -0.66821943      -0.30008962       0.81350342
O       -0.11430543      -1.64490934       0.67661477
C        0.97519302      -1.23534423      -0.06959425
C        0.51101992      -0.68890744      -1.34968591
C        0.27298721       0.32758336      -0.19738923
C        0.96590922       1.53873408      -0.10360338
H       -2.48711843       0.80852998       0.68034540
H       -2.39428127      -0.54330068      -0.46134185
H       -2.69234579      -0.86087017       1.24677467
H       -0.45443242       0.02148663       1.83831906
H        2.48286138      -0.59850951       0.26852533
H        1.33659899      -0.41161101      -1.99957834
H       -0.30582462      -1.10866107      -1.92622711
H        2.81686999       0.56196006       0.12809208
H        0.90659147       2.24996817      -0.92073344
H        0.99631693       2.10551243       0.82532703
17
Frame=10 idx=010877 GeodesicLength=1.2129433302257524 rxn_smarts="[C:1]([C@@:2]1([H:11])[O:3][C@@:4]2([H:12])[C:5]([H:13])([H:14])[C@@:6]12[C:7]([H:15])([H:16])[H:17])([H:8])([H:9])[H:10]>>[C:1]([C@@:2]1([H:11])[O+:3]=[C-:4][C:5]([H:13])([H:14])[C:6]1=[C:7]([H:16])[H:17])([H:8])([H:9])[H:10].[H:12][H:15]"
C       -2.15006324      -0.21432192       0.54765323
C       -0.67025964      -0.29495248       0.80782752
O       -0.11614729      -1.64107378       0.68065668
C        0.97959300      -1.25543696      -0.06290923
C        0.51972883      -0.69109461      -1.34142708
C        0.26942160       0.32930301      -0.20546218
C        0.95671460       1.54563190      -0.11051748
H       -2.48745571       0.81689527       0.67320245
H       -2.39983020      -0.54088350      -0.46195527
H       -2.69451687      -0.84943021       1.24768511
H       -0.45755500       0.02754147       1.83273601
H        2.49318407      -0.64138994       0.27116484
H        1.35511827      -0.42968431      -1.98626289
H       -0.28633360      -1.11089159      -1.93252523
H        2.84634230       0.57126882       0.09986534
H        0.82099900       2.28860886      -0.89043983
H        1.02105989       2.08990996       0.83070802
17
Frame=11 idx=010877 GeodesicLength=1.3341564381559305 rxn_smarts="[C:1]([C@@:2]1([H:11])[O:3][C@@:4]2([H:12])[C:5]([H:13])([H:14])[C@@:6]12[C:7]([H:15])([H:16])[H:17])([H:8])([H:9])[H:10]>>[C:1]([C@@:2]1([H:11])[O+:3]=[C-:4][C:5]([H:13])([H:14])[C:6]1=[C:7]([H:16])[H:17])([H:8])([H:9])[H:10].[H:12][H:15]"
C       -2.15234121      -0.20693160       0.54449073
C       -0.67232221      -0.28955792       0.80196499
O       -0.11807304      -1.63694096       0.68483817
C        0.98357649      -1.27592736      -0.05607860
C        0.52887076      -0.69331287      -1.33294041
C        0.26573116       0.33120017      -0.21386451
C        0.94633302       1.55332234      -0.11857085
H       -2.48790040       0.82536833       0.66579146
H       -2.40537244      -0.53843359      -0.46266955
H       -2.69665360      -0.83776300       1.24851429
H       -0.46061701       0.03421804       1.82683365
H        2.50324198      -0.68743603       0.27487681
H        1.37398296      -0.44767506      -1.97222460
H       -0.26593279      -1.11300910      -1.93882117
H        2.87642451       0.58346489       0.06840277
H        0.73507153       2.32485154      -0.85379054
H        1.04598032       2.07456217       0.83324736
17
Frame=12 idx=010877 GeodesicLength=1.4554403849704067 rxn_smarts="[C:1]([C@@:2]1([H:11])[O:3][C@@:4]2([H:12])[C:5]([H:13])([H:14])[C@@:6]12[C:7]([H:15])([H:16])[H:17])([H:8])([H:9])[H:10]>>[C:1]([C@@:2]1([H:11])[O+:3]=[C-:4][C:5]([H:13])([H:14])[C:6]1=[C:7]([H:16])[H:17])([H:8])([H:9])[H:10].[H:12][H:15]"
C       -2.15480130      -0.19950616       0.54106792
C       -0.67451030      -0.28394480       0.79599215
O       -0.12018871      -1.63264187       0.68934350
C        0.98705819      -1.29689595      -0.04889481
C        0.53844621      -0.69555856      -1.32415854
C        0.26188711       0.33334402      -0.22253474
C        0.93467764       1.56202566      -0.12757682
H       -2.48858730       0.83393468       0.65786527
H       -2.41104743      -0.53618706      -0.46364573
H       -2.69894761      -0.82598469       1.24925421
H       -0.46374193       0.04151641       1.82078474
H        2.51304835      -0.73702632       0.28013415
H        1.39325693      -0.46550703      -1.95734109
H       -0.24460949      -1.11506003      -1.94517802
H        2.90715042       0.59911734       0.03234468
H        0.64961264       2.35874640      -0.81055077
H        1.07129658       2.05962797       0.83309389
17
Frame=13 idx=010877 GeodesicLength=1.5770698752214594 rxn_smarts="[C:1]([C@@:2]1([H:11])[O:3][C@@:4]2([H:12])[C:5]([H:13])([H:14])[C@@:6]12[C:7]([H:15])([H:16])[H:17])([H:8])([H:9])[H:10]>>[C:1]([C@@:2]1([H:11])[O+:3]=[C-:4][C:5]([H:13])([H:14])[C:6]1=[C:7]([H:16])[H:17])([H:8])([H:9])[H:10].[H:12][H:15]"
C       -2.15731399      -0.19178781       0.53741363
C       -0.67687584      -0.27807650       0.78982951
O       -0.12252768      -1.62783279       0.69388707
C        0.98999041      -1.31823586      -0.04142856
C        0.54874215      -0.69770082      -1.31468575
C        0.25792980       0.33551564      -0.23121213
C        0.92127064       1.57132799      -0.13739638
H       -2.48942320       0.84259572       0.64975857
H       -2.41647036      -0.53350025      -0.46472281
H       -2.70134528      -0.81376876       1.24953850
H       -0.46718412       0.04931758       1.81428063
H        2.52218030      -0.79123912       0.28656416
H        1.41329103      -0.48317670      -1.94100024
H       -0.22178887      -1.11665016      -1.95112765
H        2.93866759       0.61962427      -0.00896088
H        0.56431179       2.38888733      -0.76059816
H        1.09654563       2.04470025       0.82986051
17
Frame=14 idx=010877 GeodesicLength=1.698814406931999 rxn_smarts="[C:1]([C@@:2]1([H:11])[O:3][C@@:4]2([H:12])[C:5]([H:13])([H:14])[C@@:6]12[C:7]([H:15])([H:16])[H:17])([H:8])([H:9])[H:10]>>[C:1]([C@@:2]1([H:11])[O+:3]=[C-:4][C:5]([H:13])([H:14])[C:6]1=[C:7]([H:16])[H:17])([H:8])([H:9])[H:10].[H:12][H:15]"
C       -2.16018438      -0.18410095       0.53339353
C       -0.67957239      -0.27208343       0.78368525
O       -0.12528612      -1.62294776       0.69886670
C        0.99222151      -1.34015268      -0.03330311
C        0.55963637      -0.69974509      -1.30454749
C        0.25379188       0.33793434      -0.23982600
C        0.90623500       1.58171783      -0.14758526
H       -2.49068487       0.85127443       0.64113836
H       -2.42203319      -0.53090790      -0.46628014
H       -2.70420008      -0.80163094       1.24942792
H       -0.47104419       0.05755464       1.80782378
H        2.53080654      -0.85059078       0.29510323
H        1.43403694      -0.50048335      -1.92320254
H       -0.19769322      -1.11796745      -1.95694884
H        2.97071247       0.64569265      -0.05761947
H        0.48138968       2.41595883      -0.70415254
H        1.12186804       2.03047760       0.82402663
17
Frame=15 idx=010877 GeodesicLength=1.820725019340986 rxn_smarts="[C:1]([C@@:2]1([H:11])[O:3][C@@:4]2([H:12])[C:5]([H:13])([H:14])[C@@:6]12[C:7]([H:15])([H:16])[H:17])([H:8])([H:9])[H:10]>>[C:1]([C@@:2]1([H:11])[O+:3]=[C-:4][C:5]([H:13])([H:14])[C:6]1=[C:7]([H:16])[H:17])([H:8])([H:9])[H:10].[H:12][H:15]"
C       -2.16342995      -0.17635545       0.52891315
C       -0.68272371      -0.26597912       0.77759480
O       -0.12861059      -1.61788615       0.70426562
C        0.99364009      -1.36266730      -0.02434462
C        0.57140278      -0.70160162      -1.29336752
C        0.24952169       0.34050546      -0.24808753
C        0.88932478       1.59300546      -0.15776668
H       -2.49239017       0.85997483       0.63192855
H       -2.42753758      -0.52823283      -0.46837959
H       -2.70765193      -0.78939222       1.24866520
H       -0.47564674       0.06612818       1.80139798
H        2.53854762      -0.91633275       0.30600183
H        1.45588351      -0.51738341      -1.90333463
H       -0.17179881      -1.11875048      -1.96236907
H        3.00309424       0.67884448      -0.11572380
H        0.40114313       2.43942389      -0.64101442
H        1.14723165       2.01669904       0.81562072
17
Frame=16 idx=010877 GeodesicLength=1.942855213169909 rxn_smarts="[C:1]([C@@:2]1([H:11])[O:3][C@@:4]2([H:12])[C:5]([H:13])([H:14])[C@@:6]12[C:7]([H:15])([H:16])[H:17])([H:8])([H:9])[H:10]>>[C:1]([C@@:2]1([H:11])[O+:3]=[C-:4][C:5]([H:13])([H:14])[C:6]1=[C:7]([H:16])[H:17])([H:8])([H:9])[H:10].[H:12][H:15]"
C       -2.16714919      -0.16854062       0.52380235
C       -0.68648376      -0.25982355       0.77166176
O       -0.13272249      -1.61270249       0.71020940
C        0.99410070      -1.38589258      -0.01423077
C        0.58431380      -0.70320959      -1.28074152
C        0.24520530       0.34318753      -0.25566209
C        0.87046527       1.60511866      -0.16742450
H       -2.49460749       0.86870429       0.62191397
H       -2.43288482      -0.52542128      -0.47124374
H       -2.71197495      -0.77702028       1.24695388
H       -0.48133877       0.07490943       1.79514630
H        2.54502573      -0.98997527       0.31975420
H        1.47924390      -0.53381549      -1.88073811
H       -0.14362068      -1.11881047      -1.96715588
H        3.03531438       0.72098112      -0.18611924
H        0.32432172       2.45906894      -0.57093917
H        1.17279137       2.00324167       0.80481317
