10
Frame=0 idx=005485 GeodesicLength=0.0 rxn_smarts="[O:1]=[C:2]([C@@:3]1([H:7])[C:4]([H:8])([H:9])[N:5]1[H:10])[H:6]>>[O-:1][C:2](=[C+:3][N:5]([C:4]([H:7])([H:8])[H:9])[H:10])[H:6]"
O        1.75614683       0.14351668       1.63780824
C        1.42220191      -0.23699211       0.53674919
C        0.61375020       0.63263894      -0.33460613
C       -1.05630195      -0.10366031      -0.62184405
N       -0.62002040       1.08414644       0.17024278
H        1.84148237      -1.15760540       0.08601612
H       -0.13068821      -0.43904129      -1.22067316
H       -1.74802637       0.17537009      -1.41127539
H       -1.37200423      -0.93591230      -0.00163152
H       -0.70654015       0.83753927       1.15921392
10
Frame=1 idx=005485 GeodesicLength=0.05949314337211997 rxn_smarts="[O:1]=[C:2]([C@@:3]1([H:7])[C:4]([H:8])([H:9])[N:5]1[H:10])[H:6]>>[O-:1][C:2](=[C+:3][N:5]([C:4]([H:7])([H:8])[H:9])[H:10])[H:6]"
O        1.75473097       0.14750514       1.64395319
C        1.42875940      -0.23788693       0.54245668
C        0.61340956       0.61613698      -0.33686110
C       -1.06361923      -0.10389169      -0.62263472
N       -0.61394594       1.07673543       0.16700703
H        1.86192491      -1.15444680       0.09620655
H       -0.12956691      -0.43253662      -1.24203122
H       -1.76335294       0.18386575      -1.40188379
H       -1.38239340      -0.93626065      -0.00379038
H       -0.70594642       0.84077939       1.15757776
10
Frame=2 idx=005485 GeodesicLength=0.11897539904681276 rxn_smarts="[O:1]=[C:2]([C@@:3]1([H:7])[C:4]([H:8])([H:9])[N:5]1[H:10])[H:6]>>[O-:1][C:2](=[C+:3][N:5]([C:4]([H:7])([H:8])[H:9])[H:10])[H:6]"
O        1.75336069       0.15160990       1.65004937
C        1.43535959      -0.23888750       0.54827299
C        0.61295848       0.59895744      -0.33901431
C       -1.07108273      -0.10421790      -0.62339230
N       -0.60782485       1.06905741       0.16369136
H        1.88273230      -1.15103437       0.10660413
H       -0.12850049      -0.42548677      -1.26384173
H       -1.77856179       0.19244457      -1.39231857
H       -1.39315323      -0.93655817      -0.00585125
H       -0.70528798       0.84411540       1.15580031
10
Frame=3 idx=005485 GeodesicLength=0.17843583429845297 rxn_smarts="[O:1]=[C:2]([C@@:3]1([H:7])[C:4]([H:8])([H:9])[N:5]1[H:10])[H:6]>>[O-:1][C:2](=[C+:3][N:5]([C:4]([H:7])([H:8])[H:9])[H:10])[H:6]"
O        1.75205826       0.15585589       1.65607875
C        1.44201908      -0.23997734       0.55418808
C        0.61238073       0.58106913      -0.34105454
C       -1.07869256      -0.10465016      -0.62411396
N       -0.60166082       1.06109251       0.16029983
H        1.90383772      -1.14738695       0.11722967
H       -0.12746984      -0.41782398      -1.28610534
H       -1.79363402       0.20109616      -1.38259047
H       -1.40428203      -0.93681336      -0.00780978
H       -0.70455651       0.84753810       1.15387777
10
Frame=4 idx=005485 GeodesicLength=0.23786203476339807 rxn_smarts="[O:1]=[C:2]([C@@:3]1([H:7])[C:4]([H:8])([H:9])[N:5]1[H:10])[H:6]>>[O-:1][C:2](=[C+:3][N:5]([C:4]([H:7])([H:8])[H:9])[H:10])[H:6]"
O        1.75085145       0.16027552       1.66201924
C        1.44876108      -0.24112887       0.56018620
C        0.61165869       0.56244486      -0.34297034
C       -1.08644622      -0.10520175      -0.62479718
N       -0.59545934       1.05281935       0.15683893
H        1.92514780      -1.14354024       0.12811005
H       -0.12644920      -0.40946858      -1.30882081
H       -1.80855015       0.20980610      -1.37271050
H       -1.41577113      -0.93703996      -0.00966366
H       -0.70374299       0.85103356       1.15180808
10
Frame=5 idx=005485 GeodesicLength=0.2972402311523903 rxn_smarts="[O:1]=[C:2]([C@@:3]1([H:7])[C:4]([H:8])([H:9])[N:5]1[H:10])[H:6]>>[O-:1][C:2](=[C+:3][N:5]([C:4]([H:7])([H:8])[H:9])[H:10])[H:6]"
O        1.74977091       0.16490627       1.66784490
C        1.45561513      -0.24230322       0.56624542
C        0.61077321       0.54306014      -0.34475008
C       -1.09433917      -0.10588762      -0.62543923
N       -0.58922777       1.04421508       0.15331653
H        1.94654844      -1.13954509       0.13927551
H       -0.12540589      -0.40033066      -1.33198085
H       -1.82328983       0.21855611      -1.36268997
H       -1.42760652      -0.93725492      -0.01141164
H       -0.70283851       0.85458390       1.14958942
10
Frame=6 idx=005485 GeodesicLength=0.3565548857698145 rxn_smarts="[O:1]=[C:2]([C@@:3]1([H:7])[C:4]([H:8])([H:9])[N:5]1[H:10])[H:6]>>[O-:1][C:2](=[C+:3][N:5]([C:4]([H:7])([H:8])[H:9])[H:10])[H:6]"
O        1.74885709       0.16979872       1.67351989
C        1.46262237      -0.24344118       0.57233225
C        0.60970256       0.52289907      -0.34638236
C       -1.10236252      -0.10672478      -0.62603750
N       -0.58297904       1.03525380       0.14974567
H        1.96788360      -1.13548302       0.15076752
H       -0.12429594      -0.39030510      -1.35557136
H       -1.83782930       0.22732321      -1.35254074
H       -1.43976311      -0.93748134      -0.01305647
H       -0.70183572       0.85816060       1.14722309
10
Frame=7 idx=005485 GeodesicLength=0.41578748573747804 rxn_smarts="[O:1]=[C:2]([C@@:3]1([H:7])[C:4]([H:8])([H:9])[N:5]1[H:10])[H:6]>>[O-:1][C:2](=[C+:3][N:5]([C:4]([H:7])([H:8])[H:9])[H:10])[H:6]"
O        1.74814640       0.17500181       1.67901130
C        1.46982477      -0.24447677       0.57840885
C        0.60842567       0.50194664      -0.34785516
C       -1.11050978      -0.10773203      -0.62658987
N       -0.57672217       1.02591221       0.14614023
H        1.98899962      -1.13143678       0.16261720
H       -0.12307144      -0.37928896      -1.37956427
H       -1.85214348       0.23607989      -1.34228168
H       -1.45222545      -0.93774383      -0.01460009
H       -0.70072414       0.86173783       1.14471348
10
Frame=8 idx=005485 GeodesicLength=0.47491429092440596 rxn_smarts="[O:1]=[C:2]([C@@:3]1([H:7])[C:4]([H:8])([H:9])[N:5]1[H:10])[H:6]>>[O-:1][C:2](=[C+:3][N:5]([C:4]([H:7])([H:8])[H:9])[H:10])[H:6]"
O        1.74770467       0.18059947       1.68426116
C        1.47731214      -0.24526535       0.58439493
C        0.60691833       0.48023878      -0.34916481
C       -1.11875051      -0.10893593      -0.62709376
N       -0.57048705       1.01616227       0.14252798
H        2.00956484      -1.12761116       0.17491575
H       -0.12165473      -0.36711540      -1.40394240
H       -1.86620905       0.24477226      -1.33191691
H       -1.46490481      -0.93810166      -0.01605677
H       -0.69949383       0.86525671       1.14207481
10
Frame=9 idx=005485 GeodesicLength=0.5339615728796363 rxn_smarts="[O:1]=[C:2]([C@@:3]1([H:7])[C:4]([H:8])([H:9])[N:5]1[H:10])[H:6]>>[O-:1][C:2](=[C+:3][N:5]([C:4]([H:7])([H:8])[H:9])[H:10])[H:6]"
O        1.74755753       0.18663404       1.68925097
C        1.48506655      -0.24584536       0.59031275
C        0.60515239       0.45764160      -0.35028464
C       -1.12712749      -0.11034215      -0.62755809
N       -0.56426086       1.00596901       0.13890038
H        2.02973774      -1.12394853       0.18763873
H       -0.12003218      -0.35374268      -1.42863973
H       -1.88002073       0.25343755      -1.32148885
H       -1.47792467      -0.93851877      -0.01742464
H       -0.69814827       0.86871528       1.13929311
10
Frame=10 idx=005485 GeodesicLength=0.5929225810095679 rxn_smarts="[O:1]=[C:2]([C@@:3]1([H:7])[C:4]([H:8])([H:9])[N:5]1[H:10])[H:6]>>[O-:1][C:2](=[C+:3][N:5]([C:4]([H:7])([H:8])[H:9])[H:10])[H:6]"
O        1.74772429       0.19316229       1.69393198
C        1.49306642      -0.24624334       0.59616558
C        0.60308493       0.43401162      -0.35118032
C       -1.13567348      -0.11195846      -0.62798975
N       -0.55803092       0.99528649       0.13525571
H        2.04964095      -1.12039469       0.20077192
H       -0.11817344      -0.33912180      -1.45356462
H       -1.89354933       0.26212235      -1.31102952
H       -1.49140106      -0.93895729      -0.01870822
H       -0.69668834       0.87209282       1.13634724
10
Frame=11 idx=005485 GeodesicLength=0.6517960594923662 rxn_smarts="[O:1]=[C:2]([C@@:3]1([H:7])[C:4]([H:8])([H:9])[N:5]1[H:10])[H:6]>>[O-:1][C:2](=[C+:3][N:5]([C:4]([H:7])([H:8])[H:9])[H:10])[H:6]"
O        1.74827916       0.20027643       1.69823774
C        1.50142701      -0.24628239       0.60184568
C        0.60068564       0.40937252      -0.35184442
C       -1.14436904      -0.11381222      -0.62839011
N       -0.55183065       0.98408101       0.13162485
H        2.06893316      -1.11717571       0.21440835
H       -0.11597108      -0.32308066      -1.47865942
H       -1.90678106       0.27077208      -1.30056237
H       -1.50526529      -0.93947421      -0.01992108
H       -0.69510785       0.87532315       1.13326078
10
Frame=12 idx=005485 GeodesicLength=0.7105929389023665 rxn_smarts="[O:1]=[C:2]([C@@:3]1([H:7])[C:4]([H:8])([H:9])[N:5]1[H:10])[H:6]>>[O-:1][C:2](=[C+:3][N:5]([C:4]([H:7])([H:8])[H:9])[H:10])[H:6]"
O        1.74931071       0.20810333       1.70207956
C        1.51016656      -0.24593341       0.60732370
C        0.59790683       0.38358860      -0.35223395
C       -1.15324946      -0.11591430      -0.62877887
N       -0.54566217       0.97228661       0.12802875
H        2.08762492      -1.11432515       0.22858994
H       -0.11335528      -0.30552616      -1.50381530
H       -1.91969523       0.27943294      -1.29013324
H       -1.51963121      -0.94004867      -0.02109807
H       -0.69341567       0.87833621       1.13003748
10
Frame=13 idx=005485 GeodesicLength=0.7693346171404699 rxn_smarts="[O:1]=[C:2]([C@@:3]1([H:7])[C:4]([H:8])([H:9])[N:5]1[H:10])[H:6]>>[O-:1][C:2](=[C+:3][N:5]([C:4]([H:7])([H:8])[H:9])[H:10])[H:6]"
O        1.75087681       0.21672898       1.70537948
C        1.51925528      -0.24524828       0.61260054
C        0.59467513       0.35643995      -0.35228129
C       -1.16238687      -0.11825661      -0.62917633
N       -0.53951665       0.95983166       0.12448074
H        2.10595097      -1.11171414       0.24327188
H       -0.11025464      -0.28647317      -1.52885848
H       -1.93225075       0.28820986      -1.27983409
H       -1.53472222      -0.94060114      -0.02225898
H       -0.69162707       0.88108288       1.12667654
10
Frame=14 idx=005485 GeodesicLength=0.8280352648335095 rxn_smarts="[O:1]=[C:2]([C@@:3]1([H:7])[C:4]([H:8])([H:9])[N:5]1[H:10])[H:6]>>[O-:1][C:2](=[C+:3][N:5]([C:4]([H:7])([H:8])[H:9])[H:10])[H:6]"
O        1.75308868       0.22630862       1.70800156
C        1.52869120      -0.24422884       0.61764302
C        0.59090173       0.32772004      -0.35189925
C       -1.17184023      -0.12083429      -0.62960440
N       -0.53340696       0.94662212       0.12101726
H        2.12400199      -1.10930555       0.25845973
H       -0.10655269      -0.26587794      -1.55360095
H       -1.94439729       0.29719541      -1.26975647
H       -1.55072676      -0.94106963      -0.02345286
H       -0.68975967       0.88347007       1.12319237
10
Frame=15 idx=005485 GeodesicLength=0.8867334759993228 rxn_smarts="[O:1]=[C:2]([C@@:3]1([H:7])[C:4]([H:8])([H:9])[N:5]1[H:10])[H:6]>>[O-:1][C:2](=[C+:3][N:5]([C:4]([H:7])([H:8])[H:9])[H:10])[H:6]"
O        1.75599140       0.23689541       1.70986096
C        1.53837339      -0.24304583       0.62249785
C        0.58646146       0.29706227      -0.35094789
C       -1.18174450      -0.12360417      -0.63009024
N       -0.52731777       0.93255631       0.11765715
H        2.14232256      -1.10671843       0.27395904
H       -0.10212422      -0.24393004      -1.57774976
H       -1.95606214       0.30659255      -1.26007054
H       -1.56805015      -0.94126756      -0.02470256
H       -0.68785003       0.88545949       1.11958598
10
Frame=16 idx=005485 GeodesicLength=0.9454563519325384 rxn_smarts="[O:1]=[C:2]([C@@:3]1([H:7])[C:4]([H:8])([H:9])[N:5]1[H:10])[H:6]>>[O-:1][C:2](=[C+:3][N:5]([C:4]([H:7])([H:8])[H:9])[H:10])[H:6]"
O        1.75971352       0.24865837       1.71078280
C        1.54824510      -0.24177985       0.62715652
C        0.58120562       0.26413637      -0.34925670
C       -1.19220470      -0.12653355      -0.63066496
N       -0.52126393       0.91750324       0.11445937
H        2.16119095      -1.10373270       0.28964871
H       -0.09676328      -0.22072490      -1.60100512
H       -1.96715612       0.31657919      -1.25093276
H       -1.58702708      -0.94104919      -0.02607747
H       -0.68594007       0.88694303       1.11588961
