8
Frame=0 idx=001253 GeodesicLength=0.0 rxn_smarts="[O:1]=[C:2]([C:3]#[C:4][H:7])[C:5]#[C:6][H:8]>>[O:1]=[C:2]([C:3](=[C:4])[H:7])[C:5]#[C:6][H:8]"
O        0.30710714      -1.82811210      -0.50012072
C        0.14520065      -0.67818285      -0.18505195
C        1.26688829       0.22532214       0.04969024
C        2.21307420       1.01929877       0.25533995
C       -1.15121316      -0.05642134      -0.00258246
C       -2.21309063       0.47335470       0.15123442
H        2.59600078      -0.09190125      -0.05217041
H       -3.16396724       0.93664192       0.28366092
8
Frame=1 idx=001253 GeodesicLength=0.03769408756828937 rxn_smarts="[O:1]=[C:2]([C:3]#[C:4][H:7])[C:5]#[C:6][H:8]>>[O:1]=[C:2]([C:3](=[C:4])[H:7])[C:5]#[C:6][H:8]"
O        0.29564906      -1.82917985      -0.51359018
C        0.14390583      -0.67898142      -0.19461567
C        1.27328062       0.19939249       0.09397685
C        2.19620806       1.03571612       0.21297781
C       -1.14833709      -0.04755472      -0.01347026
C       -2.21086170       0.47580506       0.15738322
H        2.61484190      -0.08888957      -0.03009593
H       -3.16468668       0.93369188       0.28743415
8
Frame=2 idx=001253 GeodesicLength=0.0761882925491627 rxn_smarts="[O:1]=[C:2]([C:3]#[C:4][H:7])[C:5]#[C:6][H:8]>>[O:1]=[C:2]([C:3](=[C:4])[H:7])[C:5]#[C:6][H:8]"
O        0.28549369      -1.83009595      -0.52701126
C        0.14326176      -0.67964097      -0.20456420
C        1.27884818       0.17882702       0.12059940
C        2.17649585       1.04766163       0.17457449
C       -1.14560493      -0.04217126      -0.01780612
C       -2.20909183       0.47649605       0.16161590
H        2.63351995      -0.08517393      -0.00005173
H       -3.16292268       0.93409743       0.29264353
8
Frame=3 idx=001253 GeodesicLength=0.11492860683557464 rxn_smarts="[O:1]=[C:2]([C:3]#[C:4][H:7])[C:5]#[C:6][H:8]>>[O:1]=[C:2]([C:3](=[C:4])[H:7])[C:5]#[C:6][H:8]"
O        0.27477570      -1.83079949      -0.53926367
C        0.14264858      -0.68178363      -0.20760787
C        1.28501791       0.15990835       0.14016113
C        2.15690996       1.05525670       0.14744879
C       -1.14248902      -0.03700542      -0.01772896
C       -2.20654032       0.47959278       0.16470029
H        2.65232807      -0.07827897       0.01904578
H       -3.16265089       0.93310968       0.29324450
8
Frame=4 idx=001253 GeodesicLength=0.15385248394710238 rxn_smarts="[O:1]=[C:2]([C:3]#[C:4][H:7])[C:5]#[C:6][H:8]>>[O:1]=[C:2]([C:3](=[C:4])[H:7])[C:5]#[C:6][H:8]"
O        0.26467361      -1.83188272      -0.55087081
C        0.14183039      -0.68456512      -0.21002496
C        1.29038598       0.14393781       0.15180616
C        2.13777882       1.06104564       0.11793399
C       -1.13980919      -0.03093810      -0.02423322
C       -2.20470565       0.48161505       0.16498085
H        2.67083486      -0.07147421       0.04838647
H       -3.16098881       0.93226165       0.30202152
8
Frame=5 idx=001253 GeodesicLength=0.19294647421644476 rxn_smarts="[O:1]=[C:2]([C:3]#[C:4][H:7])[C:5]#[C:6][H:8]>>[O:1]=[C:2]([C:3](=[C:4])[H:7])[C:5]#[C:6][H:8]"
O        0.25437969      -1.83270021      -0.56272049
C        0.14081857      -0.68775747      -0.21097519
C        1.29576899       0.12910519       0.15984356
C        2.11951462       1.06466741       0.08930478
C       -1.13710877      -0.02477634      -0.03013854
C       -2.20281291       0.48419781       0.16459637
H        2.68907288      -0.06341689       0.07891585
H       -3.15963306       0.93068049       0.31117366
8
Frame=6 idx=001253 GeodesicLength=0.23195642371409175 rxn_smarts="[O:1]=[C:2]([C:3]#[C:4][H:7])[C:5]#[C:6][H:8]>>[O:1]=[C:2]([C:3](=[C:4])[H:7])[C:5]#[C:6][H:8]"
O        0.24424296      -1.83378993      -0.57485906
C        0.13956481      -0.69179010      -0.21111873
C        1.30082944       0.11509910       0.16466824
C        2.10162428       1.06643907       0.05984542
C       -1.13460838      -0.01912808      -0.03692553
C       -2.20106031       0.48736917       0.16059323
H        2.70662732      -0.05339986       0.11328682
H       -3.15722013       0.92920064       0.32450962
8
Frame=7 idx=001253 GeodesicLength=0.2711206813699753 rxn_smarts="[O:1]=[C:2]([C:3]#[C:4][H:7])[C:5]#[C:6][H:8]>>[O:1]=[C:2]([C:3](=[C:4])[H:7])[C:5]#[C:6][H:8]"
O        0.23355434      -1.83492155      -0.58675365
C        0.13817972      -0.69587569      -0.21146288
C        1.30620573       0.10109319       0.16746757
C        2.08434108       1.06657567       0.03261653
C       -1.13194053      -0.01371565      -0.04167595
C       -2.19897236       0.49059922       0.15876571
H        2.72374286      -0.04150286       0.14616801
H       -3.15511084       0.92774767       0.33487466
8
Frame=8 idx=001253 GeodesicLength=0.3103173904603307 rxn_smarts="[O:1]=[C:2]([C:3]#[C:4][H:7])[C:5]#[C:6][H:8]>>[O:1]=[C:2]([C:3](=[C:4])[H:7])[C:5]#[C:6][H:8]"
O        0.22287054      -1.83661459      -0.59933494
C        0.13672066      -0.70101343      -0.21166297
C        1.31169847       0.08657841       0.16833105
C        2.06637836       1.06580892       0.00725680
C       -1.12938549      -0.01024927      -0.04366859
C       -2.19675499       0.49347822       0.15686693
H        2.74017634      -0.02666811       0.17829303
H       -3.15170389       0.92867985       0.34391870
8
Frame=9 idx=001253 GeodesicLength=0.3496034120566665 rxn_smarts="[O:1]=[C:2]([C:3]#[C:4][H:7])[C:5]#[C:6][H:8]>>[O:1]=[C:2]([C:3](=[C:4])[H:7])[C:5]#[C:6][H:8]"
O        0.21160703      -1.83856471      -0.61191285
C        0.13516097      -0.70639238      -0.21241163
C        1.31752019       0.07180036       0.16706914
C        2.04891714       1.06371354      -0.01761018
C       -1.12666085      -0.00695615      -0.04492341
C       -2.19405488       0.49674272       0.15598840
H        2.75577837      -0.00984169       0.21153809
H       -3.14826797       0.92949831       0.35226243
8
Frame=10 idx=001253 GeodesicLength=0.38897031270286414 rxn_smarts="[O:1]=[C:2]([C:3]#[C:4][H:7])[C:5]#[C:6][H:8]>>[O:1]=[C:2]([C:3](=[C:4])[H:7])[C:5]#[C:6][H:8]"
O        0.20039829      -1.84092153      -0.62620791
C        0.13364204      -0.71293316      -0.21338599
C        1.32359100       0.05631693       0.16368626
C        2.03073912       1.06091955      -0.04180614
C       -1.12400630      -0.00591026      -0.04322403
C       -2.19124786       0.49800631       0.15834125
H        2.77019153       0.01020666       0.24541943
H       -3.14330782       0.93431549       0.35717714
8
Frame=11 idx=001253 GeodesicLength=0.42837267617589514 rxn_smarts="[O:1]=[C:2]([C:3]#[C:4][H:7])[C:5]#[C:6][H:8]>>[O:1]=[C:2]([C:3](=[C:4])[H:7])[C:5]#[C:6][H:8]"
O        0.18837888      -1.84390089      -0.64006517
C        0.13203724      -0.71960921      -0.21577764
C        1.33004202       0.04043507       0.15762651
C        2.01354881       1.05653077      -0.06702775
C       -1.12104854      -0.00452117      -0.04250533
C       -2.18774767       0.50019413       0.16032968
H        2.78274973       0.03267192       0.28320682
H       -3.13796047       0.93819938       0.36421288
8
Frame=12 idx=001253 GeodesicLength=0.4678805733403176 rxn_smarts="[O:1]=[C:2]([C:3]#[C:4][H:7])[C:5]#[C:6][H:8]>>[O:1]=[C:2]([C:3](=[C:4])[H:7])[C:5]#[C:6][H:8]"
O        0.17614537      -1.84771370      -0.65525912
C        0.13051463      -0.72755769      -0.21891431
C        1.33690798       0.02350362       0.14893522
C        1.99589837       1.05118064      -0.09256473
C       -1.11796263      -0.00502579      -0.04021419
C       -2.18378535       0.50142534       0.16326733
H        2.79280863       0.05906846       0.32378569
H       -3.13052700       0.94511912       0.37096411
8
Frame=13 idx=001253 GeodesicLength=0.5075584372660455 rxn_smarts="[O:1]=[C:2]([C:3]#[C:4][H:7])[C:5]#[C:6][H:8]>>[O:1]=[C:2]([C:3](=[C:4])[H:7])[C:5]#[C:6][H:8]"
O        0.16380709      -1.85233531      -0.67296289
C        0.12921466      -0.73743648      -0.22234386
C        1.34440312       0.00504180       0.13739038
C        1.97704220       1.04511751      -0.11824080
C       -1.11468797      -0.00867384      -0.03433314
C       -2.17915524       0.50140669       0.16744096
H        2.79957113       0.09029817       0.36683865
H       -3.12019499       0.95658147       0.37621070
8
Frame=14 idx=001253 GeodesicLength=0.5473131617607747 rxn_smarts="[O:1]=[C:2]([C:3]#[C:4][H:7])[C:5]#[C:6][H:8]>>[O:1]=[C:2]([C:3](=[C:4])[H:7])[C:5]#[C:6][H:8]"
O        0.15100638      -1.85800760      -0.69244942
C        0.12822190      -0.74863379      -0.22761821
C        1.35272037      -0.01485036       0.12202471
C        1.95804044       1.03781771      -0.14530907
C       -1.11090820      -0.01443912      -0.02680047
C       -2.17353102       0.49940046       0.17543702
H        2.80131603       0.12658394       0.41477416
H       -3.10686589       0.97212875       0.37994128
8
Frame=15 idx=001253 GeodesicLength=0.5872470110575211 rxn_smarts="[O:1]=[C:2]([C:3]#[C:4][H:7])[C:5]#[C:6][H:8]>>[O:1]=[C:2]([C:3](=[C:4])[H:7])[C:5]#[C:6][H:8]"
O        0.13709524      -1.86381057      -0.71495517
C        0.12772039      -0.76153236      -0.23301494
C        1.36259107      -0.03679450       0.10296655
C        1.93824974       1.02977028      -0.17225067
C       -1.10609135      -0.02351241      -0.01193824
C       -2.16568731       0.49892562       0.18424502
H        2.79766526       0.16748074       0.46448902
H       -3.09154303       0.98947320       0.38045843
8
Frame=16 idx=001253 GeodesicLength=0.627222324634554 rxn_smarts="[O:1]=[C:2]([C:3]#[C:4][H:7])[C:5]#[C:6][H:8]>>[O:1]=[C:2]([C:3](=[C:4])[H:7])[C:5]#[C:6][H:8]"
O        0.12218066      -1.86962098      -0.73927779
C        0.12786567      -0.77539330      -0.23918161
C        1.37390112      -0.06017649       0.08033501
C        1.91830781       1.02099495      -0.19909429
C       -1.09991026      -0.03490909       0.00811983
C       -2.15539657       0.49915387       0.19517129
H        2.78708146       0.21186078       0.51594934
H       -3.07402989       1.00809026       0.37797823
