19
Frame=0 idx=007695 GeodesicLength=0.0 rxn_smarts="[C:1]([C:2]([C:3]([H:12])([H:13])[H:14])([C@@:4]1([H:15])[O:5][C@:6]1([C:7]([H:17])([H:18])[H:19])[H:16])[H:11])([H:8])([H:9])[H:10]>>[C:1]([C:2](=[C:3]([H:12])[H:13])[H:11])([H:8])([H:9])[H:10].[C:4]1([H:14])([H:15])[O:5][C@:6]1([C:7]([H:17])([H:18])[H:19])[H:16]"
C       -2.07570476      -1.10585529      -0.37739239
C       -1.13593300       0.05668473      -0.45691442
C       -1.45103816       1.28767389       0.18945311
C        0.50695300      -0.88181050       0.48968206
O        1.36752328      -1.31361907      -0.55257556
C        1.88514209      -0.39001575       0.39415476
C        2.23252691       0.98145720      -0.11234626
H       -2.90556608      -0.89244731      -1.05702828
H       -1.60418480      -2.03972635      -0.67956130
H       -2.48922443      -1.21314124       0.62565887
H       -0.52806830       0.09933995      -1.35607635
H       -2.25838509       1.31707191       0.90677671
H       -1.00886744       2.20903544      -0.15721416
H       -0.40402737       0.37103953       0.57448645
H        0.26516212      -1.65137845       1.22844723
H        2.62394469      -0.83149244       1.06268186
H        1.46947058       1.35746650      -0.79398673
H        3.18328526       0.95767026      -0.64776651
H        2.32699152       1.68204696       0.71952088
19
Frame=1 idx=007695 GeodesicLength=0.0997997726697266 rxn_smarts="[C:1]([C:2]([C:3]([H:12])([H:13])[H:14])([C@@:4]1([H:15])[O:5][C@:6]1([C:7]([H:17])([H:18])[H:19])[H:16])[H:11])([H:8])([H:9])[H:10]>>[C:1]([C:2](=[C:3]([H:12])[H:13])[H:11])([H:8])([H:9])[H:10].[C:4]1([H:14])([H:15])[O:5][C@:6]1([C:7]([H:17])([H:18])[H:19])[H:16]"
C       -2.07383525      -1.10365879      -0.39733369
C       -1.13614288       0.06281581      -0.45083571
C       -1.46350167       1.28381205       0.20787031
C        0.50900510      -0.87166392       0.50981021
O        1.36160626      -1.32515998      -0.53030134
C        1.88967220      -0.39062820       0.39971824
C        2.24327126       0.97090869      -0.12829057
H       -2.89572172      -0.89030319      -1.08646167
H       -1.59159070      -2.03170619      -0.70135493
H       -2.49996323      -1.22478701       0.59897418
H       -0.53467773       0.12615937      -1.35344258
H       -2.26911483       1.29566525       0.92839908
H       -1.05642670       2.21560980      -0.15442307
H       -0.39686305       0.38510714       0.61506088
H        0.26889399      -1.63308907       1.25744257
H        2.62909512      -0.82743763       1.07059439
H        1.47510542       1.34540707      -0.80494741
H        3.18757370       0.93208856      -0.67416489
H        2.35361468       1.68086023       0.69368599
19
Frame=2 idx=007695 GeodesicLength=0.19909174759053982 rxn_smarts="[C:1]([C:2]([C:3]([H:12])([H:13])[H:14])([C@@:4]1([H:15])[O:5][C@:6]1([C:7]([H:17])([H:18])[H:19])[H:16])[H:11])([H:8])([H:9])[H:10]>>[C:1]([C:2](=[C:3]([H:12])[H:13])[H:11])([H:8])([H:9])[H:10].[C:4]1([H:14])([H:15])[O:5][C@:6]1([C:7]([H:17])([H:18])[H:19])[H:16]"
C       -2.07145997      -1.10107122      -0.41750921
C       -1.13634879       0.06914027      -0.44539289
C       -1.47556915       1.27958478       0.22642054
C        0.51092986      -0.86106825       0.52998178
O        1.35545001      -1.33658839      -0.50743234
C        1.89399809      -0.39122408       0.40540755
C        2.25373329       0.95985222      -0.14438041
H       -2.88567051      -0.88757406      -1.11550893
H       -1.57854642      -2.02311356      -0.72352109
H       -2.50937840      -1.23626007       0.57198794
H       -0.54173552       0.15352149      -1.35119376
H       -2.27933882       1.27341867       0.94985582
H       -1.10551263       2.22114296      -0.15089333
H       -0.38915518       0.39994525       0.65616856
H        0.27257941      -1.61408019       1.28660132
H        2.63400815      -0.82319488       1.07874081
H        1.48078331       1.33275059      -0.81640205
H        3.19149676       0.90564908      -0.70013857
H        2.37973650       1.67916938       0.66720827
19
Frame=3 idx=007695 GeodesicLength=0.2980143479476247 rxn_smarts="[C:1]([C:2]([C:3]([H:12])([H:13])[H:14])([C@@:4]1([H:15])[O:5][C@:6]1([C:7]([H:17])([H:18])[H:19])[H:16])[H:11])([H:8])([H:9])[H:10]>>[C:1]([C:2](=[C:3]([H:12])[H:13])[H:11])([H:8])([H:9])[H:10].[C:4]1([H:14])([H:15])[O:5][C@:6]1([C:7]([H:17])([H:18])[H:19])[H:16]"
C       -2.06857945      -1.09809180      -0.43794070
C       -1.13655602       0.07567752      -0.44068462
C       -1.48717199       1.27495715       0.24507856
C        0.51269305      -0.84997078       0.55018968
O        1.34902391      -1.34787484      -0.48392894
C        1.89809352      -0.39178538       0.41123626
C        2.26389628       0.94827001      -0.16060640
H       -2.87547753      -0.88429931      -1.14416074
H       -1.56503551      -2.01393341      -0.74608830
H       -2.51742077      -1.24755020       0.54472239
H       -0.54928585       0.18145584      -1.34941584
H       -2.28894972       1.25027763       0.97113216
H       -1.15609461       2.22551576      -0.14651874
H       -0.38084442       0.41563295       0.69788630
H        0.27618446      -1.59429580       1.31590349
H        2.63865109      -0.81873723       1.08713839
H        1.48648067       1.31946653      -0.82835343
H        3.19504714       0.87832329      -0.72566478
H        2.40534574       1.67696208       0.64007525
19
Frame=4 idx=007695 GeodesicLength=0.396681256195874 rxn_smarts="[C:1]([C:2]([C:3]([H:12])([H:13])[H:14])([C@@:4]1([H:15])[O:5][C@:6]1([C:7]([H:17])([H:18])[H:19])[H:16])[H:11])([H:8])([H:9])[H:10]>>[C:1]([C:2](=[C:3]([H:12])[H:13])[H:11])([H:8])([H:9])[H:10].[C:4]1([H:14])([H:15])[O:5][C@:6]1([C:7]([H:17])([H:18])[H:19])[H:16]"
C       -2.06519655      -1.09472607      -0.45865596
C       -1.13677416       0.08245266      -0.43681083
C       -1.49823791       1.26989169       0.26382372
C        0.51425641      -0.83830778       0.57043304
O        1.34228818      -1.35898810      -0.45974756
C        1.90192990      -0.39229152       0.41721731
C        2.27374540       0.93614157      -0.17696829
H       -2.86520493      -0.88052876      -1.17242611
H       -1.55103440      -2.00415092      -0.76909076
H       -2.52405089      -1.25865570       0.51719176
H       -0.55737361       0.21000636      -1.34818647
H       -2.29783012       1.22617935       0.99222065
H       -1.20813866       2.22859500      -0.14116752
H       -0.37186162       0.43226777       0.74028660
H        0.27966715      -1.57366342       1.34533902
H        2.64298631      -0.81403230       1.09580988
H        1.49217615       1.30551937      -0.84081599
H        3.19821953       0.85007330      -0.75072542
H        2.43043381       1.67421753       0.61227295
19
Frame=5 idx=007695 GeodesicLength=0.4952462531645608 rxn_smarts="[C:1]([C:2]([C:3]([H:12])([H:13])[H:14])([C@@:4]1([H:15])[O:5][C@:6]1([C:7]([H:17])([H:18])[H:19])[H:16])[H:11])([H:8])([H:9])[H:10]>>[C:1]([C:2](=[C:3]([H:12])[H:13])[H:11])([H:8])([H:9])[H:10].[C:4]1([H:14])([H:15])[O:5][C@:6]1([C:7]([H:17])([H:18])[H:19])[H:16]"
C       -2.06132958      -1.09098840      -0.47969862
C       -1.13702285       0.08948343      -0.43389002
C       -1.50864996       1.26433667       0.28264724
C        0.51557395      -0.82600245       0.59071667
O        1.33519120      -1.36990240      -0.43483234
C        1.90547213      -0.39271862       0.42337011
C        2.28325740       0.92345943      -0.19347140
H       -2.85491649      -0.87630849      -1.20033465
H       -1.53653776      -1.99376229      -0.79257088
H       -2.52925380      -1.26958025       0.48939069
H       -0.56605166       0.23919695      -1.34759431
H       -2.30581470       1.20106180       1.01312054
H       -1.26155644       2.23022937      -0.13467232
H       -0.36212767       0.44994067       0.78347445
H        0.28297637      -1.55209899       1.37490738
H        2.64697100      -0.80903973       1.10478504
H        1.49784720       1.29086438      -0.85382170
H        3.20100126       0.82088374      -0.77530062
H        2.45497038       1.67094517       0.58377472
19
Frame=6 idx=007695 GeodesicLength=0.5937679041416712 rxn_smarts="[C:1]([C:2]([C:3]([H:12])([H:13])[H:14])([C@@:4]1([H:15])[O:5][C@:6]1([C:7]([H:17])([H:18])[H:19])[H:16])[H:11])([H:8])([H:9])[H:10]>>[C:1]([C:2](=[C:3]([H:12])[H:13])[H:11])([H:8])([H:9])[H:10].[C:4]1([H:14])([H:15])[O:5][C@:6]1([C:7]([H:17])([H:18])[H:19])[H:16]"
C       -2.05697360      -1.08689009      -0.50110991
C       -1.13731726       0.09680548      -0.43202580
C       -1.51832564       1.25825455       0.30151749
C        0.51660035      -0.81297238       0.61104697
O        1.32767053      -1.38056859      -0.40912277
C        1.90868188      -0.39303330       0.42970904
C        2.29240612       0.91019456      -0.21011815
H       -2.84466076      -0.87171015      -1.22792066
H       -1.52150367      -1.98275222      -0.81656366
H       -2.53299325      -1.28032898       0.46131754
H       -0.57537440       0.26909334      -1.34771334
H       -2.31277152       1.17485263       1.03381360
H       -1.31626776       2.23025680      -0.12684319
H       -0.35157565       0.46876820       0.82753584
H        0.28605967      -1.52951416       1.40460200
H        2.65056339      -0.80371637       1.11408239
H        1.50345571       1.27546031      -0.86737617
H        3.20336489       0.79068946      -0.79938017
H        2.47896098       1.66711092       0.55454895
19
Frame=7 idx=007695 GeodesicLength=0.6922978569824452 rxn_smarts="[C:1]([C:2]([C:3]([H:12])([H:13])[H:14])([C@@:4]1([H:15])[O:5][C@:6]1([C:7]([H:17])([H:18])[H:19])[H:16])[H:11])([H:8])([H:9])[H:10]>>[C:1]([C:2](=[C:3]([H:12])[H:13])[H:11])([H:8])([H:9])[H:10].[C:4]1([H:14])([H:15])[O:5][C@:6]1([C:7]([H:17])([H:18])[H:19])[H:16]"
C       -2.05213877      -1.08244885      -0.52293589
C       -1.13767875       0.10444239      -0.43132429
C       -1.52714455       1.25160099       0.32041023
C        0.51728991      -0.79913577       0.63142928
O        1.31966076      -1.39094343      -0.38256408
C        1.91151705      -0.39320417       0.43625102
C        2.30115316       0.89633093      -0.22691264
H       -2.83448133      -0.86679154      -1.25522989
H       -1.50591103      -1.97111513      -0.84110157
H       -2.53526014      -1.29090447       0.43295754
H       -0.58540339       0.29973105      -1.34861947
H       -2.31853365       1.14749240       1.05427628
H       -1.37211635       2.22850052      -0.11747599
H       -0.34013992       0.48885433       0.87257768
H        0.28886570      -1.50582521       1.43441776
H        2.65372069      -0.79801579       1.12372165
H        1.50895764       1.25925958      -0.88150339
H        3.20527729       0.75946292      -0.82293712
H        2.50236569       1.66270923       0.52456289
19
Frame=8 idx=007695 GeodesicLength=0.7908606855382394 rxn_smarts="[C:1]([C:2]([C:3]([H:12])([H:13])[H:14])([C@@:4]1([H:15])[O:5][C@:6]1([C:7]([H:17])([H:18])[H:19])[H:16])[H:11])([H:8])([H:9])[H:10]>>[C:1]([C:2](=[C:3]([H:12])[H:13])[H:11])([H:8])([H:9])[H:10].[C:4]1([H:14])([H:15])[O:5][C@:6]1([C:7]([H:17])([H:18])[H:19])[H:16]"
C       -2.04682795      -1.07768290      -0.54522423
C       -1.13812197       0.11242758      -0.43191453
C       -1.53497577       1.24431930       0.33928636
C        0.51758927      -0.78439592       0.65186875
O        1.31108126      -1.40095968      -0.35509275
C        1.91392455      -0.39319037       0.44301383
C        2.30944690       0.88185148      -0.24385539
H       -2.82443309      -0.86162827      -1.28231659
H       -1.48972569      -1.95884397      -0.86620848
H       -2.53603350      -1.30130459       0.40430684
H       -0.59620482       0.33117223      -1.35041087
H       -2.32290942       1.11891323       1.07448388
H       -1.42890569       2.22474992      -0.10633320
H       -0.32776418       0.51029743       0.91870199
H        0.29133414      -1.48093447       1.46434390
H        2.65638893      -0.79187510       1.13372215
H        1.51429488       1.24221433      -0.89622604
H        3.20668846       0.72715707      -0.84593881
H        2.52515366       1.65771269       0.49379320
19
Frame=9 idx=007695 GeodesicLength=0.8896306354162872 rxn_smarts="[C:1]([C:2]([C:3]([H:12])([H:13])[H:14])([C@@:4]1([H:15])[O:5][C@:6]1([C:7]([H:17])([H:18])[H:19])[H:16])[H:11])([H:8])([H:9])[H:10]>>[C:1]([C:2](=[C:3]([H:12])[H:13])[H:11])([H:8])([H:9])[H:10].[C:4]1([H:14])([H:15])[O:5][C@:6]1([C:7]([H:17])([H:18])[H:19])[H:16]"
C       -2.04103738      -1.07261695      -0.56803541
C       -1.13876389       0.12080138      -0.43380895
C       -1.54164944       1.23637651       0.35813379
C        0.51745821      -0.76868488       0.67241741
O        1.30183309      -1.41058250      -0.32665913
C        1.91585498      -0.39297459       0.45000161
C        2.31721724       0.86675183      -0.26094622
H       -2.81451191      -0.85627823      -1.30919192
H       -1.47289431      -1.94589328      -0.89200131
H       -2.53528545      -1.31160296       0.37525976
H       -0.60787403       0.36348673      -1.35302974
H       -2.32575760       1.08902165       1.09438634
H       -1.48637370       2.21888602      -0.09350682
H       -0.31433494       0.53319135       0.96613250
H        0.29342711      -1.45476025       1.49445652
H        2.65854665      -0.78528050       1.14405646
H        1.51934312       1.22433566      -0.91145229
H        3.20744409       0.69375705      -0.86846650
H        2.54735818       1.65206596       0.46225389
19
Frame=10 idx=007695 GeodesicLength=0.9883005085012548 rxn_smarts="[C:1]([C:2]([C:3]([H:12])([H:13])[H:14])([C@@:4]1([H:15])[O:5][C@:6]1([C:7]([H:17])([H:18])[H:19])[H:16])[H:11])([H:8])([H:9])[H:10]>>[C:1]([C:2](=[C:3]([H:12])[H:13])[H:11])([H:8])([H:9])[H:10].[C:4]1([H:14])([H:15])[O:5][C@:6]1([C:7]([H:17])([H:18])[H:19])[H:16]"
C       -2.03479518      -1.06727185      -0.59138653
C       -1.13955302       0.12956256      -0.43718288
C       -1.54702473       1.22774022       0.37686363
C        0.51685261      -0.75194624       0.69303201
O        1.29187676      -1.41971210      -0.29722862
C        1.91725167      -0.39250054       0.45723234
C        2.32437560       0.85103504      -0.27814370
H       -2.80479447      -0.85085252      -1.33593575
H       -1.45542946      -1.93230147      -0.91838554
H       -2.53304066      -1.32171290       0.34588947
H       -0.62051342       0.39665341      -1.35666402
H       -2.32679279       1.05785210       1.11394917
H       -1.54411382       2.21072294      -0.07857883
H       -0.29990319       0.55752248       1.01482388
H        0.29509919      -1.42728792       1.52464544
H        2.66013469      -0.77814270       1.15474382
H        1.52405285       1.20552826      -0.92725512
H        3.20754827       0.65930460      -0.89034480
H        2.56876912       1.64580663       0.42992602
19
Frame=11 idx=007695 GeodesicLength=1.0867986531972091 rxn_smarts="[C:1]([C:2]([C:3]([H:12])([H:13])[H:14])([C@@:4]1([H:15])[O:5][C@:6]1([C:7]([H:17])([H:18])[H:19])[H:16])[H:11])([H:8])([H:9])[H:10]>>[C:1]([C:2](=[C:3]([H:12])[H:13])[H:11])([H:8])([H:9])[H:10].[C:4]1([H:14])([H:15])[O:5][C@:6]1([C:7]([H:17])([H:18])[H:19])[H:16]"
C       -2.02813179      -1.06167483      -0.61529383
C       -1.14052612       0.13871877      -0.44211540
C       -1.55092661       1.21837794       0.39539068
C        0.51574418      -0.73414759       0.71370944
O        1.28116101      -1.42827885      -0.26679366
C        1.91806562      -0.39173611       0.46470595
C        2.33081801       0.83473329      -0.29541254
H       -2.79531575      -0.84543885      -1.36259482
H       -1.43734247      -1.91808642      -0.94532383
H       -2.52933916      -1.33160355       0.31620167
H       -0.63423242       0.43066350      -1.36136946
H       -2.32582136       1.02543767       1.13306250
H       -1.60160476       2.20011892      -0.06140338
H       -0.28447609       0.58324220       1.06487413
H        0.29633583      -1.39851911       1.55487889
H        2.66112747      -0.77041635       1.16575930
H        1.52830562       1.18577420      -0.94362114
H        3.20691580       0.62387565      -0.91151071
H        2.58924299       1.63895952       0.39685621
19
Frame=12 idx=007695 GeodesicLength=1.1850520228344423 rxn_smarts="[C:1]([C:2]([C:3]([H:12])([H:13])[H:14])([C@@:4]1([H:15])[O:5][C@:6]1([C:7]([H:17])([H:18])[H:19])[H:16])[H:11])([H:8])([H:9])[H:10]>>[C:1]([C:2](=[C:3]([H:12])[H:13])[H:11])([H:8])([H:9])[H:10].[C:4]1([H:14])([H:15])[O:5][C@:6]1([C:7]([H:17])([H:18])[H:19])[H:16]"
C       -2.02108353      -1.05586748      -0.63975119
C       -1.14171049       0.14826497      -0.44868643
C       -1.55316624       1.20829663       0.41360313
C        0.51411357      -0.71528212       0.73442965
O        1.26964131      -1.43618552      -0.23538201
C        1.91824826      -0.39064248       0.47241272
C        2.33642696       0.81789431      -0.31268964
H       -2.78611737      -0.84016286      -1.38919950
H       -1.41865376      -1.90328756      -0.97273786
H       -2.52422920      -1.34123203       0.28623619
H       -0.64914292       0.46546611      -1.36721405
H       -2.32264252       0.99185966       1.15159587
H       -1.65825857       2.18701950      -0.04189551
H       -0.26810791       0.61022903       1.11637776
H        0.29713617      -1.36850689       1.58508659
H        2.66150797      -0.76206930       1.17704733
H        1.53196504       1.16507684      -0.96047682
H        3.20544518       0.58759258      -0.93187632
H        2.60862806       1.63153661       0.36312009
19
Frame=13 idx=007695 GeodesicLength=1.283038633873541 rxn_smarts="[C:1]([C:2]([C:3]([H:12])([H:13])[H:14])([C@@:4]1([H:15])[O:5][C@:6]1([C:7]([H:17])([H:18])[H:19])[H:16])[H:11])([H:8])([H:9])[H:10]>>[C:1]([C:2](=[C:3]([H:12])[H:13])[H:11])([H:8])([H:9])[H:10].[C:4]1([H:14])([H:15])[O:5][C@:6]1([C:7]([H:17])([H:18])[H:19])[H:16]"
C       -2.01370686      -1.04989287      -0.66471583
C       -1.14316533       0.15817516      -0.45691118
C       -1.55354184       1.19753059       0.43135878
C        0.51197478      -0.69540846       0.75517163
O        1.25730980      -1.44335984      -0.20308633
C        1.91777274      -0.38921088       0.48032247
C        2.34107668       0.80060869      -0.32987906
H       -2.77723277      -0.83512787      -1.41573443
H       -1.39942080      -1.88795268      -1.00052547
H       -2.51779506      -1.35055105       0.25604255
H       -0.66535111       0.50095614      -1.37420077
H       -2.31708430       0.95725593       1.16939331
H       -1.71345698       2.17147116      -0.02023451
H       -0.25086668       0.63826887       1.16945172
H        0.29755047      -1.33737882       1.61520941
H        2.66129697      -0.75311574       1.18851051
H        1.53486214       1.14351329      -0.97767675
H        3.20299903       0.55065925      -0.95138965
H        2.62677913       1.62355912       0.32889358
19
Frame=14 idx=007695 GeodesicLength=1.3806678046767071 rxn_smarts="[C:1]([C:2]([C:3]([H:12])([H:13])[H:14])([C@@:4]1([H:15])[O:5][C@:6]1([C:7]([H:17])([H:18])[H:19])[H:16])[H:11])([H:8])([H:9])[H:10]>>[C:1]([C:2](=[C:3]([H:12])[H:13])[H:11])([H:8])([H:9])[H:10].[C:4]1([H:14])([H:15])[O:5][C@:6]1([C:7]([H:17])([H:18])[H:19])[H:16]"
C       -2.00607303      -1.04380423      -0.69012103
C       -1.14486471       0.16840831      -0.46685799
C       -1.55188116       1.18614265       0.44847112
C        0.50934211      -0.67460447       0.77587426
O        1.24419548      -1.44970811      -0.17002366
C        1.91661678      -0.38741538       0.48840732
C        2.34464239       0.78298501      -0.34687760
H       -2.76869760      -0.83049149      -1.44224159
H       -1.37973799      -1.87220063      -1.02845925
H       -2.51018292      -1.35943859       0.22574806
H       -0.68298086       0.53698319      -1.38242972
H       -2.30898274       0.92189645       1.18624868
H       -1.76646003       2.15350906       0.00366006
H       -0.23291590       0.66705132       1.22414586
H        0.29762640      -1.30533229       1.64509950
H        2.66050646      -0.74354907       1.20006464
H        1.53686034       1.12112998      -0.99513289
H        3.19952900       0.51332518      -0.96990366
H        2.64345798       1.61511309       0.29432789
19
Frame=15 idx=007695 GeodesicLength=1.4779676368137815 rxn_smarts="[C:1]([C:2]([C:3]([H:12])([H:13])[H:14])([C@@:4]1([H:15])[O:5][C@:6]1([C:7]([H:17])([H:18])[H:19])[H:16])[H:11])([H:8])([H:9])[H:10]>>[C:1]([C:2](=[C:3]([H:12])[H:13])[H:11])([H:8])([H:9])[H:10].[C:4]1([H:14])([H:15])[O:5][C@:6]1([C:7]([H:17])([H:18])[H:19])[H:16]"
C       -1.99828521      -1.03767251      -0.71585541
C       -1.14682459       0.17888661      -0.47852565
C       -1.54800151       1.17422579       0.46473516
C        0.50626362      -0.65301608       0.79647289
O        1.23036053      -1.45515858      -0.13639303
C        1.91478306      -0.38525645       0.49661335
C        2.34700483       0.76518736      -0.36355067
H       -2.76054926      -0.82640065      -1.46869664
H       -1.35974978      -1.85618058      -1.05628466
H       -2.50158588      -1.36778494       0.19549802
H       -0.70211735       0.57330676      -1.39193951
H       -2.29824883       0.88610857       1.20192574
H       -1.81647934       2.13335242       0.02954570
H       -0.21443354       0.69615434       1.28056773
H        0.29746031      -1.27264719       1.67461602
H        2.65918922      -0.73342339       1.21157204
H        1.53779855       1.09807777      -1.01265990
H        3.19495296       0.47594192      -0.98732438
H        2.65846222       1.60629884       0.25968319
19
Frame=16 idx=007695 GeodesicLength=1.5750541805749458 rxn_smarts="[C:1]([C:2]([C:3]([H:12])([H:13])[H:14])([C@@:4]1([H:15])[O:5][C@:6]1([C:7]([H:17])([H:18])[H:19])[H:16])[H:11])([H:8])([H:9])[H:10]>>[C:1]([C:2](=[C:3]([H:12])[H:13])[H:11])([H:8])([H:9])[H:10].[C:4]1([H:14])([H:15])[O:5][C@:6]1([C:7]([H:17])([H:18])[H:19])[H:16]"
C       -1.99046261      -1.03158201      -0.74177347
C       -1.14905274       0.18951657      -0.49188708
C       -1.54174467       1.16191712       0.47992358
C        0.50280864      -0.63082896       0.81689094
O        1.21590058      -1.45964650      -0.10244810
C        1.91229681      -0.38274834       0.50487283
C        2.34807072       0.74740913      -0.37974356
H       -2.75283072      -0.82301861      -1.49505896
H       -1.33963429      -1.84008123      -1.08369954
H       -2.49223676      -1.37547295       0.16548105
H       -0.72282747       0.60964217      -1.40276247
H       -2.28486009       0.85027308       1.21617662
H       -1.86278854       2.11132838       0.05704812
H       -0.19560735       0.72508942       1.33883857
H        0.29717173      -1.23966742       1.70359530
H        2.65741968      -0.72283031       1.22287355
H        1.53753053       1.07457429      -1.03002079
H        3.18920775       0.43889965      -1.00357873
H        2.67163880       1.59722652       0.22527213
