12
Frame=0 idx=003702 GeodesicLength=0.0 rxn_smarts="[C:1]([C:2](=[O:3])[N:4](/[C:5](=[N:6]/[H:12])[H:11])[H:10])([H:7])([H:8])[H:9]>>[C:1]([C:2](=[O:3])/[N:4]=[C:5](/[N:6]([H:10])[H:12])[H:11])([H:7])([H:8])[H:9]"
C       -1.99893888       0.53614198      -0.04627932
C       -0.52766441       0.85126026       0.00258957
O       -0.08932787       1.98160705       0.03894010
N        0.28124822      -0.26514621       0.00160791
C        1.61583055      -0.23960404       0.04047514
N        1.97568762      -1.48439641       0.02878248
H       -2.57163313       1.45971264      -0.03482612
H       -2.22658834      -0.03214876      -0.94982486
H       -2.27481096      -0.08543289       0.80723805
H        0.65067175      -1.57591663      -0.01107151
H        2.23315777       0.65213867       0.07346334
H        2.93236773      -1.79821562       0.04890527
12
Frame=1 idx=003702 GeodesicLength=0.03305192889505477 rxn_smarts="[C:1]([C:2](=[O:3])[N:4](/[C:5](=[N:6]/[H:12])[H:11])[H:10])([H:7])([H:8])[H:9]>>[C:1]([C:2](=[O:3])/[N:4]=[C:5](/[N:6]([H:10])[H:12])[H:11])([H:7])([H:8])[H:9]"
C       -1.99856556       0.53893957      -0.04536164
C       -0.52604157       0.84770439       0.00421774
O       -0.08326057       1.97603580       0.04320235
N        0.27812100      -0.27307579       0.00051404
C        1.61360031      -0.24196452       0.01642351
N        1.97939864      -1.48594750       0.02690640
H       -2.56698707       1.46521311      -0.03592068
H       -2.22861885      -0.02964721      -0.94809330
H       -2.27800325      -0.07927845       0.80944652
H        0.64690003      -1.59075270      -0.01332756
H        2.22161131       0.65446951       0.08058410
H        2.94184557      -1.78169624       0.06140851
12
Frame=2 idx=003702 GeodesicLength=0.0661380727596231 rxn_smarts="[C:1]([C:2](=[O:3])[N:4](/[C:5](=[N:6]/[H:12])[H:11])[H:10])([H:7])([H:8])[H:9]>>[C:1]([C:2](=[O:3])/[N:4]=[C:5](/[N:6]([H:10])[H:12])[H:11])([H:7])([H:8])[H:9]"
C       -1.99805678       0.54166295      -0.04570586
C       -0.52437292       0.84427384       0.00508366
O       -0.07724999       1.97065468       0.04524117
N        0.27513582      -0.28077609       0.00083027
C        1.61115753      -0.24433065       0.00227458
N        1.98315997      -1.48721651       0.02752646
H       -2.56227315       1.47057657      -0.04000674
H       -2.22988862      -0.02856764      -0.94692715
H       -2.28152213      -0.07194553       0.81110624
H        0.64306460      -1.60555274      -0.00803296
H        2.20989707       0.65632222       0.09085054
H        2.95094859      -1.76510109       0.05775979
12
Frame=3 idx=003702 GeodesicLength=0.0990779736793243 rxn_smarts="[C:1]([C:2](=[O:3])[N:4](/[C:5](=[N:6]/[H:12])[H:11])[H:10])([H:7])([H:8])[H:9]>>[C:1]([C:2](=[O:3])/[N:4]=[C:5](/[N:6]([H:10])[H:12])[H:11])([H:7])([H:8])[H:9]"
C       -1.99750869       0.54429597      -0.04501459
C       -0.52262597       0.84096698       0.00377771
O       -0.07124106       1.96545354       0.04384388
N        0.27234899      -0.28822827      -0.00240445
C        1.60879097      -0.24654572      -0.00835752
N        1.98693255      -1.48837008       0.02452387
H       -2.55762660       1.47574068      -0.04210685
H       -2.23296572      -0.02783376      -0.94407096
H       -2.28306458      -0.06449713       0.81454677
H        0.63932466      -1.62010144      -0.00837227
H        2.19809247       0.65778521       0.10358087
H        2.95954297      -1.74866597       0.06005354
12
Frame=4 idx=003702 GeodesicLength=0.1321535535343565 rxn_smarts="[C:1]([C:2](=[O:3])[N:4](/[C:5](=[N:6]/[H:12])[H:11])[H:10])([H:7])([H:8])[H:9]>>[C:1]([C:2](=[O:3])/[N:4]=[C:5](/[N:6]([H:10])[H:12])[H:11])([H:7])([H:8])[H:9]"
C       -1.99689838       0.54684705      -0.04380620
C       -0.52084163       0.83775580       0.00184740
O       -0.06530001       1.96037923       0.04159267
N        0.26970190      -0.29546969      -0.00710465
C        1.60653995      -0.24861448      -0.01722465
N        1.99069216      -1.48941883       0.02103329
H       -2.55304025       1.48071701      -0.04301565
H       -2.23665004      -0.02698982      -0.94061946
H       -2.28371883      -0.05735738       0.81858014
H        0.63559686      -1.63458491      -0.01259795
H        2.18638467       0.65911824       0.11526992
H        2.96753360      -1.73238222       0.06604514
12
Frame=5 idx=003702 GeodesicLength=0.1649521952124888 rxn_smarts="[C:1]([C:2](=[O:3])[N:4](/[C:5](=[N:6]/[H:12])[H:11])[H:10])([H:7])([H:8])[H:9]>>[C:1]([C:2](=[O:3])/[N:4]=[C:5](/[N:6]([H:10])[H:12])[H:11])([H:7])([H:8])[H:9]"
C       -1.99621782       0.54934231      -0.04352020
C       -0.51910386       0.83458799       0.00128121
O       -0.05954703       1.95532551       0.04236090
N        0.26709514      -0.30256483      -0.01059834
C        1.60428833      -0.25060539      -0.02547300
N        1.99440723      -1.49036133       0.01767517
H       -2.54848434       1.48554887      -0.04448758
H       -2.23901885      -0.02517615      -0.93905842
H       -2.28534224      -0.05130419       0.82059414
H        0.63179178      -1.64897872      -0.01037392
H        2.17499704       0.66049477       0.12308914
H        2.97513461      -1.71630884       0.06851090
12
Frame=6 idx=003702 GeodesicLength=0.19782243312238618 rxn_smarts="[C:1]([C:2](=[O:3])[N:4](/[C:5](=[N:6]/[H:12])[H:11])[H:10])([H:7])([H:8])[H:9]>>[C:1]([C:2](=[O:3])/[N:4]=[C:5](/[N:6]([H:10])[H:12])[H:11])([H:7])([H:8])[H:9]"
C       -1.99547641       0.55176227      -0.04311324
C       -0.51736468       0.83148249       0.00124066
O       -0.05389387       1.95035201       0.04375401
N        0.26457292      -0.30950196      -0.01349037
C        1.60208707      -0.25250577      -0.03334747
N        1.99807210      -1.49122194       0.01431731
H       -2.54396222       1.49022473      -0.04578743
H       -2.24105528      -0.02329490      -0.93753123
H       -2.28702422      -0.04551166       0.82253748
H        0.62792794      -1.66333362      -0.01009213
H        2.16391227       0.66192257       0.12845844
H        2.98220438      -1.70037422       0.07305398
12
Frame=7 idx=003702 GeodesicLength=0.23065383845610563 rxn_smarts="[C:1]([C:2](=[O:3])[N:4](/[C:5](=[N:6]/[H:12])[H:11])[H:10])([H:7])([H:8])[H:9]>>[C:1]([C:2](=[O:3])/[N:4]=[C:5](/[N:6]([H:10])[H:12])[H:11])([H:7])([H:8])[H:9]"
C       -1.99466337       0.55409046      -0.04235680
C       -0.51559359       0.82843719       0.00124422
O       -0.04831414       1.94545521       0.04538083
N        0.26217856      -0.31626577      -0.01695205
C        1.59998239      -0.25426855      -0.04157984
N        2.00174336      -1.49198456       0.00941314
H       -2.53947871       1.49472290      -0.04618910
H       -2.24320549      -0.02116169      -0.93581447
H       -2.28829801      -0.04019892       0.82465645
H        0.62407347      -1.67761919      -0.01188836
H        2.15309364       0.66335412       0.13207292
H        2.98848188      -1.68456120       0.08201306
12
Frame=8 idx=003702 GeodesicLength=0.2634628775836244 rxn_smarts="[C:1]([C:2](=[O:3])[N:4](/[C:5](=[N:6]/[H:12])[H:11])[H:10])([H:7])([H:8])[H:9]>>[C:1]([C:2](=[O:3])/[N:4]=[C:5](/[N:6]([H:10])[H:12])[H:11])([H:7])([H:8])[H:9]"
C       -1.99379115       0.55635062      -0.04174632
C       -0.51382358       0.82543656       0.00179648
O       -0.04283555       1.94061523       0.04781010
N        0.25985912      -0.32289855      -0.01963705
C        1.59791021      -0.25594257      -0.04955478
N        2.00538688      -1.49264642       0.00477506
H       -2.53501113       1.49908825      -0.04680234
H       -2.24485400      -0.01895892      -0.93444629
H       -2.28982598      -0.03512390       0.82638998
H        0.62017909      -1.69188142      -0.01338467
H        2.14255997       0.66485580       0.13406024
H        2.99424610      -1.66889467       0.09073960
12
Frame=9 idx=003702 GeodesicLength=0.29627751021647303 rxn_smarts="[C:1]([C:2](=[O:3])[N:4](/[C:5](=[N:6]/[H:12])[H:11])[H:10])([H:7])([H:8])[H:9]>>[C:1]([C:2](=[O:3])/[N:4]=[C:5](/[N:6]([H:10])[H:12])[H:11])([H:7])([H:8])[H:9]"
C       -1.99284948       0.55852621      -0.04088902
C       -0.51201483       0.82249274       0.00214625
O       -0.03741538       1.93585486       0.05000766
N        0.25765992      -0.32937426      -0.02290392
C        1.59594406      -0.25750742      -0.05732467
N        2.00900459      -1.49319569       0.00074118
H       -2.53057269       1.50329467      -0.04679342
H       -2.24666977      -0.01668866      -0.93285469
H       -2.29091973      -0.03032653       0.82834759
H        0.61625986      -1.70611804      -0.01685851
H        2.13223039       0.66642046       0.13524924
H        2.99934306      -1.65337833       0.10113233
12
Frame=10 idx=003702 GeodesicLength=0.32900097539624507 rxn_smarts="[C:1]([C:2](=[O:3])[N:4](/[C:5](=[N:6]/[H:12])[H:11])[H:10])([H:7])([H:8])[H:9]>>[C:1]([C:2](=[O:3])/[N:4]=[C:5](/[N:6]([H:10])[H:12])[H:11])([H:7])([H:8])[H:9]"
C       -1.99185943       0.56063629      -0.04019000
C       -0.51020231       0.81963327       0.00237327
O       -0.03208852       1.93121307       0.05182265
N        0.25554456      -0.33567869      -0.02618979
C        1.59405264      -0.25892764      -0.06422979
N        2.01260688      -1.49365730      -0.00366770
H       -2.52618622       1.50736023      -0.04692889
H       -2.24835317      -0.01449013      -0.93143299
H       -2.29190519      -0.02564310       0.83012145
H        0.61230215      -1.72026328      -0.01882690
H        2.12201868       0.66793134       0.13728233
H        3.00406993      -1.63811406       0.10986636
12
Frame=11 idx=003702 GeodesicLength=0.36172178995738186 rxn_smarts="[C:1]([C:2](=[O:3])[N:4](/[C:5](=[N:6]/[H:12])[H:11])[H:10])([H:7])([H:8])[H:9]>>[C:1]([C:2](=[O:3])/[N:4]=[C:5](/[N:6]([H:10])[H:12])[H:11])([H:7])([H:8])[H:9]"
C       -1.99084325       0.56271011      -0.03981549
C       -0.50841845       0.81684565       0.00297344
O       -0.02687107       1.92667762       0.05365279
N        0.25346355      -0.34185902      -0.02825512
C        1.59216613      -0.26026099      -0.07004549
N        2.01613905      -1.49405263      -0.00740387
H       -2.52183205       1.51133450      -0.04796695
H       -2.24950046      -0.01262847      -0.93028197
H       -2.29326584      -0.02073614       0.83159276
H        0.60823497      -1.73440036      -0.01946871
H        2.11195677       0.66943248       0.13970795
H        3.00877065      -1.62306274       0.11531065
12
Frame=12 idx=003702 GeodesicLength=0.3944177486354418 rxn_smarts="[C:1]([C:2](=[O:3])[N:4](/[C:5](=[N:6]/[H:12])[H:11])[H:10])([H:7])([H:8])[H:9]>>[C:1]([C:2](=[O:3])/[N:4]=[C:5](/[N:6]([H:10])[H:12])[H:11])([H:7])([H:8])[H:9]"
C       -1.98978164       0.56471475      -0.03927443
C       -0.50660826       0.81415877       0.00286836
O       -0.02171903       1.92229468       0.05419923
N        0.25149088      -0.34784923      -0.03126984
C        1.59042046      -0.26143163      -0.07503187
N        2.01964271      -1.49435498      -0.01097650
H       -2.51754774       1.51515985      -0.04859296
H       -2.25104676      -0.01092499      -0.92877085
H       -2.29400057      -0.01586800       0.83343668
H        0.60411393      -1.74846172      -0.02075118
H        2.10191027       0.67084465       0.14366441
H        3.01312576      -1.60828213       0.12049895
12
Frame=13 idx=003702 GeodesicLength=0.4270955033648467 rxn_smarts="[C:1]([C:2](=[O:3])[N:4](/[C:5](=[N:6]/[H:12])[H:11])[H:10])([H:7])([H:8])[H:9]>>[C:1]([C:2](=[O:3])/[N:4]=[C:5](/[N:6]([H:10])[H:12])[H:11])([H:7])([H:8])[H:9]"
C       -1.98868627       0.56667119      -0.03881691
C       -0.50480110       0.81154015       0.00277392
O       -0.01665296       1.91801385       0.05452559
N        0.24958528      -0.35370338      -0.03408583
C        1.58873485      -0.26248393      -0.07950651
N        2.02311622      -1.49457592      -0.01451528
H       -2.51330391       1.51887883      -0.04939017
H       -2.25244734      -0.00933545      -0.92732554
H       -2.29470396      -0.01101938       0.83520036
H        0.59992522      -1.76249322      -0.02152219
H        2.09196694       0.67221326       0.14800932
H        3.01726703      -1.59370600       0.12465325
12
Frame=14 idx=003702 GeodesicLength=0.45975834794572723 rxn_smarts="[C:1]([C:2](=[O:3])[N:4](/[C:5](=[N:6]/[H:12])[H:11])[H:10])([H:7])([H:8])[H:9]>>[C:1]([C:2](=[O:3])/[N:4]=[C:5](/[N:6]([H:10])[H:12])[H:11])([H:7])([H:8])[H:9]"
C       -1.98755630       0.56857791      -0.03837975
C       -0.50298857       0.80899136       0.00250408
O       -0.01166391       1.91383592       0.05448563
N        0.24775474      -0.35941614      -0.03709592
C        1.58712962      -0.26341209      -0.08354414
N        2.02656367      -1.49471391      -0.01801580
H       -2.50910499       1.52248993      -0.05013051
H       -2.25385830      -0.00779631      -0.92587872
H       -2.29521760      -0.00625701       0.83695928
H        0.59567037      -1.77648889      -0.02197516
H        2.08209423       0.67352094       0.15289534
H        3.02117705      -1.57933170       0.12817569
12
Frame=15 idx=003702 GeodesicLength=0.4924110842901277 rxn_smarts="[C:1]([C:2](=[O:3])[N:4](/[C:5](=[N:6]/[H:12])[H:11])[H:10])([H:7])([H:8])[H:9]>>[C:1]([C:2](=[O:3])/[N:4]=[C:5](/[N:6]([H:10])[H:12])[H:11])([H:7])([H:8])[H:9]"
C       -1.98639140       0.57043545      -0.03797652
C       -0.50116853       0.80650676       0.00204695
O       -0.00674971       1.90974914       0.05422054
N        0.24600197      -0.36498935      -0.04045755
C        1.58560734      -0.26420581      -0.08732102
N        2.03000653      -1.49476054      -0.02179021
H       -2.50494825       1.52599756      -0.05074122
H       -2.25529296      -0.00623046      -0.92448908
H       -2.29552958      -0.00165634       0.83865546
H        0.59136637      -1.79043805      -0.02173606
H        2.07228064       0.67474762       0.15828456
H        3.02481760      -1.56515596       0.13130415
12
Frame=16 idx=003702 GeodesicLength=0.5250585426851055 rxn_smarts="[C:1]([C:2](=[O:3])[N:4](/[C:5](=[N:6]/[H:12])[H:11])[H:10])([H:7])([H:8])[H:9]>>[C:1]([C:2](=[O:3])/[N:4]=[C:5](/[N:6]([H:10])[H:12])[H:11])([H:7])([H:8])[H:9]"
C       -1.98521033       0.57226771      -0.03785359
C       -0.49937079       0.80406208       0.00188516
O       -0.00192918       1.90571387       0.05445239
N        0.24428528      -0.37047042      -0.04331187
C        1.58409552      -0.26489721      -0.09088351
N        2.03343457      -1.49472982      -0.02594737
H       -2.50081210       1.52944472      -0.05176641
H       -2.25635073      -0.00463846      -0.92351516
H       -2.29611152       0.00285205       0.83991375
H        0.58701231      -1.80436406      -0.01951918
H        2.06257118       0.67589238       0.16377534
H        3.02838579      -1.55113283       0.13277045
