13
Frame=0 idx=008551 GeodesicLength=0.0 rxn_smarts="[C:1]([c:2]1[n:3][o:4][c:5]([N:6]([H:11])[H:12])[c:7]1[H:13])([H:8])([H:9])[H:10]>>[C:1]([C:2]1=[C:7]=[C:5]([N+:6]([H:11])([H:12])[H:13])[O:4][N-:3]1)([H:8])([H:9])[H:10]"
C       -2.39479285       0.18345121      -0.07061027
C       -0.93791990      -0.08372116      -0.24308287
N       -0.56110703      -0.84645620      -1.24248091
O        0.83282176      -0.93985319      -1.18390848
C        1.14266331      -0.20058906      -0.12397123
N        2.43496399       0.08541157       0.44775934
C        0.16795716       0.39333254       0.56254339
H       -2.97525116      -0.33256368      -0.83442490
H       -2.72388821      -0.14972670       0.91484980
H       -2.59057995       1.25498949      -0.13568599
H        3.06128299       0.64778653      -0.11973255
H        2.92590946      -0.70189247       0.85972694
H        1.61794045       0.68983107       1.16901778
13
Frame=1 idx=008551 GeodesicLength=0.050938717894723935 rxn_smarts="[C:1]([c:2]1[n:3][o:4][c:5]([N:6]([H:11])[H:12])[c:7]1[H:13])([H:8])([H:9])[H:10]>>[C:1]([C:2]1=[C:7]=[C:5]([N+:6]([H:11])([H:12])[H:13])[O:4][N-:3]1)([H:8])([H:9])[H:10]"
C       -2.39274282       0.18558970      -0.07188418
C       -0.93685966      -0.08839765      -0.24155640
N       -0.56060695      -0.85778862      -1.23557532
O        0.83340106      -0.95045091      -1.17589958
C        1.14519441      -0.18995005      -0.13205149
N        2.43445262       0.08588565       0.44787557
C        0.16757224       0.39179753       0.56337342
H       -2.97412999      -0.33199955      -0.83393594
H       -2.72440629      -0.14160264       0.91473058
H       -2.58465508       1.25747526      -0.14260942
H        3.05634563       0.66351653      -0.10881464
H        2.92947743      -0.71400455       0.82942261
H        1.60695739       0.68992931       1.18692477
13
Frame=2 idx=008551 GeodesicLength=0.10184566464236625 rxn_smarts="[C:1]([c:2]1[n:3][o:4][c:5]([N:6]([H:11])[H:12])[c:7]1[H:13])([H:8])([H:9])[H:10]>>[C:1]([C:2]1=[C:7]=[C:5]([N+:6]([H:11])([H:12])[H:13])[O:4][N-:3]1)([H:8])([H:9])[H:10]"
C       -2.39065077       0.18793321      -0.07332999
C       -0.93581964      -0.09317363      -0.23986516
N       -0.55998907      -0.86844977      -1.22899174
O        0.83394296      -0.96185836      -1.16680883
C        1.14746671      -0.18070685      -0.13912477
N        2.43398291       0.08623873       0.44761922
C        0.16712398       0.38904427       0.56508775
H       -2.97284331      -0.33037381      -0.83428747
H       -2.72532280      -0.13400743       0.91400679
H       -2.57829410       1.26025217      -0.14883357
H        3.05059486       0.67906101      -0.09863751
H        2.93399376      -0.72433638       0.79873303
H        1.59581450       0.69037684       1.20443226
13
Frame=3 idx=008551 GeodesicLength=0.152888175469507 rxn_smarts="[C:1]([c:2]1[n:3][o:4][c:5]([N:6]([H:11])[H:12])[c:7]1[H:13])([H:8])([H:9])[H:10]>>[C:1]([C:2]1=[C:7]=[C:5]([N+:6]([H:11])([H:12])[H:13])[O:4][N-:3]1)([H:8])([H:9])[H:10]"
C       -2.38865652       0.18922104      -0.07401547
C       -0.93450024      -0.09537069      -0.24000597
N       -0.55889377      -0.87497282      -1.22536720
O        0.83450519      -0.97346608      -1.15713016
C        1.14978420      -0.17149192      -0.14630630
N        2.43341571       0.08494734       0.44813984
C        0.16716907       0.39089096       0.56346842
H       -2.97167440      -0.33065197      -0.83329939
H       -2.72391128      -0.12898168       0.91435733
H       -2.57472573       1.26156475      -0.15320785
H        3.04691982       0.69000353      -0.08790356
H        2.93598667      -0.73549995       0.77143956
H        1.58458130       0.69380749       1.21983074
13
Frame=4 idx=008551 GeodesicLength=0.20364890845585534 rxn_smarts="[C:1]([c:2]1[n:3][o:4][c:5]([N:6]([H:11])[H:12])[c:7]1[H:13])([H:8])([H:9])[H:10]>>[C:1]([C:2]1=[C:7]=[C:5]([N+:6]([H:11])([H:12])[H:13])[O:4][N-:3]1)([H:8])([H:9])[H:10]"
C       -2.38652700       0.19140740      -0.07535613
C       -0.93338765      -0.09955307      -0.23864639
N       -0.55807129      -0.88426214      -1.21957830
O        0.83512476      -0.98423747      -1.14772126
C        1.15179314      -0.16406908      -0.15219014
N        2.43296919       0.08424454       0.44786045
C        0.16689896       0.38864013       0.56472927
H       -2.97028491      -0.32900608      -0.83369099
H       -2.72439044      -0.12219865       0.91359494
H       -2.56878402       1.26408157      -0.15868702
H        3.04097888       0.70350999      -0.07782087
H        2.94064157      -0.74416647       0.74121801
H        1.57303881       0.69560934       1.23628842
13
Frame=5 idx=008551 GeodesicLength=0.25460936589469735 rxn_smarts="[C:1]([c:2]1[n:3][o:4][c:5]([N:6]([H:11])[H:12])[c:7]1[H:13])([H:8])([H:9])[H:10]>>[C:1]([C:2]1=[C:7]=[C:5]([N+:6]([H:11])([H:12])[H:13])[O:4][N-:3]1)([H:8])([H:9])[H:10]"
C       -2.38440824       0.19339664      -0.07655852
C       -0.93221569      -0.10314833      -0.23765984
N       -0.55712057      -0.89247688      -1.21452302
O        0.83577891      -0.99483783      -1.13821858
C        1.15373573      -0.15745557      -0.15757843
N        2.43256777       0.08289437       0.44768538
C        0.16672913       0.38720522       0.56545370
H       -2.96887915      -0.32757666      -0.83398093
H       -2.72441568      -0.11613315       0.91296160
H       -2.56339350       1.26634196      -0.16358362
H        3.03525396       0.71562085      -0.06779409
H        2.94510356      -0.75234718       0.71166426
H        1.56126378       0.69851654       1.25213210
13
Frame=6 idx=008551 GeodesicLength=0.30540478257667697 rxn_smarts="[C:1]([c:2]1[n:3][o:4][c:5]([N:6]([H:11])[H:12])[c:7]1[H:13])([H:8])([H:9])[H:10]>>[C:1]([C:2]1=[C:7]=[C:5]([N+:6]([H:11])([H:12])[H:13])[O:4][N-:3]1)([H:8])([H:9])[H:10]"
C       -2.38237159       0.19455710      -0.07714544
C       -0.93079350      -0.10468282      -0.23824487
N       -0.55581572      -0.89748538      -1.21187144
O        0.83635551      -1.00543885      -1.12836965
C        1.15582291      -0.15109743      -0.16298241
N        2.43211978       0.08018956       0.44821368
C        0.16695813       0.38928290       0.56346429
H       -2.96760963      -0.32757479      -0.83317387
H       -2.72258198      -0.11217572       0.91317642
H       -2.56024068       1.26745514      -0.16691694
H        3.03117222       0.72410554      -0.05727357
H        2.94770359      -0.76123609       0.68489768
H        1.54928095       0.70410083       1.26622610
13
Frame=7 idx=008551 GeodesicLength=0.3562914099401209 rxn_smarts="[C:1]([c:2]1[n:3][o:4][c:5]([N:6]([H:11])[H:12])[c:7]1[H:13])([H:8])([H:9])[H:10]>>[C:1]([C:2]1=[C:7]=[C:5]([N+:6]([H:11])([H:12])[H:13])[O:4][N-:3]1)([H:8])([H:9])[H:10]"
C       -2.38032985       0.19561928      -0.07764780
C       -0.92932508      -0.10595098      -0.23901529
N       -0.55445966      -0.90212417      -1.20948146
O        0.83695459      -1.01550894      -1.11876969
C        1.15792484      -0.14538722      -0.16805224
N        2.43171285       0.07692183       0.44884762
C        0.16725823       0.39171966       0.56119160
H       -2.96634309      -0.32774331      -0.83223324
H       -2.72050145      -0.10848650       0.91350709
H       -2.55734813       1.26843867      -0.17004002
H        3.02718527       0.73172081      -0.04656772
H        2.95030235      -0.76980524       0.65833434
H        1.53696911       0.71058612       1.27992682
13
Frame=8 idx=008551 GeodesicLength=0.4071746056572789 rxn_smarts="[C:1]([c:2]1[n:3][o:4][c:5]([N:6]([H:11])[H:12])[c:7]1[H:13])([H:8])([H:9])[H:10]>>[C:1]([C:2]1=[C:7]=[C:5]([N+:6]([H:11])([H:12])[H:13])[O:4][N-:3]1)([H:8])([H:9])[H:10]"
C       -2.37824147       0.19686369      -0.07826886
C       -0.92788369      -0.10758686      -0.23949297
N       -0.55315588      -0.90725875      -1.20668614
O        0.83756152      -1.02517268      -1.10935682
C        1.15996166      -0.14045600      -0.17261954
N        2.43139736       0.07342579       0.44931523
C        0.16752551       0.39331419       0.55949993
H       -2.96502104      -0.32753300      -0.83155160
H       -2.71875141      -0.10445339       0.91363256
H       -2.55397459       1.26966317      -0.17336442
H        3.02267589       0.73946231      -0.03581933
H        2.95360020      -0.77746089       0.63097663
H        1.52430594       0.71719243       1.29373533
13
Frame=9 idx=008551 GeodesicLength=0.4580300367134171 rxn_smarts="[C:1]([c:2]1[n:3][o:4][c:5]([N:6]([H:11])[H:12])[c:7]1[H:13])([H:8])([H:9])[H:10]>>[C:1]([C:2]1=[C:7]=[C:5]([N+:6]([H:11])([H:12])[H:13])[O:4][N-:3]1)([H:8])([H:9])[H:10]"
C       -2.37609061       0.19834305      -0.07904500
C       -0.92648581      -0.10976461      -0.23954269
N       -0.55194888      -0.91322364      -1.20321842
O        0.83819694      -1.03432132      -1.10024753
C        1.16192267      -0.13615430      -0.17677665
N        2.43119019       0.06974652       0.44955052
C        0.16775608       0.39390398       0.55849559
H       -2.96364076      -0.32696237      -0.83110022
H       -2.71742690      -0.09978095       0.91354579
H       -2.54995177       1.27117837      -0.17715028
H        3.01756962       0.74755745      -0.02485898
H        2.95763546      -0.78411836       0.60248754
H        1.51127377       0.72359618       1.30786033
13
Frame=10 idx=008551 GeodesicLength=0.5089176684401406 rxn_smarts="[C:1]([c:2]1[n:3][o:4][c:5]([N:6]([H:11])[H:12])[c:7]1[H:13])([H:8])([H:9])[H:10]>>[C:1]([C:2]1=[C:7]=[C:5]([N+:6]([H:11])([H:12])[H:13])[O:4][N-:3]1)([H:8])([H:9])[H:10]"
C       -2.37392194       0.19975116      -0.07975160
C       -0.92504306      -0.11171973      -0.23976447
N       -0.55070312      -0.91877130      -1.20006158
O        0.83881044      -1.04329357      -1.09120163
C        1.16390696      -0.13238985      -0.18065616
N        2.43105357       0.06554338       0.44985256
C        0.16805347       0.39468028       0.55730423
H       -2.96225851      -0.32644431      -0.83057745
H       -2.71589294      -0.09539607       0.91352002
H       -2.54610853       1.27259865      -0.18066850
H        3.01251810       0.75487770      -0.01365892
H        2.96171778      -0.79034842       0.57402909
H        1.49786780       0.73091210       1.32163441
13
Frame=11 idx=008551 GeodesicLength=0.5598121290910701 rxn_smarts="[C:1]([c:2]1[n:3][o:4][c:5]([N:6]([H:11])[H:12])[c:7]1[H:13])([H:8])([H:9])[H:10]>>[C:1]([C:2]1=[C:7]=[C:5]([N+:6]([H:11])([H:12])[H:13])[O:4][N-:3]1)([H:8])([H:9])[H:10]"
C       -2.37171180       0.20124668      -0.08050438
C       -0.92360249      -0.11385212      -0.23984485
N       -0.54949522      -0.92453366      -1.19672247
O        0.83942387      -1.05203760      -1.08229400
C        1.16586706      -0.12913928      -0.18423295
N        2.43102048       0.06098197       0.45005731
C        0.16836343       0.39501519       0.55639628
H       -2.96084676      -0.32574419      -0.83015660
H       -2.71448085      -0.09083682       0.91340914
H       -2.54200862       1.27412843      -0.18426971
H        3.00720786       0.76199659      -0.00218426
H        2.96619531      -0.79583992       0.54494081
H        1.48406772       0.73861474       1.33540569
13
Frame=12 idx=008551 GeodesicLength=0.6107586558887245 rxn_smarts="[C:1]([c:2]1[n:3][o:4][c:5]([N:6]([H:11])[H:12])[c:7]1[H:13])([H:8])([H:9])[H:10]>>[C:1]([C:2]1=[C:7]=[C:5]([N+:6]([H:11])([H:12])[H:13])[O:4][N-:3]1)([H:8])([H:9])[H:10]"
C       -2.36943041       0.20304802      -0.08145137
C       -0.92223511      -0.11665606      -0.23941190
N       -0.54843313      -0.93121431      -1.19269248
O        0.84003178      -1.06066038      -1.07350598
C        1.16771224      -0.12653994      -0.18743365
N        2.43114976       0.05629737       0.44993368
C        0.16860639       0.39406167       0.55637807
H       -2.95936313      -0.32445169      -0.83013359
H       -2.71362135      -0.08561567       0.91299263
H       -2.53708792       1.27606158      -0.18827532
H        3.00118569       0.76962813       0.00947780
H        2.97160488      -0.80004518       0.51448750
H        1.46988031       0.74608646       1.34963462
13
Frame=13 idx=008551 GeodesicLength=0.6617129275279213 rxn_smarts="[C:1]([c:2]1[n:3][o:4][c:5]([N:6]([H:11])[H:12])[c:7]1[H:13])([H:8])([H:9])[H:10]>>[C:1]([C:2]1=[C:7]=[C:5]([N+:6]([H:11])([H:12])[H:13])[O:4][N-:3]1)([H:8])([H:9])[H:10]"
C       -2.36706419       0.20493656      -0.08245540
C       -0.92084186      -0.11967747      -0.23874762
N       -0.54737541      -0.93817718      -1.18830308
O        0.84069416      -1.06897817      -1.06490329
C        1.16957400      -0.12435410      -0.19028477
N        2.43139707       0.05122224       0.44965875
C        0.16888514       0.39266831       0.55671175
H       -2.95779749      -0.32305529      -0.83015781
H       -2.71287566      -0.08007759       0.91247772
H       -2.53182224       1.27806455      -0.19251613
H        2.99485734       0.77704600       0.02157088
H        2.97718417      -0.80347780       0.48309817
H        1.45518498       0.75385993       1.36385084
13
Frame=14 idx=008551 GeodesicLength=0.7126517046853578 rxn_smarts="[C:1]([c:2]1[n:3][o:4][c:5]([N:6]([H:11])[H:12])[c:7]1[H:13])([H:8])([H:9])[H:10]>>[C:1]([C:2]1=[C:7]=[C:5]([N+:6]([H:11])([H:12])[H:13])[O:4][N-:3]1)([H:8])([H:9])[H:10]"
C       -2.36463458       0.20697402      -0.08354392
C       -0.91948106      -0.12305189      -0.23781389
N       -0.54641456      -0.94552452      -1.18362703
O        0.84132766      -1.07725691      -1.05636893
C        1.17136009      -0.12265662      -0.19287226
N        2.43179691       0.04581622       0.44919536
C        0.16915622       0.39055169       0.55752397
H       -2.95618141      -0.32133298      -0.83038765
H       -2.71236668      -0.07423461       0.91180909
H       -2.52609333       1.28025976      -0.19690587
H        2.98816768       0.78439378       0.03403763
H        2.98328510      -0.80588644       0.45076907
H        1.44007796       0.76194849       1.37818443
13
Frame=15 idx=008551 GeodesicLength=0.7636239323834093 rxn_smarts="[C:1]([c:2]1[n:3][o:4][c:5]([N:6]([H:11])[H:12])[c:7]1[H:13])([H:8])([H:9])[H:10]>>[C:1]([C:2]1=[C:7]=[C:5]([N+:6]([H:11])([H:12])[H:13])[O:4][N-:3]1)([H:8])([H:9])[H:10]"
C       -2.36214254       0.20906618      -0.08464460
C       -0.91810962      -0.12656257      -0.23676896
N       -0.54547991      -0.95293806      -1.17889292
O        0.84194340      -1.08550439      -1.04788705
C        1.17313670      -0.12139757      -0.19522958
N        2.43233803       0.03996873       0.44860126
C        0.16946521       0.38803249       0.55858283
H       -2.95450896      -0.31940111      -0.83073248
H       -2.71191647      -0.06836642       0.91106247
H       -2.52012401       1.28252831      -0.20122236
H        2.98131851       0.79129953       0.04689251
H        2.98958251      -0.80744563       0.41784125
H        1.42449714       0.77072050       1.39239761
13
Frame=16 idx=008551 GeodesicLength=0.8146057285085768 rxn_smarts="[C:1]([c:2]1[n:3][o:4][c:5]([N:6]([H:11])[H:12])[c:7]1[H:13])([H:8])([H:9])[H:10]>>[C:1]([C:2]1=[C:7]=[C:5]([N+:6]([H:11])([H:12])[H:13])[O:4][N-:3]1)([H:8])([H:9])[H:10]"
C       -2.35958827       0.21115170      -0.08571141
C       -0.91670690      -0.13009885      -0.23570534
N       -0.54454777      -0.96022664      -1.17425800
O        0.84253413      -1.09371224      -1.03946855
C        1.17492651      -0.12053946      -0.19738587
N        2.43301561       0.03360172       0.44792725
C        0.16983300       0.38526030       0.55977137
H       -2.95278037      -0.31731292      -0.83115219
H       -2.71142181      -0.06266181       0.91028169
H       -2.51403610       1.28479936      -0.20530762
H        2.97444712       0.79753447       0.06016330
H        2.99590430      -0.80828378       0.38454658
H        1.40842055       0.78048815       1.40629880
