16
Frame=0 idx=001103 GeodesicLength=0.0 rxn_smarts="[C:1]([O:2][C:3]([C:4]1([H:12])[C:5]([H:13])([H:14])[C:6]1([H:15])[H:16])([H:10])[H:11])([H:7])([H:8])[H:9]>>[C:1](=[O:2])([H:8])[H:9].[C:3](=[C:4]([C:5]([C:6]([H:7])([H:15])[H:16])([H:13])[H:14])[H:12])([H:10])[H:11]"
C        1.83146355      -0.54274439      -0.42306499
O        1.95414793       0.34232593       0.51636919
C        0.33875278       1.06192785       1.16766271
C       -0.67168875       0.99120953       0.23273354
C       -1.73622851      -0.05914741       0.16815137
C       -0.83780872      -0.79601113      -0.74226251
H        0.61508635      -0.57080650      -0.72944979
H        2.27226198      -0.28337129      -1.39764120
H        1.98786782      -1.59681806      -0.13966615
H        0.26876487       0.45237513       2.06120711
H        0.84050739       2.00921783       1.29001656
H       -0.68357755       1.71692503      -0.57361864
H       -2.67652042       0.28642214      -0.25554081
H       -1.90993772      -0.55549364       1.12066748
H       -0.60619327      -1.82657576      -0.49220441
H       -0.98689777      -0.62943532      -1.80335953
16
Frame=1 idx=001103 GeodesicLength=0.09754187721570537 rxn_smarts="[C:1]([O:2][C:3]([C:4]1([H:12])[C:5]([H:13])([H:14])[C:6]1([H:15])[H:16])([H:10])[H:11])([H:7])([H:8])[H:9]>>[C:1](=[O:2])([H:8])[H:9].[C:3](=[C:4]([C:5]([C:6]([H:7])([H:15])[H:16])([H:13])[H:14])[H:12])([H:10])[H:11]"
C        1.85470515      -0.54466790      -0.41705495
O        1.97628543       0.38344095       0.47989667
C        0.34131090       1.05476774       1.15944153
C       -0.67717424       0.98828331       0.23002143
C       -1.74391436      -0.05955922       0.17488192
C       -0.84859164      -0.78480192      -0.75148658
H        0.62651496      -0.59120406      -0.75004953
H        2.30385571      -0.32878936      -1.39840384
H        2.00912187      -1.58238259      -0.07731460
H        0.27486702       0.43294447       2.04569886
H        0.82116966       2.01023949       1.30914261
H       -0.69954733       1.72453342      -0.56651920
H       -2.68785115       0.28892247      -0.23795826
H       -1.90514064      -0.56176235       1.12641973
H       -0.63655365      -1.82341556      -0.51736904
H       -1.00905768      -0.60654889      -1.80934674
16
Frame=2 idx=001103 GeodesicLength=0.1946813198309439 rxn_smarts="[C:1]([O:2][C:3]([C:4]1([H:12])[C:5]([H:13])([H:14])[C:6]1([H:15])[H:16])([H:10])[H:11])([H:7])([H:8])[H:9]>>[C:1](=[O:2])([H:8])[H:9].[C:3](=[C:4]([C:5]([C:6]([H:7])([H:15])[H:16])([H:13])[H:14])[H:12])([H:10])[H:11]"
C        1.87793327      -0.54560155      -0.41062440
O        1.99667149       0.42203500       0.44389408
C        0.34419907       1.04733712       1.15083063
C       -0.68232101       0.98519186       0.22696799
C       -1.75162460      -0.05969992       0.18143358
C       -0.85970962      -0.77417634      -0.76021665
H        0.63774112      -0.61498001      -0.76928001
H        2.33423029      -0.37016084      -1.39694688
H        2.03206826      -1.56463911      -0.01768467
H        0.28031125       0.41426200       2.03024990
H        0.80404035       2.00900399       1.32682231
H       -0.71438188       1.73145766      -0.55993087
H       -2.69880504       0.29196881      -0.22093047
H       -1.90088860      -0.56724097       1.13200813
H       -0.66850808      -1.82039581      -0.54187979
H       -1.03095626      -0.58436189      -1.81471289
16
Frame=3 idx=001103 GeodesicLength=0.2914929653413312 rxn_smarts="[C:1]([O:2][C:3]([C:4]1([H:12])[C:5]([H:13])([H:14])[C:6]1([H:15])[H:16])([H:10])[H:11])([H:7])([H:8])[H:9]>>[C:1](=[O:2])([H:8])[H:9].[C:3](=[C:4]([C:5]([C:6]([H:7])([H:15])[H:16])([H:13])[H:14])[H:12])([H:10])[H:11]"
C        1.90119277      -0.54556101      -0.40392342
O        2.01550734       0.45836982       0.40830628
C        0.34732987       1.03959470       1.14194258
C       -0.68716759       0.98197248       0.22362840
C       -1.75940802      -0.05950219       0.18774534
C       -0.87108736      -0.76411059      -0.76840372
H        0.64877368      -0.64230958      -0.78671259
H        2.36320943      -0.40761063      -1.39381284
H        2.05701483      -1.54384745       0.03919885
H        0.28505596       0.39608273       2.01486493
H        0.78886498       2.00570357       1.34335324
H       -0.72801266       1.73773448      -0.55382923
H       -2.70938528       0.29564454      -0.20463831
H       -1.89735084      -0.57184784       1.13737225
H       -0.70214430      -1.81744889      -0.56564371
H       -1.05239283      -0.56286415      -1.81944805
16
Frame=4 idx=001103 GeodesicLength=0.3880863383325414 rxn_smarts="[C:1]([O:2][C:3]([C:4]1([H:12])[C:5]([H:13])([H:14])[C:6]1([H:15])[H:16])([H:10])[H:11])([H:7])([H:8])[H:9]>>[C:1](=[O:2])([H:8])[H:9].[C:3](=[C:4]([C:5]([C:6]([H:7])([H:15])[H:16])([H:13])[H:14])[H:12])([H:10])[H:11]"
C        1.92451972      -0.54458343      -0.39705127
O        2.03294157       0.49274319       0.37298995
C        0.35063253       1.03151341       1.13286336
C       -0.69177396       0.97866472       0.22007491
C       -1.76729632      -0.05893832       0.19378017
C       -0.88264762      -0.75455550      -0.77604541
H        0.65961663      -0.67330650      -0.80196303
H        2.39071931      -0.44144068      -1.38944246
H        2.08414689      -1.52019412       0.09345988
H        0.28911549       0.37819057       1.99953349
H        0.77541723       2.00051974       1.35896880
H       -0.74046179       1.74342834      -0.54815437
H       -2.71961301       0.29997224      -0.18918572
H       -1.89461186      -0.57558255       1.14247589
H       -0.73752095      -1.81447146      -0.58871716
H       -1.07318386      -0.54195965      -1.82358703
16
Frame=5 idx=001103 GeodesicLength=0.48375394517974024 rxn_smarts="[C:1]([O:2][C:3]([C:4]1([H:12])[C:5]([H:13])([H:14])[C:6]1([H:15])[H:16])([H:10])[H:11])([H:7])([H:8])[H:9]>>[C:1](=[O:2])([H:8])[H:9].[C:3](=[C:4]([C:5]([C:6]([H:7])([H:15])[H:16])([H:13])[H:14])[H:12])([H:10])[H:11]"
C        1.94771019      -0.54268407      -0.39014498
O        2.04909049       0.52530581       0.33792625
C        0.35405137       1.02309016       1.12372809
C       -0.69613666       0.97531055       0.21636997
C       -1.77527050      -0.05797474       0.19944516
C       -0.89417868      -0.74551641      -0.78310187
H        0.67028689      -0.70815647      -0.81422066
H        2.41617677      -0.47185102      -1.38438767
H        2.11366671      -1.49365607       0.14494283
H        0.29247735       0.36043193       1.98429340
H        0.76350823       1.99358391       1.37391421
H       -0.75161526       1.74859427      -0.54290069
H       -2.72941669       0.30497632      -0.17481871
H       -1.89278804      -0.57840765       1.14724537
H       -0.77462247      -1.81140885      -0.61116028
H       -1.09293969      -0.52163768      -1.82713041
16
Frame=6 idx=001103 GeodesicLength=0.5791134385581362 rxn_smarts="[C:1]([O:2][C:3]([C:4]1([H:12])[C:5]([H:13])([H:14])[C:6]1([H:15])[H:16])([H:10])[H:11])([H:7])([H:8])[H:9]>>[C:1](=[O:2])([H:8])[H:9].[C:3](=[C:4]([C:5]([C:6]([H:7])([H:15])[H:16])([H:13])[H:14])[H:12])([H:10])[H:11]"
C        1.97088877      -0.53997593      -0.38319480
O        2.06400243       0.55636730       0.30282452
C        0.35754420       1.01434708       1.11452636
C       -0.70039775       0.97195688       0.21262163
C       -1.78334069      -0.05669219       0.20478443
C       -0.90564570      -0.73684771      -0.78970146
H        0.68076243      -0.74669575      -0.82343465
H        2.43994893      -0.49953145      -1.37879373
H        2.14543645      -1.46446391       0.19412981
H        0.29523125       0.34273390       1.96909747
H        0.75300817       1.98509277       1.38821437
H       -0.76178971       1.75337167      -0.53787723
H       -2.73890275       0.31050487      -0.16138075
H       -1.89173979      -0.58054417       1.15168843
H       -0.81336321      -1.80803103      -0.63330346
H       -1.11164303      -0.50159233      -1.83020093
16
Frame=7 idx=001103 GeodesicLength=0.6741579972975384 rxn_smarts="[C:1]([O:2][C:3]([C:4]1([H:12])[C:5]([H:13])([H:14])[C:6]1([H:15])[H:16])([H:10])[H:11])([H:7])([H:8])[H:9]>>[C:1](=[O:2])([H:8])[H:9].[C:3](=[C:4]([C:5]([C:6]([H:7])([H:15])[H:16])([H:13])[H:14])[H:12])([H:10])[H:11]"
C        1.99396736      -0.53654296      -0.37620485
O        2.07772051       0.58598966       0.26761233
C        0.36107785       1.00531897       1.10528223
C       -0.70462064       0.96863773       0.20890146
C       -1.79147526      -0.05515607       0.20979912
C       -0.91694000      -0.72848991      -0.79591168
H        0.69103452      -0.78879368      -0.82934196
H        2.46202291      -0.52484123      -1.37281368
H        2.17931470      -1.43273602       0.24112826
H        0.29740122       0.32510634       1.95396496
H        0.74386297       1.97520189       1.40186252
H       -0.77113767       1.75785322      -0.53298154
H       -2.74808328       0.31643315      -0.14884046
H       -1.89137285      -0.58213808       1.15578711
H       -0.85358598      -1.80416215      -0.65538085
H       -1.12918636      -0.48168086      -1.83286298
16
Frame=8 idx=001103 GeodesicLength=0.7690024791197464 rxn_smarts="[C:1]([O:2][C:3]([C:4]1([H:12])[C:5]([H:13])([H:14])[C:6]1([H:15])[H:16])([H:10])[H:11])([H:7])([H:8])[H:9]>>[C:1](=[O:2])([H:8])[H:9].[C:3](=[C:4]([C:5]([C:6]([H:7])([H:15])[H:16])([H:13])[H:14])[H:12])([H:10])[H:11]"
C        2.01691078      -0.53249503      -0.36916752
O        2.09029059       0.61422339       0.23220543
C        0.36463075       0.99604676       1.09599381
C       -0.70888342       0.96538851       0.20528192
C       -1.79963935      -0.05345786       0.21450916
C       -0.92796654      -0.72035965      -0.80182790
H        0.70109229      -0.83416433      -0.83182512
H        2.48248716      -0.54827713      -1.36650177
H        2.21499793      -1.39857556       0.28609605
H        0.29903735       0.30758524       1.93890317
H        0.73602802       1.96406874       1.41480994
H       -0.77988288       1.76215243      -0.52808669
H       -2.75700014       0.32259670      -0.13710220
H       -1.89154500      -0.58339156       1.15954220
H       -0.89502793      -1.79960350      -0.67763649
H       -1.14552960      -0.46173713      -1.83519400
16
Frame=9 idx=001103 GeodesicLength=0.863170001164828 rxn_smarts="[C:1]([O:2][C:3]([C:4]1([H:12])[C:5]([H:13])([H:14])[C:6]1([H:15])[H:16])([H:10])[H:11])([H:7])([H:8])[H:9]>>[C:1](=[O:2])([H:8])[H:9].[C:3](=[C:4]([C:5]([C:6]([H:7])([H:15])[H:16])([H:13])[H:14])[H:12])([H:10])[H:11]"
C        2.03949687      -0.52795899      -0.36212133
O        2.10181252       0.64100317       0.19670622
C        0.36817886       0.98662064       1.08668985
C       -0.71322657       0.96223855       0.20182208
C       -1.80775070      -0.05170495       0.21891443
C       -0.93855672      -0.71240624      -0.80751857
H        0.71091846      -0.88228883      -0.83071060
H        2.50130507      -0.57039507      -1.35996230
H        2.25194064      -1.36202129       0.32895863
H        0.30017114       0.29026432       1.92397737
H        0.72944452       1.95185464       1.42699432
H       -0.78819664       1.76637498      -0.52309907
H       -2.76562897       0.32880003      -0.12611903
H       -1.89209150      -0.58451345       1.16293601
H       -0.93720291      -1.79419484      -0.70023894
H       -1.16061406      -0.44167266      -1.83722905
16
Frame=10 idx=001103 GeodesicLength=0.9572300397927292 rxn_smarts="[C:1]([O:2][C:3]([C:4]1([H:12])[C:5]([H:13])([H:14])[C:6]1([H:15])[H:16])([H:10])[H:11])([H:7])([H:8])[H:9]>>[C:1](=[O:2])([H:8])[H:9].[C:3](=[C:4]([C:5]([C:6]([H:7])([H:15])[H:16])([H:13])[H:14])[H:12])([H:10])[H:11]"
C        2.06182889      -0.52305437      -0.35494786
O        2.11232622       0.66632097       0.16097288
C        0.37171365       0.97707533       1.07729604
C       -0.71774130       0.95920193       0.19856437
C       -1.81579554      -0.05001325       0.22308094
C       -0.94875200      -0.70452446      -0.81311752
H        0.72050094      -0.93277695      -0.82629073
H        2.51887488      -0.59158720      -1.35302323
H        2.28983660      -1.32333752       0.37002666
H        0.30085263       0.27324025       1.90916112
H        0.72413182       1.93874709       1.43828660
H       -0.79637777       1.77059668      -0.51786875
H       -2.77406234       0.33484908      -0.11565443
H       -1.89280908      -0.58572918       1.16597848
H       -0.97988139      -1.78769837      -0.72341133
H       -1.17464619      -0.42131002      -1.83905322
16
Frame=11 idx=001103 GeodesicLength=1.0512347048381416 rxn_smarts="[C:1]([O:2][C:3]([C:4]1([H:12])[C:5]([H:13])([H:14])[C:6]1([H:15])[H:16])([H:10])[H:11])([H:7])([H:8])[H:9]>>[C:1](=[O:2])([H:8])[H:9].[C:3](=[C:4]([C:5]([C:6]([H:7])([H:15])[H:16])([H:13])[H:14])[H:12])([H:10])[H:11]"
C        2.08389926      -0.51786618      -0.34760470
O        2.12193687       0.69012543       0.12504486
C        0.37523278       0.96745461       1.06777638
C       -0.72245364       0.95628491       0.19552065
C       -1.82372723      -0.04846994       0.22704257
C       -0.95853310      -0.69666355      -0.81871145
H        0.72984752      -0.98515145      -0.81882203
H        2.53532603      -0.61215221      -1.34556055
H        2.32819514      -1.28273949       0.40937171
H        0.30112826       0.25659139       1.89445920
H        0.72005033       1.92490167       1.44861373
H       -0.80458879       1.77487422      -0.51232171
H       -2.78232141       0.34060346      -0.10556681
H       -1.89353785      -0.58720409       1.16867687
H       -1.02267150      -1.77998768      -0.74721132
H       -1.18778268      -0.40060111      -1.84070739
16
Frame=12 idx=001103 GeodesicLength=1.1452108051853325 rxn_smarts="[C:1]([O:2][C:3]([C:4]1([H:12])[C:5]([H:13])([H:14])[C:6]1([H:15])[H:16])([H:10])[H:11])([H:7])([H:8])[H:9]>>[C:1](=[O:2])([H:8])[H:9].[C:3](=[C:4]([C:5]([C:6]([H:7])([H:15])[H:16])([H:13])[H:14])[H:12])([H:10])[H:11]"
C        2.10570244      -0.51245480      -0.34005879
O        2.13076722       0.71236832       0.08898976
C        0.37872859       0.95777978       1.05810007
C       -0.72737615       0.95347974       0.19268700
C       -1.83152468      -0.04713527       0.23083100
C       -0.96793021      -0.68878568      -0.82437023
H        0.73895767      -1.03896066      -0.80863933
H        2.55089747      -0.63229030      -1.33751091
H        2.36657605      -1.24041638       0.44710644
H        0.30103578       0.24034688       1.87986795
H        0.71717071       1.91043918       1.45792152
H       -0.81294007       1.77923742      -0.50641430
H       -2.79043488       0.34597584      -0.09572814
H       -1.89416864      -0.58905463       1.17104182
H       -1.06522605      -1.77098892      -0.77160283
H       -1.20023524      -0.37954052      -1.84222103
16
Frame=13 idx=001103 GeodesicLength=1.2390408610932524 rxn_smarts="[C:1]([O:2][C:3]([C:4]1([H:12])[C:5]([H:13])([H:14])[C:6]1([H:15])[H:16])([H:10])[H:11])([H:7])([H:8])[H:9]>>[C:1](=[O:2])([H:8])[H:9].[C:3](=[C:4]([C:5]([C:6]([H:7])([H:15])[H:16])([H:13])[H:14])[H:12])([H:10])[H:11]"
C        2.12725369      -0.50688188      -0.33225636
O        2.13894658       0.73300808       0.05287709
C        0.38219748       0.94807239       1.04824316
C       -0.73250670       0.95077894       0.19005131
C       -1.83916197      -0.04605965       0.23446961
C       -0.97696557      -0.68086064      -0.83014987
H        0.74785324      -1.09375086      -0.79606960
H        2.56566253      -0.65222092      -1.32875745
H        2.40461290      -1.19651991       0.48324739
H        0.30061962       0.22453280       1.86538715
H        0.71542606       1.89546317       1.46618300
H       -0.82151074       1.78370364      -0.50012161
H       -2.79841848       0.35089259      -0.08603622
H       -1.89460426      -0.59137160       1.17307734
H       -1.10721597      -1.76065133      -0.79653026
H       -1.21218840      -0.35813483      -1.84361468
16
Frame=14 idx=001103 GeodesicLength=1.332945922839994 rxn_smarts="[C:1]([O:2][C:3]([C:4]1([H:12])[C:5]([H:13])([H:14])[C:6]1([H:15])[H:16])([H:10])[H:11])([H:7])([H:8])[H:9]>>[C:1](=[O:2])([H:8])[H:9].[C:3](=[C:4]([C:5]([C:6]([H:7])([H:15])[H:16])([H:13])[H:14])[H:12])([H:10])[H:11]"
C        2.14865822      -0.50110448      -0.32418073
O        2.14658175       0.75210556       0.01671848
C        0.38562543       0.93829195       1.03818449
C       -0.73783516       0.94815946       0.18758614
C       -1.84666984      -0.04523125       0.23797791
C       -0.98575247      -0.67286708      -0.83608809
H        0.75652078      -1.14937558      -0.78143612
H        2.57992248      -0.67200879      -1.31923939
H        2.44209649      -1.15110570       0.51788396
H        0.29992408       0.20903747       1.85095853
H        0.71475293       1.88000030       1.47344661
H       -0.83029282       1.78825924      -0.49344597
H       -2.80631046       0.35539940      -0.07641132
H       -1.89485457      -0.59415598       1.17479283
H       -1.14850069      -1.74899109      -0.82184517
H       -1.22386615      -0.33641341      -1.84490214
16
Frame=15 idx=001103 GeodesicLength=1.426897392761116 rxn_smarts="[C:1]([O:2][C:3]([C:4]1([H:12])[C:5]([H:13])([H:14])[C:6]1([H:15])[H:16])([H:10])[H:11])([H:7])([H:8])[H:9]>>[C:1](=[O:2])([H:8])[H:9].[C:3](=[C:4]([C:5]([C:6]([H:7])([H:15])[H:16])([H:13])[H:14])[H:12])([H:10])[H:11]"
C        2.16997668      -0.49508603      -0.31582044
O        2.15378933       0.76969349      -0.01944206
C        0.38900282       0.92840346       1.02791671
C       -0.74333906       0.94559967       0.18526362
C       -1.85406699      -0.04463588       0.24136128
C       -0.99436930      -0.66479226      -0.84221242
H        0.76497938      -1.20566859      -0.76498259
H        2.59377043      -0.69170220      -1.30889562
H        2.47888856      -1.10421363       0.55103155
H        0.29898438       0.19376598       1.83654228
H        0.71507911       1.86406575       1.47976597
H       -0.83925078       1.79288477      -0.48640586
H       -2.81412886       0.35954114      -0.06681400
H       -1.89493467      -0.59739698       1.17618618
H       -1.18894519      -1.73604401      -0.84740061
H       -1.23543584      -0.31441468      -1.84609399
16
Frame=16 idx=001103 GeodesicLength=1.5209045530014038 rxn_smarts="[C:1]([O:2][C:3]([C:4]1([H:12])[C:5]([H:13])([H:14])[C:6]1([H:15])[H:16])([H:10])[H:11])([H:7])([H:8])[H:9]>>[C:1](=[O:2])([H:8])[H:9].[C:3](=[C:4]([C:5]([C:6]([H:7])([H:15])[H:16])([H:13])[H:14])[H:12])([H:10])[H:11]"
C        2.19129371      -0.48876560      -0.30714885
O        2.16065148       0.78583767      -0.05561625
C        0.39232045       0.91836468       1.01743548
C       -0.74900045       0.94307948       0.18306359
C       -1.86137974      -0.04425138       0.24462156
C       -1.00289837      -0.65661689      -0.84854723
H        0.77323347      -1.26258112      -0.74686064
H        2.60731948      -0.71136447      -1.29766585
H        2.51492101      -1.05581889       0.58268108
H        0.29783830       0.17860327       1.82208689
H        0.71633552       1.84765044       1.48521110
H       -0.84834142       1.79756515      -0.47901134
H       -2.82189328       0.36337511      -0.05721267
H       -1.89487566      -0.60107728       1.17725160
H       -1.22849763      -1.72185158      -0.87308925
H       -1.24702687      -0.29214857      -1.84719925
