10
Frame=0 idx=005045 GeodesicLength=0.0 rxn_smarts="[C:1]([c:2]1[n:3][c:4]([H:10])[n:5][o:6]1)([H:7])([H:8])[H:9]>>[C:1]([C:2]([N:3]1[C:4]([H:10])=[N:5]1)=[O:6])([H:7])([H:8])[H:9]"
C       -1.62409111       0.07318973       0.07669905
C       -0.20439823      -0.21951766      -0.38074154
N        0.70182977       0.55186552       0.25398561
C        2.05282912       0.18656893       0.33141243
N        2.29168889      -0.37530828      -0.72756439
O        0.02294981      -1.06511944      -1.22698879
H       -1.68042347       0.89599712       0.78372639
H       -2.02124616      -0.83358243       0.53282320
H       -2.22571904       0.29739131      -0.80320243
H        2.68658041       0.48851521       1.15985046
10
Frame=1 idx=005045 GeodesicLength=0.059527082440402536 rxn_smarts="[C:1]([c:2]1[n:3][c:4]([H:10])[n:5][o:6]1)([H:7])([H:8])[H:9]>>[C:1]([C:2]([N:3]1[C:4]([H:10])=[N:5]1)=[O:6])([H:7])([H:8])[H:9]"
C       -1.62530986       0.07137280       0.07551517
C       -0.20150100      -0.22390634      -0.35812001
N        0.70414284       0.57225006       0.24876891
C        2.04858928       0.18697749       0.32735688
N        2.26828074      -0.36038127      -0.74569157
O        0.04663682      -1.07643384      -1.19545607
H       -1.68846669       0.88990864       0.78717736
H       -2.03456204      -0.83624660       0.51898652
H       -2.21131820       0.30722379      -0.81198783
H        2.69350810       0.46923527       1.15345065
10
Frame=2 idx=005045 GeodesicLength=0.11922486959404138 rxn_smarts="[C:1]([c:2]1[n:3][c:4]([H:10])[n:5][o:6]1)([H:7])([H:8])[H:9]>>[C:1]([C:2]([N:3]1[C:4]([H:10])=[N:5]1)=[O:6])([H:7])([H:8])[H:9]"
C       -1.62625767       0.06946934       0.07431133
C       -0.19863563      -0.22807311      -0.33553456
N        0.70637447       0.59136195       0.24324324
C        2.04420485       0.18744006       0.32339719
N        2.24487527      -0.34808838      -0.76163690
O        0.06932278      -1.08665089      -1.16441290
H       -1.69616873       0.88262205       0.79162732
H       -2.04760162      -0.83935088       0.50350686
H       -2.19637721       0.31839935      -0.82004571
H        2.70026349       0.45287050       1.14554413
10
Frame=3 idx=005045 GeodesicLength=0.17887776394131194 rxn_smarts="[C:1]([c:2]1[n:3][c:4]([H:10])[n:5][o:6]1)([H:7])([H:8])[H:9]>>[C:1]([C:2]([N:3]1[C:4]([H:10])=[N:5]1)=[O:6])([H:7])([H:8])[H:9]"
C       -1.62698284       0.06748558       0.07315760
C       -0.19580997      -0.23162693      -0.31331006
N        0.70858191       0.60990368       0.23690709
C        2.03980040       0.18819614       0.31933701
N        2.22177558      -0.33806494      -0.77583742
O        0.09110364      -1.09595039      -1.13394340
H       -1.70364164       0.87460292       0.79679925
H       -2.05999368      -0.84283589       0.48710026
H       -2.18129563       0.33015238      -0.82731526
H        2.70646225       0.43813745       1.13710494
10
Frame=4 idx=005045 GeodesicLength=0.23857231446309218 rxn_smarts="[C:1]([c:2]1[n:3][c:4]([H:10])[n:5][o:6]1)([H:7])([H:8])[H:9]>>[C:1]([C:2]([N:3]1[C:4]([H:10])=[N:5]1)=[O:6])([H:7])([H:8])[H:9]"
C       -1.62754492       0.06549220       0.07193295
C       -0.19299523      -0.23495360      -0.29108751
N        0.71068764       0.62747823       0.23042340
C        2.03544071       0.18929381       0.31513674
N        2.19877294      -0.32926923      -0.78899848
O        0.11209753      -1.10492353      -1.10330053
H       -1.71108505       0.86586919       0.80246035
H       -2.07211127      -0.84644059       0.46950514
H       -2.16578609       0.34270028      -0.83401565
H        2.71252375       0.42475322       1.12794359
10
Frame=5 idx=005045 GeodesicLength=0.2983585837399144 rxn_smarts="[C:1]([c:2]1[n:3][c:4]([H:10])[n:5][o:6]1)([H:7])([H:8])[H:9]>>[C:1]([C:2]([N:3]1[C:4]([H:10])=[N:5]1)=[O:6])([H:7])([H:8])[H:9]"
C       -1.62796607       0.06349922       0.07060767
C       -0.19022871      -0.23788922      -0.26868010
N        0.71268951       0.64421679       0.22384356
C        2.03119193       0.19082935       0.31064003
N        2.17583947      -0.32130623      -0.80140344
O        0.13240032      -1.11377442      -1.07214712
H       -1.71864099       0.85658562       0.80849390
H       -2.08386599      -0.85019270       0.45076772
H       -2.14985900       0.35588218      -0.84028882
H        2.71843952       0.41214941       1.11816660
10
Frame=6 idx=005045 GeodesicLength=0.3582429924729969 rxn_smarts="[C:1]([c:2]1[n:3][c:4]([H:10])[n:5][o:6]1)([H:7])([H:8])[H:9]>>[C:1]([C:2]([N:3]1[C:4]([H:10])=[N:5]1)=[O:6])([H:7])([H:8])[H:9]"
C       -1.62825586       0.06152396       0.06911430
C       -0.18742691      -0.24070238      -0.24587825
N        0.71447722       0.65998550       0.21771325
C        2.02708315       0.19285744       0.30575986
N        2.15272683      -0.31350173      -0.81355376
O        0.15213994      -1.12259239      -1.04006482
H       -1.72644130       0.84679344       0.81452686
H       -2.09550230      -0.85376740       0.43094970
H       -2.13323581       0.36948211      -0.84625510
H        2.72443503       0.39992145       1.10768796
10
Frame=7 idx=005045 GeodesicLength=0.4181747278930792 rxn_smarts="[C:1]([c:2]1[n:3][c:4]([H:10])[n:5][o:6]1)([H:7])([H:8])[H:9]>>[C:1]([C:2]([N:3]1[C:4]([H:10])=[N:5]1)=[O:6])([H:7])([H:8])[H:9]"
C       -1.62839304       0.05956294       0.06753567
C       -0.18471979      -0.24288078      -0.22332670
N        0.71621436       0.67510286       0.21134682
C        2.02297475       0.19487023       0.30092312
N        2.12967477      -0.30689750      -0.82475135
O        0.17118953      -1.13103210      -1.00786274
H       -1.73436865       0.83645087       0.82084661
H       -2.10636795      -0.85747700       0.41017699
H       -2.11654242       0.38354410      -0.85155069
H        2.73033844       0.38875638       1.09666226
10
Frame=8 idx=005045 GeodesicLength=0.4781652409713037 rxn_smarts="[C:1]([c:2]1[n:3][c:4]([H:10])[n:5][o:6]1)([H:7])([H:8])[H:9]>>[C:1]([C:2]([N:3]1[C:4]([H:10])=[N:5]1)=[O:6])([H:7])([H:8])[H:9]"
C       -1.62833774       0.05761211       0.06590734
C       -0.18210074      -0.24427695      -0.20131544
N        0.71791381       0.68974443       0.20449915
C        2.01878093       0.19678766       0.29620975
N        2.10675617      -0.30163277      -0.83491186
O        0.18955722      -1.13890793      -0.97578343
H       -1.74232257       0.82559906       0.82736218
H       -2.11621721      -0.86129198       0.38873488
H       -2.09998431       0.39785002      -0.85602986
H        2.73595444       0.37851635       1.08532729
10
Frame=9 idx=005045 GeodesicLength=0.5382121545845537 rxn_smarts="[C:1]([c:2]1[n:3][c:4]([H:10])[n:5][o:6]1)([H:7])([H:8])[H:9]>>[C:1]([C:2]([N:3]1[C:4]([H:10])=[N:5]1)=[O:6])([H:7])([H:8])[H:9]"
C       -1.62807199       0.05567752       0.06426956
C       -0.17954213      -0.24477970      -0.18016296
N        0.71963208       0.70401514       0.19692504
C        2.01442926       0.19852427       0.29172134
N        2.08410029      -0.29783155      -0.84393535
O        0.20725552      -1.14608529      -0.94413565
H       -1.75017522       0.81430777       0.83402129
H       -2.12483983      -0.86521177       0.36693740
H       -2.08386536       0.41225135      -0.85957883
H        2.74107737       0.36913227       1.07393816
10
Frame=10 idx=005045 GeodesicLength=0.598276499423221 rxn_smarts="[C:1]([c:2]1[n:3][c:4]([H:10])[n:5][o:6]1)([H:7])([H:8])[H:9]>>[C:1]([C:2]([N:3]1[C:4]([H:10])=[N:5]1)=[O:6])([H:7])([H:8])[H:9]"
C       -1.62763308       0.05376372       0.06262300
C       -0.17707692      -0.24443709      -0.15982200
N        0.72137147       0.71791767       0.18866870
C        2.00996551       0.20008309       0.28745280
N        2.06175450      -0.29532981      -0.85193004
O        0.22432723      -1.15259905      -0.91292492
H       -1.75795499       0.80264507       0.84076307
H       -2.13229874      -0.86920126       0.34487398
H       -2.06823168       0.42668298      -0.86225675
H        2.74577671       0.36047469       1.06255217
10
Frame=11 idx=005045 GeodesicLength=0.658361594193427 rxn_smarts="[C:1]([c:2]1[n:3][c:4]([H:10])[n:5][o:6]1)([H:7])([H:8])[H:9]>>[C:1]([C:2]([N:3]1[C:4]([H:10])=[N:5]1)=[O:6])([H:7])([H:8])[H:9]"
C       -1.62702567       0.05187790       0.06097903
C       -0.17468271      -0.24327491      -0.14035931
N        0.72315117       0.73148535       0.17966699
C        2.00538729       0.20150870       0.28339547
N        2.03976348      -0.29403208      -0.85896060
O        0.24081723      -1.15847141      -0.88218353
H       -1.76561855       0.79065217       0.84753889
H       -2.13858269      -0.87323474       0.32268268
H       -2.05319237       0.44109950      -0.86406494
H        2.74998282       0.35238952       1.05130532
10
Frame=12 idx=005045 GeodesicLength=0.7184585165631034 rxn_smarts="[C:1]([c:2]1[n:3][c:4]([H:10])[n:5][o:6]1)([H:7])([H:8])[H:9]>>[C:1]([C:2]([N:3]1[C:4]([H:10])=[N:5]1)=[O:6])([H:7])([H:8])[H:9]"
C       -1.62625624       0.05002286       0.05935485
C       -0.17234679      -0.24128385      -0.12184660
N        0.72498768       0.74477536       0.16983315
C        2.00070335       0.20285984       0.27952642
N        2.01819336      -0.29384113      -0.86509164
O        0.25677838      -1.16369833      -0.85196382
H       -1.77312390       0.77839849       0.85430162
H       -2.14366839      -0.87730270       0.30054159
H       -2.03886726       0.45540863      -0.86501949
H        2.75359980       0.34466082       1.04036393
10
Frame=13 idx=005045 GeodesicLength=0.7785753828411826 rxn_smarts="[C:1]([c:2]1[n:3][c:4]([H:10])[n:5][o:6]1)([H:7])([H:8])[H:9]>>[C:1]([C:2]([N:3]1[C:4]([H:10])=[N:5]1)=[O:6])([H:7])([H:8])[H:9]"
C       -1.62531191       0.04819665       0.05776512
C       -0.17008823      -0.23843307      -0.10435907
N        0.72688729       0.75784235       0.15906967
C        1.99590716       0.20418370       0.27582871
N        1.99709117      -0.29468492      -0.87037524
O        0.27223377      -1.16826864      -0.82231748
H       -1.78039882       0.76594774       0.86102919
H       -2.14750103      -0.88140766       0.27859437
H       -2.02534113       0.46951885      -0.86512752
H        2.75652171       0.33710501       1.02989225
10
Frame=14 idx=005045 GeodesicLength=0.8386939970304321 rxn_smarts="[C:1]([c:2]1[n:3][c:4]([H:10])[n:5][o:6]1)([H:7])([H:8])[H:9]>>[C:1]([C:2]([N:3]1[C:4]([H:10])=[N:5]1)=[O:6])([H:7])([H:8])[H:9]"
C       -1.62425116       0.04641241       0.05617409
C       -0.16787053      -0.23499572      -0.08757345
N        0.72883429       0.77053231       0.14764379
C        1.99107310       0.20551823       0.27224027
N        1.97635131      -0.29635852      -0.87495805
O        0.28723996      -1.17236487      -0.79294885
H       -1.78756879       0.75318013       0.86772850
H       -2.15042546      -0.88544968       0.25656405
H       -2.01240594       0.48365323      -0.86449714
H        2.75902320       0.32987247       1.01962678
10
Frame=15 idx=005045 GeodesicLength=0.898826776441308 rxn_smarts="[C:1]([c:2]1[n:3][c:4]([H:10])[n:5][o:6]1)([H:7])([H:8])[H:9]>>[C:1]([C:2]([N:3]1[C:4]([H:10])=[N:5]1)=[O:6])([H:7])([H:8])[H:9]"
C       -1.62304597       0.04466796       0.05462104
C       -0.16568777      -0.23083020      -0.07175736
N        0.73086325       0.78296225       0.13530929
C        1.98615806       0.20688623       0.26878344
N        1.95610042      -0.29889445      -0.87882158
O        0.30182190      -1.17588672      -0.76410548
H       -1.79447588       0.74021953       0.87439092
H       -2.15226831      -0.88948882       0.23478371
H       -2.00030603       0.49763894      -0.86310158
H        2.76084034       0.32272527       1.00989760
10
Frame=16 idx=005045 GeodesicLength=0.9589912150274496 rxn_smarts="[C:1]([c:2]1[n:3][c:4]([H:10])[n:5][o:6]1)([H:7])([H:8])[H:9]>>[C:1]([C:2]([N:3]1[C:4]([H:10])=[N:5]1)=[O:6])([H:7])([H:8])[H:9]"
C       -1.62171356       0.04296741       0.05308877
C       -0.16354429      -0.22607536      -0.05671744
N        0.73295164       0.79505498       0.12218972
C        1.98119258       0.20831204       0.26541223
N        1.93626487      -0.30219109      -0.88205149
O        0.31600659      -1.17893144      -0.73560242
H       -1.80118191       0.72699318       0.88103733
H       -2.15319538      -0.89346687       0.21307012
H       -1.98888429       0.51159525      -0.86098774
H        2.76210375       0.31574190       1.00056091
