10
Frame=0 idx=002467 GeodesicLength=0.0 rxn_smarts="[O:1]=[C:2]1[C:3]([H:6])([H:7])[C:4]([H:8])([H:9])[N:5]1[H:10]>>[O:1]=[C:2]([C:3]([C:4][H:8])([H:6])[H:7])[N:5]([H:9])[H:10]"
O        2.07190774       0.25338207       0.17770904
C        0.91975887       0.13499480      -0.12554718
C       -0.28455671       0.98392544       0.27208522
C       -1.23722495      -0.18692896       0.18814844
N        0.35863735      -0.94120877      -0.78373934
H       -0.11392716       1.40559913       1.26139757
H       -0.50163666       1.77641561      -0.44400484
H       -1.24229356      -0.76756825       1.11665127
H       -0.79772085      -0.82026471      -0.92067738
H        0.82705593      -1.83834634      -0.74202281
10
Frame=1 idx=002467 GeodesicLength=0.04640614282513182 rxn_smarts="[O:1]=[C:2]1[C:3]([H:6])([H:7])[C:4]([H:8])([H:9])[N:5]1[H:10]>>[O:1]=[C:2]([C:3]([C:4][H:8])([H:6])[H:7])[N:5]([H:9])[H:10]"
O        2.08067689       0.26482298       0.16311459
C        0.92646705       0.13647630      -0.12936765
C       -0.27964765       0.97854292       0.27825787
C       -1.23413042      -0.18804230       0.18458936
N        0.36171071      -0.94455144      -0.77309263
H       -0.10968042       1.39984777       1.26781499
H       -0.50675999       1.76923693      -0.43791740
H       -1.26969696      -0.75442896       1.12102994
H       -0.80205654      -0.82199711      -0.93481033
H        0.83311733      -1.83990709      -0.73961873
10
Frame=2 idx=002467 GeodesicLength=0.09278639985327436 rxn_smarts="[O:1]=[C:2]1[C:3]([H:6])([H:7])[C:4]([H:8])([H:9])[N:5]1[H:10]>>[O:1]=[C:2]([C:3]([C:4][H:8])([H:6])[H:7])[N:5]([H:9])[H:10]"
O        2.08930206       0.27641611       0.14814598
C        0.93319811       0.13804021      -0.13342708
C       -0.27470611       0.97297058       0.28452165
C       -1.23090251      -0.18938211       0.18123423
N        0.36486805      -0.94794192      -0.76221428
H       -0.10526554       1.39380809       1.27434674
H       -0.51186888       1.76196127      -0.43150068
H       -1.29795410      -0.74038211       1.12494892
H       -0.80612462      -0.82414470      -0.94860223
H        0.83945353      -1.84134542      -0.73745326
10
Frame=3 idx=002467 GeodesicLength=0.1391221720070896 rxn_smarts="[O:1]=[C:2]1[C:3]([H:6])([H:7])[C:4]([H:8])([H:9])[N:5]1[H:10]>>[O:1]=[C:2]([C:3]([C:4][H:8])([H:6])[H:7])[N:5]([H:9])[H:10]"
O        2.09775206       0.28811127       0.13290472
C        0.93994410       0.13969583      -0.13773816
C       -0.26973065       0.96720929       0.29087009
C       -1.22752220      -0.19097300       0.17814364
N        0.36812303      -0.95135644      -0.75112666
H       -0.10067566       1.38751251       1.28097052
H       -0.51698340       1.75456367      -0.42477934
H       -1.32701051      -0.72539286       1.12836636
H       -0.80995252      -0.82673779      -0.96201097
H        0.84605574      -1.84263247      -0.73560021
10
Frame=4 idx=002467 GeodesicLength=0.18539632483437363 rxn_smarts="[O:1]=[C:2]1[C:3]([H:6])([H:7])[C:4]([H:8])([H:9])[N:5]1[H:10]>>[O:1]=[C:2]([C:3]([C:4][H:8])([H:6])[H:7])[N:5]([H:9])[H:10]"
O        2.10600052       0.29986135       0.11749129
C        0.94669548       0.14144965      -0.14230905
C       -0.26472024       0.96126197       0.29729804
C       -1.22396899      -0.19283964       0.17538008
N        0.37149076      -0.95477415      -0.73985579
H       -0.09590746       1.38099880       1.28766800
H       -0.52212587       1.74701882      -0.41778027
H       -1.35680564      -0.70942981       1.13123858
H       -0.81356900      -0.82980221      -0.97499954
H        0.85291044      -1.84374479      -0.73413133
10
Frame=5 idx=002467 GeodesicLength=0.23159964398189853 rxn_smarts="[O:1]=[C:2]1[C:3]([H:6])([H:7])[C:4]([H:8])([H:9])[N:5]1[H:10]>>[O:1]=[C:2]([C:3]([C:4][H:8])([H:6])[H:7])[N:5]([H:9])[H:10]"
O        2.11402524       0.31159049       0.10205251
C        0.95344513       0.14330870      -0.14715044
C       -0.25967773       0.95513278       0.30379068
C       -1.22022512      -0.19501545       0.17302014
N        0.37498851      -0.95816199      -0.72843894
H       -0.09096455       1.37431799       1.29440082
H       -0.52732636       1.73929356      -0.41054604
H       -1.38725304      -0.69246425       1.13353880
H       -0.81701638      -0.83335748      -0.98752162
H        0.86000429      -1.84464435      -0.73314591
10
Frame=6 idx=002467 GeodesicLength=0.27771603931030553 rxn_smarts="[O:1]=[C:2]1[C:3]([H:6])([H:7])[C:4]([H:8])([H:9])[N:5]1[H:10]>>[O:1]=[C:2]([C:3]([C:4][H:8])([H:6])[H:7])[N:5]([H:9])[H:10]"
O        2.12181259       0.32325722       0.08670349
C        0.96018303       0.14527767      -0.15226023
C       -0.25460167       0.94883210       0.31034360
C       -1.21627035      -0.19753228       0.17113445
N        0.37863063      -0.96150529      -0.71691033
H       -0.08585125       1.36753191       1.30115234
H       -0.53260438       1.73136008      -0.40311195
H       -1.41828099      -0.67447621       1.13522597
H       -0.82033097      -0.83743009      -0.99954430
H        0.86731336      -1.84531511      -0.73273305
10
Frame=7 idx=002467 GeodesicLength=0.323769850624416 rxn_smarts="[O:1]=[C:2]1[C:3]([H:6])([H:7])[C:4]([H:8])([H:9])[N:5]1[H:10]>>[O:1]=[C:2]([C:3]([C:4][H:8])([H:6])[H:7])[N:5]([H:9])[H:10]"
O        2.12939530       0.33498283       0.07128482
C        0.96690577       0.14734987      -0.15762147
C       -0.24946966       0.94234055       0.31699440
C       -1.21210198      -0.20040231       0.16972670
N        0.38244015      -0.96483364      -0.70522276
H       -0.08052499       1.36057442       1.30797845
H       -0.53794980       1.72321603      -0.39542334
H       -1.45000318      -0.65541392       1.13615090
H       -0.82352194      -0.84204081      -1.01105623
H        0.87483034      -1.84577303      -0.73281148
10
Frame=8 idx=002467 GeodesicLength=0.3697182414550253 rxn_smarts="[O:1]=[C:2]1[C:3]([H:6])([H:7])[C:4]([H:8])([H:9])[N:5]1[H:10]>>[O:1]=[C:2]([C:3]([C:4][H:8])([H:6])[H:7])[N:5]([H:9])[H:10]"
O        2.13672273       0.34666527       0.05589479
C        0.97358968       0.14949471      -0.16322004
C       -0.24429897       0.93564011       0.32373737
C       -1.20768635      -0.20366740       0.16887795
N        0.38645915      -0.96811834      -0.69338163
H       -0.07502572       1.35346793       1.31483205
H       -0.54341297       1.71478977      -0.38748839
H       -1.48234069      -0.63511516       1.13627696
H       -0.82659653      -0.84719745      -1.02199212
H        0.88258966      -1.84595946      -0.73353694
10
Frame=9 idx=002467 GeodesicLength=0.4155918690348228 rxn_smarts="[O:1]=[C:2]1[C:3]([H:6])([H:7])[C:4]([H:8])([H:9])[N:5]1[H:10]>>[O:1]=[C:2]([C:3]([C:4][H:8])([H:6])[H:7])[N:5]([H:9])[H:10]"
O        2.14384962       0.35843142       0.04044468
C        0.98024682       0.15173964      -0.16905895
C       -0.23905898       0.92874081       0.33060820
C       -1.20302239      -0.20734351       0.16863067
N        0.39069438      -0.97138441      -0.68140224
H       -0.06929879       1.34621686       1.32177451
H       -0.54897315       1.70609374      -0.37928005
H       -1.51535684      -0.61364551       1.13542119
H       -0.82959808      -0.85293290      -1.03234024
H        0.89051740      -1.84591612      -0.73479776
10
Frame=10 idx=002467 GeodesicLength=0.46139181059130463 rxn_smarts="[O:1]=[C:2]1[C:3]([H:6])([H:7])[C:4]([H:8])([H:9])[N:5]1[H:10]>>[O:1]=[C:2]([C:3]([C:4][H:8])([H:6])[H:7])[N:5]([H:9])[H:10]"
O        2.15073408       0.37018360       0.02509896
C        0.98685605       0.15404794      -0.17508269
C       -0.23376328       0.92162707       0.33759224
C       -1.19807559      -0.21151345       0.16909029
N        0.39517719      -0.97460123      -0.66928592
H       -0.06337573       1.33887767       1.32875655
H       -0.55467880       1.69704275      -0.37086458
H       -1.54895516      -0.59083033       1.13357471
H       -0.83256380      -0.85926946      -1.04203714
H        0.89864504      -1.84556455      -0.73684240
10
Frame=11 idx=002467 GeodesicLength=0.5070376766684758 rxn_smarts="[O:1]=[C:2]1[C:3]([H:6])([H:7])[C:4]([H:8])([H:9])[N:5]1[H:10]>>[O:1]=[C:2]([C:3]([C:4][H:8])([H:6])[H:7])[N:5]([H:9])[H:10]"
O        2.15736863       0.38196639       0.00977611
C        0.99340229       0.15642862      -0.18130414
C       -0.22839630       0.91429276       0.34471582
C       -1.19280478      -0.21616810       0.17032033
N        0.39992531      -0.97775496      -0.65706267
H       -0.05722477       1.33142507       1.33578188
H       -0.56055443       1.68761575      -0.36218242
H       -1.58308238      -0.56672193       1.13047978
H       -0.83552180      -0.86616996      -1.05102282
H        0.90688823      -1.84491362      -0.73950188
10
Frame=12 idx=002467 GeodesicLength=0.552740337808502 rxn_smarts="[O:1]=[C:2]1[C:3]([H:6])([H:7])[C:4]([H:8])([H:9])[N:5]1[H:10]>>[O:1]=[C:2]([C:3]([C:4][H:8])([H:6])[H:7])[N:5]([H:9])[H:10]"
O        2.16385595       0.39395991      -0.00565367
C        0.99992989       0.15889534      -0.18769029
C       -0.22292200       0.90675004       0.35204657
C       -1.18724619      -0.22141096       0.17239932
N        0.40496769      -0.98092034      -0.64470689
H       -0.05080216       1.32390703       1.34299916
H       -0.56655124       1.67781354      -0.35322547
H       -1.61796542      -0.54121371       1.12601294
H       -0.83851847      -0.87376436      -1.05932186
H        0.91525193      -1.84401649      -0.74285981
10
Frame=13 idx=002467 GeodesicLength=0.5981929552105238 rxn_smarts="[O:1]=[C:2]1[C:3]([H:6])([H:7])[C:4]([H:8])([H:9])[N:5]1[H:10]>>[O:1]=[C:2]([C:3]([C:4][H:8])([H:6])[H:7])[N:5]([H:9])[H:10]"
O        2.17000085       0.40595949      -0.02107512
C        1.00634284       0.16135077      -0.19415473
C       -0.21738120       0.89893092       0.35955813
C       -1.18125832      -0.22725953       0.17547634
N        0.41035092      -0.98403607      -0.63214439
H       -0.04417448       1.31627528       1.35022230
H       -0.57280632       1.66747229      -0.34397803
H       -1.65333332      -0.51403695       1.11994095
H       -0.84152317      -0.88194437      -1.06669851
H        0.92378220      -1.84271183      -0.74714693
10
Frame=14 idx=002467 GeodesicLength=0.6435731850066002 rxn_smarts="[O:1]=[C:2]1[C:3]([H:6])([H:7])[C:4]([H:8])([H:9])[N:5]1[H:10]>>[O:1]=[C:2]([C:3]([C:4][H:8])([H:6])[H:7])[N:5]([H:9])[H:10]"
O        2.17593048       0.41814633      -0.03659897
C        1.01269573       0.16388476      -0.20076493
C       -0.21171866       0.89088031       0.36731753
C       -1.17486132      -0.23378769       0.17965584
N        0.41607915      -0.98710953      -0.61951125
H       -0.03724162       1.30859306       1.35760604
H       -0.57928440       1.65663868      -0.33440010
H       -1.68926887      -0.48536428       1.11197779
H       -0.84465616      -0.89077405      -1.07319685
H        0.93232567      -1.84110759      -0.75208510
10
Frame=15 idx=002467 GeodesicLength=0.6889985631274492 rxn_smarts="[O:1]=[C:2]1[C:3]([H:6])([H:7])[C:4]([H:8])([H:9])[N:5]1[H:10]>>[O:1]=[C:2]([C:3]([C:4][H:8])([H:6])[H:7])[N:5]([H:9])[H:10]"
O        2.18168208       0.43058503      -0.05222542
C        1.01901195       0.16646370      -0.20743158
C       -0.20592008       0.88259312       0.37538665
C       -1.16802508      -0.24113450       0.18515657
N        0.42219608      -0.99021367      -0.60673594
H       -0.03000868       1.30098029       1.36521403
H       -0.58599690       1.64519895      -0.32451249
H       -1.72591004      -0.45492236       1.10189477
H       -0.84796077      -0.90039179      -1.07868929
H        0.94093143      -1.83915876      -0.75805731
10
Frame=16 idx=002467 GeodesicLength=0.7341682046592031 rxn_smarts="[O:1]=[C:2]1[C:3]([H:6])([H:7])[C:4]([H:8])([H:9])[N:5]1[H:10]>>[O:1]=[C:2]([C:3]([C:4][H:8])([H:6])[H:7])[N:5]([H:9])[H:10]"
O        2.18703041       0.44332880      -0.06838402
C        1.02516113       0.16907822      -0.21421702
C       -0.19995306       0.87393953       0.38382524
C       -1.16057908      -0.24923641       0.19205395
N        0.42872641      -0.99322302      -0.59375307
H       -0.02231328       1.29304851       1.37300411
H       -0.59307219       1.63307798      -0.31403509
H       -1.76306955      -0.42266429       1.08889028
H       -0.85143966      -0.91056244      -1.08295250
H        0.94950886      -1.83678688      -0.76443187
