14
Frame=0 idx=006931 GeodesicLength=0.0 rxn_smarts="[N:1]([c:2]1[c:3]([H:10])[c:4]([N:5]([H:11])[H:12])[c:6]([H:13])[n:7]1[H:14])([H:8])[H:9]>>[N:1](=[C:2]1[C:3]([H:10])=[C:4]([N:5]([H:11])[H:12])[C-:6]([H:13])[N+:7]1([H:8])[H:14])[H:9]"
N       -2.46035732      -0.39193882      -0.12951014
C       -1.18584752      -0.30375976       0.21844205
C       -0.02303673      -0.93509521       0.54423285
C        1.04461210      -0.05813834       0.08806256
N        2.37210913      -0.40420637       0.20144204
C        0.54926504       1.09605608      -0.43372034
N       -0.88684443       1.06764019      -0.20843155
H       -2.00309805       0.76672747      -0.75316724
H       -2.97141987      -1.25207005      -0.02125354
H        0.09239717      -1.97290557       0.81271421
H        3.00959822       0.08584308      -0.40151700
H        2.56006616      -1.38971842       0.25814860
H        1.04384101       2.00307954      -0.73423286
H       -1.14128494       1.68848624       0.55879035
14
Frame=1 idx=006931 GeodesicLength=0.04669999258892048 rxn_smarts="[N:1]([c:2]1[c:3]([H:10])[c:4]([N:5]([H:11])[H:12])[c:6]([H:13])[n:7]1[H:14])([H:8])[H:9]>>[N:1](=[C:2]1[C:3]([H:10])=[C:4]([N:5]([H:11])[H:12])[C-:6]([H:13])[N+:7]1([H:8])[H:14])[H:9]"
N       -2.46256128      -0.39044650      -0.11741846
C       -1.18891455      -0.29435896       0.23901388
C       -0.02397560      -0.93593493       0.54054808
C        1.04478071      -0.06006966       0.09193124
N        2.37239121      -0.40788314       0.20689824
C        0.55032097       1.09310033      -0.43448705
N       -0.88385472       1.06775361      -0.20970340
H       -2.00975447       0.76096192      -0.76642358
H       -2.95872321      -1.25963216      -0.01031506
H        0.08677240      -1.97876760       0.79145556
H        3.01307757       0.09401955      -0.38283418
H        2.55937054      -1.39471414       0.24115967
H        1.04645268       2.00078328      -0.73074715
H       -1.14538228       1.70518839       0.54092221
14
Frame=2 idx=006931 GeodesicLength=0.0933803192826471 rxn_smarts="[N:1]([c:2]1[c:3]([H:10])[c:4]([N:5]([H:11])[H:12])[c:6]([H:13])[n:7]1[H:14])([H:8])[H:9]>>[N:1](=[C:2]1[C:3]([H:10])=[C:4]([N:5]([H:11])[H:12])[C-:6]([H:13])[N+:7]1([H:8])[H:14])[H:9]"
N       -2.46440140      -0.38921661      -0.10598724
C       -1.19157103      -0.28511639       0.25853925
C       -0.02502639      -0.93674741       0.53639161
C        1.04505943      -0.06177354       0.09627197
N        2.37270571      -0.41177151       0.21226562
C        0.55157605       1.09047789      -0.43463846
N       -0.88080180       1.06772290      -0.21116248
H       -2.01613984       0.75425962      -0.78056837
H       -2.94659042      -1.26620099       0.00318220
H        0.08090835      -1.98425424       0.76978631
H        3.01644362       0.10189842      -0.36391292
H        2.55861266      -1.39943074       0.22360079
H        1.04923935       1.99897971      -0.72610836
H       -1.15001429       1.72117289       0.52234008
14
Frame=3 idx=006931 GeodesicLength=0.1400342535554619 rxn_smarts="[N:1]([c:2]1[c:3]([H:10])[c:4]([N:5]([H:11])[H:12])[c:6]([H:13])[n:7]1[H:14])([H:8])[H:9]>>[N:1](=[C:2]1[C:3]([H:10])=[C:4]([N:5]([H:11])[H:12])[C-:6]([H:13])[N+:7]1([H:8])[H:14])[H:9]"
N       -2.46593725      -0.38818405      -0.09512955
C       -1.19385164      -0.27605611       0.27704244
C       -0.02617033      -0.93748357       0.53189016
C        1.04542363      -0.06334624       0.10085736
N        2.37304441      -0.41585307       0.21748227
C        0.55300286       1.08817023      -0.43423641
N       -0.87768851       1.06758919      -0.21269975
H       -2.02233402       0.74674642      -0.79538315
H       -2.93495464      -1.27192208       0.01865773
H        0.07484385      -1.98928912       0.74799036
H        3.01969339       0.10940355      -0.34488467
H        2.55782489      -1.40381355       0.20563300
H        1.05216487       1.99762087      -0.72046048
H       -1.15506151       1.73641754       0.50324068
14
Frame=4 idx=006931 GeodesicLength=0.1866544343534672 rxn_smarts="[N:1]([c:2]1[c:3]([H:10])[c:4]([N:5]([H:11])[H:12])[c:6]([H:13])[n:7]1[H:14])([H:8])[H:9]>>[N:1](=[C:2]1[C:3]([H:10])=[C:4]([N:5]([H:11])[H:12])[C-:6]([H:13])[N+:7]1([H:8])[H:14])[H:9]"
N       -2.46720908      -0.38730767      -0.08479100
C       -1.19579358      -0.26718687       0.29458697
C       -0.02738715      -0.93807226       0.52722798
C        1.04584886      -0.06486210       0.10550448
N        2.37339823      -0.42011887       0.22244367
C        0.55456780       1.08617328      -0.43331032
N       -0.87452365       1.06740438      -0.21419056
H       -2.02840885       0.73855170      -0.81066190
H       -2.92367626      -1.27697116       0.03540397
H        0.06862044      -1.99377277       0.72646502
H        3.02278996       0.11640665      -0.32601537
H        2.55701684      -1.40784168       0.18741860
H        1.05518820       1.99667404      -0.71391107
H       -1.16043175       1.75092334       0.48382953
14
Frame=5 idx=006931 GeodesicLength=0.23324213786185335 rxn_smarts="[N:1]([c:2]1[c:3]([H:10])[c:4]([N:5]([H:11])[H:12])[c:6]([H:13])[n:7]1[H:14])([H:8])[H:9]>>[N:1](=[C:2]1[C:3]([H:10])=[C:4]([N:5]([H:11])[H:12])[C-:6]([H:13])[N+:7]1([H:8])[H:14])[H:9]"
N       -2.46824481      -0.38656752      -0.07496758
C       -1.19744479      -0.25850963       0.31125189
C       -0.02865404      -0.93843806       0.52261320
C        1.04631157      -0.06638037       0.11005552
N        2.37376073      -0.42455592       0.22701656
C        0.55623292       1.08449885      -0.43186288
N       -0.87131809       1.06723499      -0.21548986
H       -2.03442975       0.72982635      -0.82621087
H       -2.91257035      -1.28155327       0.05262606
H        0.06228645      -1.99759959       0.70571839
H        3.02567328       0.12273447      -0.30771108
H        2.55618407      -1.41152086       0.16916154
H        1.05826504       1.99612530      -0.70654200
H       -1.16605222       1.76470526       0.46434113
14
Frame=6 idx=006931 GeodesicLength=0.2797644998260644 rxn_smarts="[N:1]([c:2]1[c:3]([H:10])[c:4]([N:5]([H:11])[H:12])[c:6]([H:13])[n:7]1[H:14])([H:8])[H:9]>>[N:1](=[C:2]1[C:3]([H:10])=[C:4]([N:5]([H:11])[H:12])[C-:6]([H:13])[N+:7]1([H:8])[H:14])[H:9]"
N       -2.46906609      -0.38594252      -0.06566832
C       -1.19884018      -0.25003390       0.32708885
C       -0.02995496      -0.93854974       0.51815397
C        1.04679296      -0.06796173       0.11430694
N        2.37413672      -0.42909916       0.23111616
C        0.55794761       1.08315227      -0.42994068
N       -0.86809212       1.06714936      -0.21644329
H       -2.04047625       0.72076177      -0.84182360
H       -2.90149072      -1.28583446       0.06964642
H        0.05588508      -2.00073506       0.68611659
H        3.02829502       0.12821542      -0.29042390
H        2.55535856      -1.41484408       0.15128975
H        1.06133418       1.99596032      -0.69847159
H       -1.17182980       1.77776151       0.44505270
14
Frame=7 idx=006931 GeodesicLength=0.3261924420781691 rxn_smarts="[N:1]([c:2]1[c:3]([H:10])[c:4]([N:5]([H:11])[H:12])[c:6]([H:13])[n:7]1[H:14])([H:8])[H:9]>>[N:1](=[C:2]1[C:3]([H:10])=[C:4]([N:5]([H:11])[H:12])[C-:6]([H:13])[N+:7]1([H:8])[H:14])[H:9]"
N       -2.46967663      -0.38543852      -0.05694376
C       -1.20001917      -0.24176731       0.34217161
C       -0.03127654      -0.93834929       0.51400500
C        1.04728114      -0.06964102       0.11813378
N        2.37453806      -0.43371253       0.23462877
C        0.55966121       1.08215499      -0.42754974
N       -0.86487424       1.06723131      -0.21689355
H       -2.04660228       0.71154262      -0.85733948
H       -2.89025246      -1.29001651       0.08571484
H        0.04945760      -2.00310817       0.66817344
H        3.03061430       0.13267694      -0.27467039
H        2.55453265      -1.41787585       0.13411733
H        1.06433101       1.99618445      -0.68978250
H       -1.17771466       1.79011890       0.42623465
14
Frame=8 idx=006931 GeodesicLength=0.3726693431180265 rxn_smarts="[N:1]([c:2]1[c:3]([H:10])[c:4]([N:5]([H:11])[H:12])[c:6]([H:13])[n:7]1[H:14])([H:8])[H:9]>>[N:1](=[C:2]1[C:3]([H:10])=[C:4]([N:5]([H:11])[H:12])[C-:6]([H:13])[N+:7]1([H:8])[H:14])[H:9]"
N       -2.47004421      -0.38510454      -0.04898707
C       -1.20101595      -0.23364522       0.35642655
C       -0.03257603      -0.93769834       0.51055304
C        1.04772381      -0.07138814       0.12146600
N        2.37490138      -0.43842668       0.23728402
C        0.56139617       1.08161216      -0.42443504
N       -0.86164713       1.06742504      -0.21677350
H       -2.05274229       0.70219615      -0.87299748
H       -2.87864260      -1.29427536       0.10040753
H        0.04310901      -2.00458297       0.65267023
H        3.03248153       0.13598869      -0.26106902
H        2.55354209      -1.42079924       0.11754149
H        1.06732115       1.99688595      -0.68002006
H       -1.18380693       1.80181250       0.40793332
14
Frame=9 idx=006931 GeodesicLength=0.4190508793497315 rxn_smarts="[N:1]([c:2]1[c:3]([H:10])[c:4]([N:5]([H:11])[H:12])[c:6]([H:13])[n:7]1[H:14])([H:8])[H:9]>>[N:1](=[C:2]1[C:3]([H:10])=[C:4]([N:5]([H:11])[H:12])[C-:6]([H:13])[N+:7]1([H:8])[H:14])[H:9]"
N       -2.47030765      -0.38482605      -0.04140606
C       -1.20187094      -0.22577579       0.37008135
C       -0.03388849      -0.93684059       0.50714271
C        1.04815948      -0.07333054       0.12418970
N        2.37530194      -0.44307300       0.23958743
C        0.56307940       1.08128755      -0.42113737
N       -0.85842294       1.06785984      -0.21611680
H       -2.05911874       0.69286359      -0.88831785
H       -2.86693324      -1.29845028       0.11401599
H        0.03676817      -2.00549802       0.63841821
H        3.03415246       0.13849231      -0.24876637
H        2.55268422      -1.42342054       0.10209511
H        1.07019035       1.99778937      -0.67015349
H       -1.18979402       1.81292217       0.39036744
14
Frame=10 idx=006931 GeodesicLength=0.46543335750609416 rxn_smarts="[N:1]([c:2]1[c:3]([H:10])[c:4]([N:5]([H:11])[H:12])[c:6]([H:13])[n:7]1[H:14])([H:8])[H:9]>>[N:1](=[C:2]1[C:3]([H:10])=[C:4]([N:5]([H:11])[H:12])[C-:6]([H:13])[N+:7]1([H:8])[H:14])[H:9]"
N       -2.47047392      -0.38457446      -0.03425764
C       -1.20262377      -0.21808677       0.38315557
C       -0.03519419      -0.93586645       0.50383067
C        1.04857297      -0.07541282       0.12635093
N        2.37572149      -0.44764802       0.24156213
C        0.56473074       1.08116147      -0.41766005
N       -0.85517415       1.06847135      -0.21495205
H       -2.06569903       0.68353653      -0.90350126
H       -2.85520422      -1.30247987       0.12691530
H        0.03046696      -2.00606575       0.62530895
H        3.03566252       0.14041837      -0.23755965
H        2.55193744      -1.42583112       0.08751272
H        1.07298682       1.99888320      -0.66003012
H       -1.19570966       1.82349435       0.37332450
14
Frame=11 idx=006931 GeodesicLength=0.5116956921684258 rxn_smarts="[N:1]([c:2]1[c:3]([H:10])[c:4]([N:5]([H:11])[H:12])[c:6]([H:13])[n:7]1[H:14])([H:8])[H:9]>>[N:1](=[C:2]1[C:3]([H:10])=[C:4]([N:5]([H:11])[H:12])[C-:6]([H:13])[N+:7]1([H:8])[H:14])[H:9]"
N       -2.47052580      -0.38433053      -0.02749298
C       -1.20325125      -0.21055534       0.39570716
C       -0.03650518      -0.93483524       0.50050021
C        1.04901338      -0.07757778       0.12808557
N        2.37616055      -0.45217083       0.24332410
C        0.56637148       1.08117443      -0.41407634
N       -0.85192243       1.06920929      -0.21336595
H       -2.07244502       0.67409320      -0.91864819
H       -2.84359113      -1.30620479       0.13958255
H        0.02418727      -2.00638208       0.61290845
H        3.03707525       0.14196761      -0.22700854
H        2.55128046      -1.42803744       0.07353508
H        1.07572594       2.00011211      -0.64969067
H       -1.20157353       1.83353739       0.35663955
14
Frame=12 idx=006931 GeodesicLength=0.558005999678357 rxn_smarts="[N:1]([c:2]1[c:3]([H:10])[c:4]([N:5]([H:11])[H:12])[c:6]([H:13])[n:7]1[H:14])([H:8])[H:9]>>[N:1](=[C:2]1[C:3]([H:10])=[C:4]([N:5]([H:11])[H:12])[C-:6]([H:13])[N+:7]1([H:8])[H:14])[H:9]"
N       -2.47051019      -0.38410602      -0.02104389
C       -1.20378357      -0.20323732       0.40775044
C       -0.03777314      -0.93364162       0.49721480
C        1.04938580      -0.07994266       0.12911412
N        2.37659729      -0.45656164       0.24481206
C        0.56794158       1.08136772      -0.41037091
N       -0.84863721       1.07017373      -0.21121848
H       -2.07948157       0.66473544      -0.93355473
H       -2.83185061      -1.30986763       0.15123206
H        0.01802190      -2.00630903       0.60157659
H        3.03826297       0.14287055      -0.21776908
H        2.55078097      -1.43010789       0.06083665
H        1.07835351       2.00149028      -0.63922047
H       -1.20730773       1.84313610       0.34064085
14
Frame=13 idx=006931 GeodesicLength=0.6042547852140414 rxn_smarts="[N:1]([c:2]1[c:3]([H:10])[c:4]([N:5]([H:11])[H:12])[c:6]([H:13])[n:7]1[H:14])([H:8])[H:9]>>[N:1](=[C:2]1[C:3]([H:10])=[C:4]([N:5]([H:11])[H:12])[C-:6]([H:13])[N+:7]1([H:8])[H:14])[H:9]"
N       -2.47043905      -0.38384457      -0.01480456
C       -1.20420510      -0.19610532       0.41938080
C       -0.03905088      -0.93242606       0.49379352
C        1.04975229      -0.08244581       0.12957985
N        2.37705933      -0.46079472       0.24621916
C        0.56946859       1.08164350      -0.40669308
N       -0.84534376       1.07132828      -0.20856504
H       -2.08682847       0.65540974      -0.94825520
H       -2.82016408      -1.31333851       0.16235284
H        0.01187298      -2.00607829       0.59075213
H        3.03937605       0.14344143      -0.20923702
H        2.55047267      -1.43199475       0.04915649
H        1.08090897       2.00288545      -0.62889041
H       -1.21287955       1.85231963       0.32521052
14
Frame=14 idx=006931 GeodesicLength=0.6504669524495973 rxn_smarts="[N:1]([c:2]1[c:3]([H:10])[c:4]([N:5]([H:11])[H:12])[c:6]([H:13])[n:7]1[H:14])([H:8])[H:9]>>[N:1](=[C:2]1[C:3]([H:10])=[C:4]([N:5]([H:11])[H:12])[C-:6]([H:13])[N+:7]1([H:8])[H:14])[H:9]"
N       -2.47030558      -0.38355484      -0.00879399
C       -1.20453156      -0.18913435       0.43062945
C       -0.04031521      -0.93118115       0.49027052
C        1.05010536      -0.08505745       0.12955472
N        2.37753626      -0.46491422       0.24753182
C        0.57096594       1.08201639      -0.40300236
N       -0.84201934       1.07265035      -0.20546398
H       -2.09444695       0.64601120      -0.96286131
H       -2.80855666      -1.31656468       0.17313686
H        0.00577173      -2.00569418       0.58036955
H        3.04040704       0.14372701      -0.20133086
H        2.55032509      -1.43376788       0.03830501
H        1.08341019       2.00434481      -0.61853448
H       -1.21834630       1.86111900       0.31018904
14
Frame=15 idx=006931 GeodesicLength=0.6966718699891743 rxn_smarts="[N:1]([c:2]1[c:3]([H:10])[c:4]([N:5]([H:11])[H:12])[c:6]([H:13])[n:7]1[H:14])([H:8])[H:9]>>[N:1](=[C:2]1[C:3]([H:10])=[C:4]([N:5]([H:11])[H:12])[C-:6]([H:13])[N+:7]1([H:8])[H:14])[H:9]"
N       -2.47010504      -0.38324341      -0.00297691
C       -1.20476297      -0.18230176       0.44156008
C       -0.04157123      -0.92988009       0.48669828
C        1.05044913      -0.08775568       0.12914562
N        2.37801566      -0.46897481       0.24874126
C        0.57245488       1.08247502      -0.39927436
N       -0.83865506       1.07413802      -0.20196989
H       -2.10229491       0.63641625      -0.97748121
H       -2.79704705      -1.31953468       0.18372707
H       -0.00030014      -2.00515610       0.57035021
H        3.04138243       0.14380260      -0.19384258
H        2.55028736      -1.43543986       0.02796693
H        1.08589264       2.00585512      -0.60807616
H       -1.22374571       1.86959936       0.29543167
14
Frame=16 idx=006931 GeodesicLength=0.742861321397693 rxn_smarts="[N:1]([c:2]1[c:3]([H:10])[c:4]([N:5]([H:11])[H:12])[c:6]([H:13])[n:7]1[H:14])([H:8])[H:9]>>[N:1](=[C:2]1[C:3]([H:10])=[C:4]([N:5]([H:11])[H:12])[C-:6]([H:13])[N+:7]1([H:8])[H:14])[H:9]"
N       -2.46981424      -0.38292745       0.00260685
C       -1.20491049      -0.17557373       0.45221219
C       -0.04281709      -0.92849221       0.48316664
C        1.05079039      -0.09049215       0.12847682
N        2.37849436      -0.47303292       0.24979193
C        0.57395954       1.08304930      -0.39542903
N       -0.83524256       1.07577928      -0.19812520
H       -2.11029322       0.62648398      -0.99224914
H       -2.78564859      -1.32222532       0.19425237
H       -0.00634663      -2.00444204       0.56072043
H        3.04230681       0.14367667      -0.18675068
H        2.55028925      -1.43705761       0.01787559
H        1.08838687       2.00747418      -0.59731431
H       -1.22915440       1.87778003       0.28076555
