14
Frame=0 idx=009194 GeodesicLength=0.0 rxn_smarts="[O:1]([C:2]([C:3]#[C:4][C@@:5]1([H:11])[C:6]([H:12])([H:13])[N:7]1[H:14])([H:9])[H:10])[H:8]>>[C:2](=[C:3]=[C:4]1[C@@:5]2([H:11])[C:6]([H:12])([H:13])[N:7]12)([H:9])[H:10].[O:1]([H:8])[H:14]"
O        1.09896523      -1.37484773       0.80657373
C        2.09869698      -0.15392561      -0.37838161
C        1.21225564       0.82138638      -0.73280679
C        0.03219078       1.11783544      -0.48055274
C       -1.28917819       1.18627454      -0.01696691
C       -2.05766870      -0.01631726      -0.43794810
N       -1.14665087      -0.12156188       0.65796471
H        1.37066997      -1.23852987       1.71807347
H        2.90877134       0.07644730       0.30468903
H        2.28927619      -0.96937078      -1.06464357
H       -1.71733093       2.05123082       0.47593579
H       -1.82681066      -0.47602796      -1.39896368
H       -3.11657772      -0.00195791      -0.18186679
H        0.14339100      -0.90063544       0.72889343
14
Frame=1 idx=009194 GeodesicLength=0.11634470858232517 rxn_smarts="[O:1]([C:2]([C:3]#[C:4][C@@:5]1([H:11])[C:6]([H:12])([H:13])[N:7]1[H:14])([H:9])[H:10])[H:8]>>[C:2](=[C:3]=[C:4]1[C@@:5]2([H:11])[C:6]([H:12])([H:13])[N:7]12)([H:9])[H:10].[O:1]([H:8])[H:14]"
O        1.11137258      -1.38136459       0.83433708
C        2.11311669      -0.14934897      -0.37652527
C        1.21198256       0.81051507      -0.74319970
C        0.02466448       1.09274246      -0.50562189
C       -1.28979774       1.18061636      -0.02170332
C       -2.07976082      -0.00483903      -0.44804144
N       -1.15086127      -0.13887398       0.63035057
H        1.38049508      -1.25120282       1.74717756
H        2.92276781       0.10800899       0.29783960
H        2.32467579      -0.95818139      -1.06503884
H       -1.69277211       2.04189088       0.49773822
H       -1.86985062      -0.45590969      -1.41753178
H       -3.13285980       0.01642410      -0.17055407
H        0.12682738      -0.91047739       0.74077327
14
Frame=2 idx=009194 GeodesicLength=0.23264888517060095 rxn_smarts="[O:1]([C:2]([C:3]#[C:4][C@@:5]1([H:11])[C:6]([H:12])([H:13])[N:7]1[H:14])([H:9])[H:10])[H:8]>>[C:2](=[C:3]=[C:4]1[C@@:5]2([H:11])[C:6]([H:12])([H:13])[N:7]12)([H:9])[H:10].[O:1]([H:8])[H:14]"
O        1.12398230      -1.38703891       0.86379601
C        2.12757994      -0.14465175      -0.37478380
C        1.21141598       0.79865366      -0.75416659
C        0.01715092       1.06637652      -0.53106015
C       -1.28962050       1.17402662      -0.02615627
C       -2.10214840       0.00731564      -0.45839663
N       -1.15557035      -0.15782131       0.60100381
H        1.39019522      -1.26277554       1.77799015
H        2.93633730       0.14078977       0.28982104
H        2.36061332      -0.94626200      -1.06541310
H       -1.66622679       2.03036423       0.52044770
H       -1.91404129      -0.43345458      -1.43676067
H       -3.14877295       0.03542225      -0.15896865
H        0.10910530      -0.92094458       0.75264715
14
Frame=3 idx=009194 GeodesicLength=0.34886110745619003 rxn_smarts="[O:1]([C:2]([C:3]#[C:4][C@@:5]1([H:11])[C:6]([H:12])([H:13])[N:7]1[H:14])([H:9])[H:10])[H:8]>>[C:2](=[C:3]=[C:4]1[C@@:5]2([H:11])[C:6]([H:12])([H:13])[N:7]12)([H:9])[H:10].[O:1]([H:8])[H:14]"
O        1.13665727      -1.39162993       0.89508448
C        2.14199163      -0.13988968      -0.37323671
C        1.21055575       0.78579920      -0.76568814
C        0.00970439       1.03892281      -0.55669100
C       -1.28860216       1.16643661      -0.03024977
C       -2.12463230       0.02015479      -0.46901973
N       -1.16078620      -0.17841497       0.56981014
H        1.39971238      -1.27308053       1.81061444
H        2.94941790       0.17462294       0.28038261
H        2.39680946      -0.93363457      -1.06587914
H       -1.63771255       2.01626710       0.54407966
H       -1.95906239      -0.40843009      -1.45658408
H       -3.16409717       0.05485387      -0.14719650
H        0.09004398      -0.93197754       0.76457375
14
Frame=4 idx=009194 GeodesicLength=0.4648575029259593 rxn_smarts="[O:1]([C:2]([C:3]#[C:4][C@@:5]1([H:11])[C:6]([H:12])([H:13])[N:7]1[H:14])([H:9])[H:10])[H:8]>>[C:2](=[C:3]=[C:4]1[C@@:5]2([H:11])[C:6]([H:12])([H:13])[N:7]12)([H:9])[H:10].[O:1]([H:8])[H:14]"
O        1.14918803      -1.39491487       0.92824034
C        2.15627185      -0.13509906      -0.37193401
C        1.20941273       0.77196294      -0.77776134
C        0.00238895       1.01060785      -0.58237785
C       -1.28670362       1.15780040      -0.03394716
C       -2.14699037       0.03366733      -0.47986175
N       -1.16647416      -0.20056440       0.53670579
H        1.40898575      -1.28213428       1.84507542
H        2.96190893       0.20934634       0.26935051
H        2.43305492      -0.92029155      -1.06654909
H       -1.60732240       1.99925716       0.56853066
H       -2.00456652      -0.38067770      -1.47684702
H       -3.17860479       0.07450347      -0.13525549
H        0.06945070      -0.94346362       0.77663100
14
Frame=5 idx=009194 GeodesicLength=0.5807469847408302 rxn_smarts="[O:1]([C:2]([C:3]#[C:4][C@@:5]1([H:11])[C:6]([H:12])([H:13])[N:7]1[H:14])([H:9])[H:10])[H:8]>>[C:2](=[C:3]=[C:4]1[C@@:5]2([H:11])[C:6]([H:12])([H:13])[N:7]12)([H:9])[H:10].[O:1]([H:8])[H:14]"
O        1.16139081      -1.39674532       0.96328389
C        2.17031548      -0.13034189      -0.37096571
C        1.20805594       0.75727855      -0.79024745
C       -0.00471524       0.98176287      -0.60788538
C       -1.28393918       1.14813148      -0.03721705
C       -2.16892951       0.04781296      -0.49087302
N       -1.17255836      -0.22405693       0.50171093
H        1.41795247      -1.28995233       1.88138425
H        2.97379110       0.24462852       0.25648151
H        2.46896624      -0.90625124      -1.06763905
H       -1.57537772       1.97910823       0.59362868
H       -2.04999757      -0.35017223      -1.49732137
H       -3.19203953       0.09404849      -0.12323819
H        0.04708508      -0.95525117       0.78889797
14
Frame=6 idx=009194 GeodesicLength=0.6964617093237486 rxn_smarts="[O:1]([C:2]([C:3]#[C:4][C@@:5]1([H:11])[C:6]([H:12])([H:13])[N:7]1[H:14])([H:9])[H:10])[H:8]>>[C:2](=[C:3]=[C:4]1[C@@:5]2([H:11])[C:6]([H:12])([H:13])[N:7]12)([H:9])[H:10].[O:1]([H:8])[H:14]"
O        1.17300764      -1.39699118       1.00010852
C        2.18409140      -0.12563244      -0.37037238
C        1.20652522       0.74183125      -0.80307409
C       -0.01153502       0.95265160      -0.63310438
C       -1.28032138       1.13746507      -0.04008589
C       -2.19020350       0.06248660      -0.50190676
N       -1.17896202      -0.24861311       0.46494587
H        1.42659253      -1.29685051       1.91945351
H        2.98497230       0.28024655       0.24171866
H        2.50439265      -0.89145843      -1.06932027
H       -1.54217911       1.95583263       0.61906823
H       -2.09489292      -0.31698635      -1.51769754
H       -3.20419618       0.11317886      -0.11115008
H        0.02270838      -0.96716055       0.80141662
14
Frame=7 idx=009194 GeodesicLength=0.8120711264625271 rxn_smarts="[O:1]([C:2]([C:3]#[C:4][C@@:5]1([H:11])[C:6]([H:12])([H:13])[N:7]1[H:14])([H:9])[H:10])[H:8]>>[C:2](=[C:3]=[C:4]1[C@@:5]2([H:11])[C:6]([H:12])([H:13])[N:7]12)([H:9])[H:10].[O:1]([H:8])[H:14]"
O        1.18383827      -1.39559616       1.03859947
C        2.19755678      -0.12099834      -0.37023346
C        1.20491318       0.72582593      -0.81604322
C       -0.01800461       0.92359546      -0.65784381
C       -1.27592238       1.12590721      -0.04259546
C       -2.21052385       0.07754506      -0.51281051
N       -1.18557523      -0.27384809       0.42665958
H        1.43488449      -1.30315709       1.95918663
H        2.99544477       0.31585681       0.22497485
H        2.53903735      -0.87587022      -1.07185030
H       -1.50817489       1.92958390       0.64446741
H       -2.13863762      -0.28135095      -1.53762317
H       -3.21489771       0.13153544      -0.09907450
H       -0.00393854      -0.97902896       0.81418649
14
Frame=8 idx=009194 GeodesicLength=0.9275825585510701 rxn_smarts="[O:1]([C:2]([C:3]#[C:4][C@@:5]1([H:11])[C:6]([H:12])([H:13])[N:7]1[H:14])([H:9])[H:10])[H:8]>>[C:2](=[C:3]=[C:4]1[C@@:5]2([H:11])[C:6]([H:12])([H:13])[N:7]12)([H:9])[H:10].[O:1]([H:8])[H:14]"
O        1.19366099      -1.39256140       1.07852336
C        2.21076144      -0.11640483      -0.37054825
C        1.20329143       0.70937832      -0.82905890
C       -0.02405825       0.89479762      -0.68206269
C       -1.27080276       1.11361138      -0.04487545
C       -2.22971542       0.09284081      -0.52335375
N       -1.19229511      -0.29926887       0.38724211
H        1.44279784      -1.30946390       2.00036213
H        3.00514897       0.35131430       0.20638697
H        2.57293194      -0.85935044      -1.07536123
H       -1.47372644       1.90072365       0.66934053
H       -2.18081884      -0.24373791      -1.55665832
H       -3.22404558       0.14889778      -0.08695091
H       -0.03313020      -0.99077652       0.82701439
14
Frame=9 idx=009194 GeodesicLength=1.0428484652375205 rxn_smarts="[O:1]([C:2]([C:3]#[C:4][C@@:5]1([H:11])[C:6]([H:12])([H:13])[N:7]1[H:14])([H:9])[H:10])[H:8]>>[C:2](=[C:3]=[C:4]1[C@@:5]2([H:11])[C:6]([H:12])([H:13])[N:7]12)([H:9])[H:10].[O:1]([H:8])[H:14]"
O        1.20252384      -1.38743462       1.12005903
C        2.22394180      -0.11190815      -0.37143789
C        1.20175784       0.69246190      -0.84196023
C       -0.02965163       0.86617262      -0.70558717
C       -1.26507740       1.10065883      -0.04696257
C       -2.24777922       0.10815508      -0.53330534
N       -1.19908420      -0.32462241       0.34713150
H        1.45055379      -1.31655732       2.04285294
H        3.01416825       0.38646317       0.18619519
H        2.60624031      -0.84179653      -1.08010132
H       -1.43947972       1.87025045       0.69311960
H       -2.22147937      -0.20422178      -1.57463946
H       -3.23172255       0.16506422      -0.07484837
H       -0.06491176      -1.00268548       0.83948409
14
Frame=10 idx=009194 GeodesicLength=1.1580315004423165 rxn_smarts="[O:1]([C:2]([C:3]#[C:4][C@@:5]1([H:11])[C:6]([H:12])([H:13])[N:7]1[H:14])([H:9])[H:10])[H:8]>>[C:2](=[C:3]=[C:4]1[C@@:5]2([H:11])[C:6]([H:12])([H:13])[N:7]12)([H:9])[H:10].[O:1]([H:8])[H:14]"
O        1.21015347      -1.38061122       1.16276153
C        2.23702389      -0.10734416      -0.37278571
C        1.20033440       0.67527238      -0.85470970
C       -0.03478048       0.83799581      -0.72850392
C       -1.25881047       1.08736112      -0.04910130
C       -2.26447084       0.12341333      -0.54251580
N       -1.20589951      -0.34920048       0.30697496
H        1.45794819      -1.32492884       2.08627342
H        3.02236619       0.42134430       0.16447971
H        2.63891010      -0.82301146      -1.08599352
H       -1.40536681       1.83818096       0.71544076
H       -2.25992006      -0.16393259      -1.59091724
H       -3.23785240       0.18013612      -0.06274012
H       -0.09963567      -1.01467527       0.85133693
14
Frame=11 idx=009194 GeodesicLength=1.2732052424620681 rxn_smarts="[O:1]([C:2]([C:3]#[C:4][C@@:5]1([H:11])[C:6]([H:12])([H:13])[N:7]1[H:14])([H:9])[H:10])[H:8]>>[C:2](=[C:3]=[C:4]1[C@@:5]2([H:11])[C:6]([H:12])([H:13])[N:7]12)([H:9])[H:10].[O:1]([H:8])[H:14]"
O        1.21663992      -1.37200487       1.20667458
C        2.25009057      -0.10269042      -0.37466344
C        1.19905806       0.65785890      -0.86715720
C       -0.03943973       0.81026608      -0.75062547
C       -1.25209418       1.07390323      -0.05130255
C       -2.27974831       0.13854147      -0.55094927
N       -1.21277596      -0.37270694       0.26727165
H        1.46505036      -1.33481104       2.13054569
H        3.02979807       0.45585691       0.14125063
H        2.67087360      -0.80294607      -1.09317701
H       -1.37165913       1.80502321       0.73614183
H       -2.29584451      -0.12335545      -1.60535304
H       -3.24253058       0.19417425      -0.05081103
H       -0.13741819      -1.02710926       0.86215462
14
Frame=12 idx=009194 GeodesicLength=1.3883034299384833 rxn_smarts="[O:1]([C:2]([C:3]#[C:4][C@@:5]1([H:11])[C:6]([H:12])([H:13])[N:7]1[H:14])([H:9])[H:10])[H:8]>>[C:2](=[C:3]=[C:4]1[C@@:5]2([H:11])[C:6]([H:12])([H:13])[N:7]12)([H:9])[H:10].[O:1]([H:8])[H:14]"
O        1.22204164      -1.36141677       1.25187188
C        2.26330160      -0.09787682      -0.37706320
C        1.19792454       0.64009778      -0.87933638
C       -0.04365694       0.78283040      -0.77198457
C       -1.24496594       1.06038622      -0.05358908
C       -2.29369687       0.15354275      -0.55855401
N       -1.21981155      -0.39499085       0.22836882
H        1.47197099      -1.34660146       2.17554017
H        3.03645718       0.49016327       0.11665038
H        2.70234113      -0.78153713      -1.10158438
H       -1.33837944       1.77118826       0.75513714
H       -2.32929507      -0.08291002      -1.61791050
H       -3.24593999       0.20743676      -0.03907610
H       -0.17829127      -1.04031238       0.87152984
14
Frame=13 idx=009194 GeodesicLength=1.5034082081671016 rxn_smarts="[O:1]([C:2]([C:3]#[C:4][C@@:5]1([H:11])[C:6]([H:12])([H:13])[N:7]1[H:14])([H:9])[H:10])[H:8]>>[C:2](=[C:3]=[C:4]1[C@@:5]2([H:11])[C:6]([H:12])([H:13])[N:7]12)([H:9])[H:10].[O:1]([H:8])[H:14]"
O        1.22660170      -1.34841532       1.29874865
C        2.27669713      -0.09297507      -0.38013787
C        1.19699674       0.62212706      -0.89094735
C       -0.04745016       0.75574607      -0.79225988
C       -1.23753161       1.04682525      -0.05576051
C       -2.30632462       0.16843509      -0.56550738
N       -1.22703452      -0.41610511       0.19035557
H        1.47889287      -1.35993432       2.22141332
H        3.04259078       0.52394137       0.09036144
H        2.73285731      -0.75900814      -1.11146564
H       -1.30578194       1.73671114       0.77280673
H       -2.36003058      -0.04252596      -1.62893892
H       -3.24822520       0.21990959      -0.02789011
H       -0.22225788      -1.05473165       0.87922195
14
Frame=14 idx=009194 GeodesicLength=1.6184742492528106 rxn_smarts="[O:1]([C:2]([C:3]#[C:4][C@@:5]1([H:11])[C:6]([H:12])([H:13])[N:7]1[H:14])([H:9])[H:10])[H:8]>>[C:2](=[C:3]=[C:4]1[C@@:5]2([H:11])[C:6]([H:12])([H:13])[N:7]12)([H:9])[H:10].[O:1]([H:8])[H:14]"
O        1.23035628      -1.33259365       1.34749519
C        2.29051974      -0.08791189      -0.38385232
C        1.19622164       0.60363222      -0.90220466
C       -0.05083686       0.72876004      -0.81166751
C       -1.22973986       1.03319876      -0.05781199
C       -2.31780060       0.18329086      -0.57177642
N       -1.23460317      -0.43613532       0.15328102
H        1.48587945      -1.37510292       2.26799170
H        3.04813195       0.55753859       0.06263101
H        2.76285999      -0.73535901      -1.12263018
H       -1.27365104       1.70169382       0.78926249
H       -2.38843500      -0.00229387      -1.63845438
H       -3.24958567       0.23192493      -0.01713375
H       -0.26931683      -1.07064257       0.88486981
14
Frame=15 idx=009194 GeodesicLength=1.7334760283929822 rxn_smarts="[O:1]([C:2]([C:3]#[C:4][C@@:5]1([H:11])[C:6]([H:12])([H:13])[N:7]1[H:14])([H:9])[H:10])[H:8]>>[C:2](=[C:3]=[C:4]1[C@@:5]2([H:11])[C:6]([H:12])([H:13])[N:7]12)([H:9])[H:10].[O:1]([H:8])[H:14]"
O        1.23346067      -1.31327125       1.39857669
C        2.30482548      -0.08273571      -0.38830808
C        1.19565162       0.58468856      -0.91287376
C       -0.05381622       0.70190494      -0.83001768
C       -1.22165846       1.01945128      -0.05958206
C       -2.32812445       0.19812713      -0.57751962
N       -1.24254484      -0.45522280       0.11706881
H        1.49309338      -1.39206305       2.31518160
H        3.05326490       0.59072886       0.03323353
H        2.79199042      -0.71081630      -1.13524124
H       -1.24217699       1.66600972       0.80485472
H       -2.41439131       0.03794382      -1.64669948
H       -3.25013475       0.24349239      -0.00706712
H       -0.31943944      -1.08823758       0.88839368
14
Frame=16 idx=009194 GeodesicLength=1.848400689586346 rxn_smarts="[O:1]([C:2]([C:3]#[C:4][C@@:5]1([H:11])[C:6]([H:12])([H:13])[N:7]1[H:14])([H:9])[H:10])[H:8]>>[C:2](=[C:3]=[C:4]1[C@@:5]2([H:11])[C:6]([H:12])([H:13])[N:7]12)([H:9])[H:10].[O:1]([H:8])[H:14]"
O        1.23600797      -1.28972946       1.45248088
C        2.31971024      -0.07750713      -0.39357104
C        1.19533220       0.56530172      -0.92276654
C       -0.05637909       0.67516579      -0.84719021
C       -1.21331961       1.00546331      -0.06090031
C       -2.33732691       0.21297441      -0.58283979
N       -1.25088106      -0.47354713       0.08157111
H        1.50060149      -1.41062210       2.36273942
H        3.05814105       0.62335135       0.00203621
H        2.82004011      -0.68561617      -1.14941474
H       -1.21143973       1.62938131       0.81996364
H       -2.43789269       0.07847313      -1.65391012
H       -3.24999229       0.25461519       0.00217376
H       -0.37260168      -1.10770421       0.88962775
