14
Frame=0 idx=010958 GeodesicLength=0.0 rxn_smarts="[C:1]([c:2]1[c:3]([N:4]([H:11])[H:12])[c:5]([H:13])[c:6]([H:14])[o:7]1)([H:8])([H:9])[H:10]>>[C:1](=[C:2]1[C:3]([N:4]([H:11])[H:12])=[C:5]([H:13])[C:6]([H:10])([H:14])[O:7]1)([H:8])[H:9]"
C       -1.37096601      -0.94861031       0.19369389
C       -0.40172905      -0.54973539      -0.73923816
C        0.21404046       0.73080715      -0.52455325
N       -0.36946064       1.92839713      -0.82925877
C        1.32114986       0.44268730       0.23405099
C        1.30295480      -0.97395097       0.40487649
O        0.59225516      -1.50357617      -0.66320687
H       -2.12979251      -0.23965483       0.51461118
H       -1.67818523      -1.98867664       0.20935627
H       -0.10233216      -1.07757022       1.12760363
H       -0.17450628       2.71797763      -0.24128050
H       -1.29416799       1.89564559      -1.22061599
H        1.93926108       1.12726055       0.79436144
H        2.15147850      -1.56100077       0.73959962
14
Frame=1 idx=010958 GeodesicLength=0.055917347536518405 rxn_smarts="[C:1]([c:2]1[c:3]([N:4]([H:11])[H:12])[c:5]([H:13])[c:6]([H:14])[o:7]1)([H:8])([H:9])[H:10]>>[C:1](=[C:2]1[C:3]([N:4]([H:11])[H:12])=[C:5]([H:13])[C:6]([H:10])([H:14])[O:7]1)([H:8])[H:9]"
C       -1.37956868      -0.94889816       0.19019268
C       -0.39891285      -0.55340430      -0.73446980
C        0.21912387       0.72714973      -0.52947471
N       -0.37205639       1.92390872      -0.82893825
C        1.32938013       0.44491662       0.22896800
C        1.30883027      -0.96997564       0.41626805
O        0.59807224      -1.50376973      -0.65110470
H       -2.14116277      -0.23409121       0.49058240
H       -1.69818057      -1.98573639       0.18855156
H       -0.10788668      -1.08502350       1.14653903
H       -0.16308824       2.71535960      -0.24803083
H       -1.31130336       1.88826281      -1.18409794
H        1.95210402       1.13511165       0.77705181
H        2.16464902      -1.55381021       0.73796267
14
Frame=2 idx=010958 GeodesicLength=0.11182034458186452 rxn_smarts="[C:1]([c:2]1[c:3]([N:4]([H:11])[H:12])[c:5]([H:13])[c:6]([H:14])[o:7]1)([H:8])([H:9])[H:10]>>[C:1](=[C:2]1[C:3]([N:4]([H:11])[H:12])=[C:5]([H:13])[C:6]([H:10])([H:14])[O:7]1)([H:8])[H:9]"
C       -1.38829744      -0.94935318       0.18675345
C       -0.39629979      -0.55706640      -0.72944268
C        0.22396521       0.72347261      -0.53431804
N       -0.37489314       1.91934768      -0.82851795
C        1.33759356       0.44720966       0.22361908
C        1.31475434      -0.96572801       0.42759833
O        0.60372983      -1.50385036      -0.63884913
H       -2.15214294      -0.22885803       0.46685439
H       -1.71805525      -1.98262386       0.16721873
H       -0.11346831      -1.09280876       1.16573835
H       -0.15200583       2.71271840      -0.25514945
H       -1.32713845       1.88105613      -1.14732142
H        1.96475516       1.14293490       0.75942613
H        2.17750306      -1.54645076       0.73639021
14
Frame=3 idx=010958 GeodesicLength=0.16770925749946536 rxn_smarts="[C:1]([c:2]1[c:3]([N:4]([H:11])[H:12])[c:5]([H:13])[c:6]([H:14])[o:7]1)([H:8])([H:9])[H:10]>>[C:1](=[C:2]1[C:3]([N:4]([H:11])[H:12])=[C:5]([H:13])[C:6]([H:10])([H:14])[O:7]1)([H:8])[H:9]"
C       -1.39715746      -0.94997092       0.18335047
C       -0.39387876      -0.56072074      -0.72416509
C        0.22857940       0.71977288      -0.53910306
N       -0.37796533       1.91471726      -0.82797414
C        1.34580090       0.44955933       0.21798405
C        1.32072641      -0.96120271       0.43887277
O        0.60923340      -1.50382252      -0.62643113
H       -2.16273077      -0.22392905       0.44343998
H       -1.73779952      -1.97931251       0.14535491
H       -0.11907926      -1.10093270       1.18520468
H       -0.14129441       2.71003080      -0.26256896
H       -1.34169728       1.87401565      -1.11033817
H        1.97722935       1.15072693       0.74145839
H        2.19003332      -1.53893169       0.73491532
14
Frame=4 idx=010958 GeodesicLength=0.22358826229089812 rxn_smarts="[C:1]([c:2]1[c:3]([N:4]([H:11])[H:12])[c:5]([H:13])[c:6]([H:14])[o:7]1)([H:8])([H:9])[H:10]>>[C:1](=[C:2]1[C:3]([N:4]([H:11])[H:12])=[C:5]([H:13])[C:6]([H:10])([H:14])[O:7]1)([H:8])[H:9]"
C       -1.40615359      -0.95075978       0.17994935
C       -0.39163669      -0.56436944      -0.71864637
C        0.23297496       0.71604755      -0.54384323
N       -0.38126466       1.91001602      -0.82730892
C        1.35400424       0.45196102       0.21205147
C        1.32674215      -0.95639126       0.45010281
O        0.61459443      -1.50368838      -0.61384069
H       -2.17293106      -0.21929785       0.42033511
H       -1.75740280      -1.97578689       0.12293504
H       -0.12472516      -1.10940957       1.20494010
H       -0.13090541       2.70730179      -0.27032788
H       -1.35505792       1.86714178      -1.07306640
H        1.98952659       1.15848972       0.72313734
H        2.20223492      -1.53125473       0.73358230
14
Frame=5 idx=010958 GeodesicLength=0.2794510905877938 rxn_smarts="[C:1]([c:2]1[c:3]([N:4]([H:11])[H:12])[c:5]([H:13])[c:6]([H:14])[o:7]1)([H:8])([H:9])[H:10]>>[C:1](=[C:2]1[C:3]([N:4]([H:11])[H:12])=[C:5]([H:13])[C:6]([H:10])([H:14])[O:7]1)([H:8])[H:9]"
C       -1.41529114      -0.95171028       0.17652864
C       -0.38956607      -0.56801181      -0.71289095
C        0.23716524       0.71229304      -0.54856415
N       -0.38479242       1.90524603      -0.82649150
C        1.36221591       0.45440765       0.20579371
C        1.33280124      -0.95128375       0.46129133
O        0.61981377      -1.50345169      -0.60106562
H       -2.18274494      -0.21493198       0.39755421
H       -1.77685127      -1.97202100       0.09996590
H       -0.13040711      -1.11824048       1.22494711
H       -0.12090494       2.70450084      -0.27832430
H       -1.36719964       1.86041711      -1.03558961
H        2.00166008       1.16621497       0.70442862
H        2.21410129      -1.52342864       0.73241663
14
Frame=6 idx=010958 GeodesicLength=0.3353044579357511 rxn_smarts="[C:1]([c:2]1[c:3]([N:4]([H:11])[H:12])[c:5]([H:13])[c:6]([H:14])[o:7]1)([H:8])([H:9])[H:10]>>[C:1](=[C:2]1[C:3]([N:4]([H:11])[H:12])=[C:5]([H:13])[C:6]([H:10])([H:14])[O:7]1)([H:8])[H:9]"
C       -1.42457672      -0.95283870       0.17305063
C       -0.38765620      -0.57165127      -0.70690638
C        0.24115302       0.70850566      -0.55327300
N       -0.38854871       1.90040136      -0.82552245
C        1.37043227       0.45689458       0.19920197
C        1.33889659      -0.94586970       0.47245200
O        0.62490293      -1.50311299      -0.58809459
H       -2.19218498      -0.21083361       0.37508579
H       -1.79612846      -1.96800470       0.07641788
H       -0.13613637      -1.12744478       1.24522990
H       -0.11122141       2.70164264      -0.28663980
H       -1.37819013       1.85385172      -0.99778184
H        2.01362658       1.17390702       0.68532041
H        2.22563159      -1.51544724       0.73145948
14
Frame=7 idx=010958 GeodesicLength=0.3911453776984864 rxn_smarts="[C:1]([c:2]1[c:3]([N:4]([H:11])[H:12])[c:5]([H:13])[c:6]([H:14])[o:7]1)([H:8])([H:9])[H:10]>>[C:1](=[C:2]1[C:3]([N:4]([H:11])[H:12])=[C:5]([H:13])[C:6]([H:10])([H:14])[O:7]1)([H:8])[H:9]"
C       -1.43401725      -0.95414074       0.16948769
C       -0.38590094      -0.57528850      -0.70069647
C        0.24494695       0.70468114      -0.55799428
N       -0.39254164       1.89548031      -0.82437539
C        1.37866008       0.45941540       0.19225147
C        1.34502519      -0.94013569       0.48358991
O        0.62986312      -1.50267488      -0.57491299
H       -2.20125845      -0.20698112       0.35293011
H       -1.81521262      -1.96372572       0.05229379
H       -0.14192004      -1.13702934       1.26579073
H       -0.10187880       2.69871204      -0.29523185
H       -1.38801587       1.84743916      -0.95965534
H        2.02542950       1.18156092       0.66578391
H        2.23682079      -1.50731298       0.73073871
14
Frame=8 idx=010958 GeodesicLength=0.44698022319836717 rxn_smarts="[C:1]([c:2]1[c:3]([N:4]([H:11])[H:12])[c:5]([H:13])[c:6]([H:14])[o:7]1)([H:8])([H:9])[H:10]>>[C:1](=[C:2]1[C:3]([N:4]([H:11])[H:12])=[C:5]([H:13])[C:6]([H:10])([H:14])[O:7]1)([H:8])[H:9]"
C       -1.44362156      -0.95563029       0.16580482
C       -0.38429299      -0.57892855      -0.69426628
C        0.24854868       0.70081452      -0.56274018
N       -0.39678219       1.89047406      -0.82303378
C        1.38689709       0.46196351       0.18492447
C        1.35118086      -0.93406761       0.49471731
O        0.63470161      -1.50213947      -0.56150455
H       -2.20998482      -0.20337440       0.33107076
H       -1.83408581      -1.95916767       0.02756961
H       -0.14777213      -1.14700987       1.28663473
H       -0.09283464       2.69571372      -0.30415893
H       -1.39669394       1.84118486      -0.92110371
H        2.03706801       1.18917996       0.64579565
H        2.24767183      -1.49901278       0.73029006
14
Frame=9 idx=010958 GeodesicLength=0.5027909747541685 rxn_smarts="[C:1]([c:2]1[c:3]([N:4]([H:11])[H:12])[c:5]([H:13])[c:6]([H:14])[o:7]1)([H:8])([H:9])[H:10]>>[C:1](=[C:2]1[C:3]([N:4]([H:11])[H:12])=[C:5]([H:13])[C:6]([H:10])([H:14])[O:7]1)([H:8])[H:9]"
C       -1.45339353      -0.95727203       0.16196019
C       -0.38282129      -0.58256106      -0.68761950
C        0.25198677       0.69690215      -0.56754832
N       -0.40123830       1.88539493      -0.82147349
C        1.39516273       0.46452660       0.17718178
C        1.35735190      -0.92765140       0.50583773
O        0.63940977      -1.50150884      -0.54784431
H       -2.21836253      -0.19995328       0.30950176
H       -1.85272128      -1.95432717       0.00227776
H       -0.15369328      -1.15739176       1.30775677
H       -0.08421015       2.69260461      -0.31324710
H       -1.40421457       1.83503951      -0.88222152
H        2.04858602       1.19674136       0.62527425
H        2.25815773      -1.49054361       0.73016399
14
Frame=10 idx=010958 GeodesicLength=0.5585986829056833 rxn_smarts="[C:1]([c:2]1[c:3]([N:4]([H:11])[H:12])[c:5]([H:13])[c:6]([H:14])[o:7]1)([H:8])([H:9])[H:10]>>[C:1](=[C:2]1[C:3]([N:4]([H:11])[H:12])=[C:5]([H:13])[C:6]([H:10])([H:14])[O:7]1)([H:8])[H:9]"
C       -1.46334318      -0.95911041       0.15792446
C       -0.38148613      -0.58619895      -0.68075968
C        0.25523919       0.69293882      -0.57241609
N       -0.40594733       1.88022406      -0.81968473
C        1.40343864       0.46710154       0.16901794
C        1.36353421      -0.92086466       0.51696583
O        0.64400121      -1.50077900      -0.53392198
H       -2.22642029      -0.19675278       0.28820216
H       -1.87110278      -1.94919755      -0.02364828
H       -0.15970381      -1.16818885       1.32917184
H       -0.07583785       2.68942990      -0.32272790
H       -1.41060706       1.82902875      -0.84275211
H        2.05993453       1.20426064       0.60425028
H        2.26830065      -1.48189151       0.73037826
14
Frame=11 idx=010958 GeodesicLength=0.6144010888722504 rxn_smarts="[C:1]([c:2]1[c:3]([N:4]([H:11])[H:12])[c:5]([H:13])[c:6]([H:14])[o:7]1)([H:8])([H:9])[H:10]>>[C:1](=[C:2]1[C:3]([N:4]([H:11])[H:12])=[C:5]([H:13])[C:6]([H:10])([H:14])[O:7]1)([H:8])[H:9]"
C       -1.47347499      -0.96114300       0.15366056
C       -0.38028079      -0.58984424      -0.67369070
C        0.25831456       0.68891637      -0.57737378
N       -0.41091145       1.87495473      -0.81764649
C        1.41172970       0.46967972       0.16040242
C        1.36971725      -0.91368387       0.52811275
O        0.64847576      -1.49995067      -0.51971227
H       -2.23416557      -0.19375181       0.26714998
H       -1.88921105      -1.94376500      -0.05022447
H       -0.16581386      -1.17939763       1.35088844
H       -0.06774171       2.68617023      -0.33258630
H       -1.41585448       1.82313613      -0.80262871
H        2.07112098       1.21173033       0.58267581
H        2.27809563      -1.47305130       0.73097276
14
Frame=12 idx=010958 GeodesicLength=0.6702005759662126 rxn_smarts="[C:1]([c:2]1[c:3]([N:4]([H:11])[H:12])[c:5]([H:13])[c:6]([H:14])[o:7]1)([H:8])([H:9])[H:10]>>[C:1](=[C:2]1[C:3]([N:4]([H:11])[H:12])=[C:5]([H:13])[C:6]([H:10])([H:14])[O:7]1)([H:8])[H:9]"
C       -1.48379586      -0.96337329       0.14912740
C       -0.37919841      -0.59350180      -0.66641615
C        0.26121850       0.68482603      -0.58244978
N       -0.41613969       1.86957614      -0.81532857
C        1.42003874       0.47225017       0.15130086
C        1.37589044      -0.90608240       0.53929260
O        0.65283489      -1.49902521      -0.50518496
H       -2.24161844      -0.19093478       0.24631102
H       -1.90702266      -1.93801725      -0.07747700
H       -0.17204400      -1.19101240       1.37291677
H       -0.05993868       2.68280187      -0.34281761
H       -1.41992390       1.81734949      -0.76175089
H        2.08216594       1.21914436       0.56047836
H        2.28753313      -1.46400093       0.73199795
14
Frame=13 idx=010958 GeodesicLength=0.7259923136110361 rxn_smarts="[C:1]([c:2]1[c:3]([N:4]([H:11])[H:12])[c:5]([H:13])[c:6]([H:14])[o:7]1)([H:8])([H:9])[H:10]>>[C:1](=[C:2]1[C:3]([N:4]([H:11])[H:12])=[C:5]([H:13])[C:6]([H:10])([H:14])[O:7]1)([H:8])[H:9]"
C       -1.49431381      -0.96578917       0.14428958
C       -0.37823570      -0.59717435      -0.65894118
C        0.26395906       0.68065788      -0.58768637
N       -0.42163758       1.86407907      -0.81269076
C        1.42837353       0.47479871       0.14166363
C        1.38204430      -0.89803146       0.55050890
O        0.65707318      -1.49800397      -0.49031212
H       -2.24878571      -0.18827252       0.22565519
H       -1.92451509      -1.93194765      -0.10539702
H       -0.17840533      -1.20301722       1.39526368
H       -0.05247857       2.67929319      -0.35334541
H       -1.42275551       1.81164200      -0.72010481
H        2.09307065       1.22649211       0.53760586
H        2.29660658      -1.45472662       0.73349084
14
Frame=14 idx=010958 GeodesicLength=0.781784143296299 rxn_smarts="[C:1]([c:2]1[c:3]([N:4]([H:11])[H:12])[c:5]([H:13])[c:6]([H:14])[o:7]1)([H:8])([H:9])[H:10]>>[C:1](=[C:2]1[C:3]([N:4]([H:11])[H:12])=[C:5]([H:13])[C:6]([H:10])([H:14])[O:7]1)([H:8])[H:9]"
C       -1.50503698      -0.96839117       0.13910392
C       -0.37738790      -0.60086590      -0.65126492
C        0.26653932       0.67640218      -0.59311079
N       -0.42741741       1.85845439      -0.80967933
C        1.43673618       0.47731046       0.13145212
C        1.38816535      -0.88949644       0.56177879
O        0.66118774      -1.49688576      -0.47505346
H       -2.25568648      -0.18574045       0.20514152
H       -1.94166529      -1.92553675      -0.13402401
H       -0.18491884      -1.21539760       1.41794954
H       -0.04540246       2.67562084      -0.36412808
H       -1.42429414       1.80597186      -0.67762109
H        2.10387057       1.23375588       0.51395133
H        2.30531034      -1.44520153       0.73550445
14
Frame=15 idx=010958 GeodesicLength=0.8375738622188058 rxn_smarts="[C:1]([c:2]1[c:3]([N:4]([H:11])[H:12])[c:5]([H:13])[c:6]([H:14])[o:7]1)([H:8])([H:9])[H:10]>>[C:1](=[C:2]1[C:3]([N:4]([H:11])[H:12])=[C:5]([H:13])[C:6]([H:10])([H:14])[O:7]1)([H:8])[H:9]"
C       -1.51597120      -0.97115923       0.13354252
C       -0.37665341      -0.60457639      -0.64338429
C        0.26896736       0.67204868      -0.59876000
N       -0.43347005       1.85269930      -0.80623779
C        1.44513752       0.47976387       0.12061305
C        1.39424728      -0.88044418       0.57310444
O        0.66516823      -1.49566947      -0.45937286
H       -2.26232210      -0.18328835       0.18475169
H       -1.95845430      -1.91875893      -0.16335649
H       -0.19159242      -1.22813100       1.44099192
H       -0.03880433       2.67174474      -0.37497996
H       -1.42448615       1.80026823      -0.63440785
H        2.11459382       1.24091040       0.48942259
H        2.31363974      -1.43540767       0.73807303
14
Frame=16 idx=010958 GeodesicLength=0.8933674059289217 rxn_smarts="[C:1]([c:2]1[c:3]([N:4]([H:11])[H:12])[c:5]([H:13])[c:6]([H:14])[o:7]1)([H:8])([H:9])[H:10]>>[C:1](=[C:2]1[C:3]([N:4]([H:11])[H:12])=[C:5]([H:13])[C:6]([H:10])([H:14])[O:7]1)([H:8])[H:9]"
C       -1.52712606      -0.97409276       0.12756358
C       -0.37603176      -0.60830919      -0.63529679
C        0.27123915       0.66758709      -0.60466124
N       -0.43980664       1.84680191      -0.80230631
C        1.45357618       0.48213957       0.10910074
C        1.40027686      -0.87083230       0.58449622
O        0.66900861      -1.49434855      -0.44322922
H       -2.26870008      -0.18088877       0.16445756
H       -1.97486067      -1.91159855      -0.19343335
H       -0.19844285      -1.24120384       1.46440857
H       -0.03271073       2.66764794      -0.38585275
H       -1.42326609       1.79447592      -0.59041856
H        2.12525369       1.24793092       0.46392687
H        2.32159039      -1.42530939       0.74124465
