12
Frame=0 idx=005840 GeodesicLength=0.0 rxn_smarts="[N:1]([C@@:2]([C:3]([O:4][H:12])([H:10])[H:11])([C:5]#[N:6])[H:9])([H:7])[H:8]>>[N:1]([C:2](=[C:3]([H:10])[H:11])[C:5]#[N:6])([H:7])[H:8].[O:4]([H:9])[H:12]"
N        0.50075495       1.44510019       0.41096625
C        0.44014993       0.05550057       0.02003335
C       -0.75050131      -0.34819183      -0.70338031
O       -1.57048356      -1.03347744       0.56670402
C        1.65952184      -0.61821126      -0.31005174
N        2.65547340      -1.15232322      -0.54101632
H        0.89060399       1.55334897       1.33551161
H        1.06430333       2.00015250      -0.22123982
H       -0.55527675      -0.72918945       0.96944982
H       -1.42084851       0.43688357      -1.04152871
H       -0.67220794      -1.19132048      -1.37992801
H       -2.24148933      -0.41827208       0.89447991
12
Frame=1 idx=005840 GeodesicLength=0.09968499426164869 rxn_smarts="[N:1]([C@@:2]([C:3]([O:4][H:12])([H:10])[H:11])([C:5]#[N:6])[H:9])([H:7])[H:8]>>[N:1]([C:2](=[C:3]([H:10])[H:11])[C:5]#[N:6])([H:7])[H:8].[O:4]([H:9])[H:12]"
N        0.51503759       1.42665929       0.44423206
C        0.44092604       0.05151735       0.01783407
C       -0.73894922      -0.36644084      -0.71178624
O       -1.59776604      -1.01882399       0.57456408
C        1.66685358      -0.61096407      -0.32297699
N        2.66686675      -1.12829039      -0.57240774
H        0.95453672       1.52775794       1.34655121
H        1.01149197       2.01368816      -0.21396232
H       -0.58680019      -0.68573335       1.00122327
H       -1.40421939       0.41254961      -1.07365610
H       -0.65277123      -1.21882218      -1.37591435
H       -2.27520658      -0.40309752       0.88629905
12
Frame=2 idx=005840 GeodesicLength=0.1993346808175033 rxn_smarts="[N:1]([C@@:2]([C:3]([O:4][H:12])([H:10])[H:11])([C:5]#[N:6])[H:9])([H:7])[H:8]>>[N:1]([C:2](=[C:3]([H:10])[H:11])[C:5]#[N:6])([H:7])[H:8].[O:4]([H:9])[H:12]"
N        0.53083935       1.40687363       0.47676818
C        0.44218357       0.04678173       0.01632065
C       -0.72671690      -0.38568985      -0.71939874
O       -1.62574396      -1.00262518       0.58210547
C        1.67471937      -0.60336530      -0.33697876
N        2.67833579      -1.10324634      -0.60548059
H        1.01808114       1.50244391       1.35431082
H        0.95623579       2.02580147      -0.20086436
H       -0.61960673      -0.63976847       1.03117858
H       -1.38651342       0.38653480      -1.10541857
H       -0.63274453      -1.24737343      -1.37058081
H       -2.30906948      -0.38636698       0.87803814
12
Frame=3 idx=005840 GeodesicLength=0.29897724386784963 rxn_smarts="[N:1]([C@@:2]([C:3]([O:4][H:12])([H:10])[H:11])([C:5]#[N:6])[H:9])([H:7])[H:8]>>[N:1]([C:2](=[C:3]([H:10])[H:11])[C:5]#[N:6])([H:7])[H:8].[O:4]([H:9])[H:12]"
N        0.54809905       1.38580337       0.50845823
C        0.44395744       0.04129017       0.01535988
C       -0.71382871      -0.40605046      -0.72618404
O       -1.65439491      -0.98473987       0.58928043
C        1.68311836      -0.59527200      -0.35227854
N        2.68983358      -1.07711863      -0.64027418
H        1.08088988       1.47744877       1.35900263
H        0.89887908       2.03620829      -0.18154092
H       -0.65357718      -0.59110937       1.05910035
H       -1.36779098       0.35860451      -1.13684030
H       -0.61214643      -1.27715626      -1.36378899
H       -2.34303918      -0.36790851       0.86970545
12
Frame=4 idx=005840 GeodesicLength=0.3986500829474566 rxn_smarts="[N:1]([C@@:2]([C:3]([O:4][H:12])([H:10])[H:11])([C:5]#[N:6])[H:9])([H:7])[H:8]>>[N:1]([C:2](=[C:3]([H:10])[H:11])[C:5]#[N:6])([H:7])[H:8].[O:4]([H:9])[H:12]"
N        0.56676056       1.36352813       0.53922318
C        0.44627025       0.03503923       0.01487785
C       -0.70031359      -0.42761438      -0.73209310
O       -1.68368978      -0.96507405       0.59600647
C        1.69201497      -0.58658033      -0.36897763
N        2.70128980      -1.04976598      -0.67688789
H        1.14271410       1.45289549       1.36086557
H        0.83978433       2.04449672      -0.15571282
H       -0.68861472      -0.53954835       1.08476243
H       -1.34812221       0.32855458      -1.16789499
H       -0.59097742      -1.30829132      -1.35543064
H       -2.37711629      -0.34763974       0.86126158
12
Frame=5 idx=005840 GeodesicLength=0.4979996319897045 rxn_smarts="[N:1]([C@@:2]([C:3]([O:4][H:12])([H:10])[H:11])([C:5]#[N:6])[H:9])([H:7])[H:8]>>[N:1]([C:2](=[C:3]([H:10])[H:11])[C:5]#[N:6])([H:7])[H:8].[O:4]([H:9])[H:12]"
N        0.58654440       1.34015755       0.56860831
C        0.44909376       0.02822375       0.01434258
C       -0.68628447      -0.45052622      -0.73712072
O       -1.71339221      -0.94336488       0.60230363
C        1.70134636      -0.57693318      -0.38753413
N        2.71262535      -1.02110362      -0.71527840
H        1.20211113       1.42839608       1.36054728
H        0.78039552       2.05043136      -0.12282207
H       -0.72429579      -0.48478794       1.10769641
H       -1.32785901       0.29589402      -1.19858495
H       -0.56927518      -1.34108593      -1.34511143
H       -2.41100986      -0.32530100       0.85295350
12
Frame=6 idx=005840 GeodesicLength=0.5972928032218215 rxn_smarts="[N:1]([C@@:2]([C:3]([O:4][H:12])([H:10])[H:11])([C:5]#[N:6])[H:9])([H:7])[H:8]>>[N:1]([C:2](=[C:3]([H:10])[H:11])[C:5]#[N:6])([H:7])[H:8].[O:4]([H:9])[H:12]"
N        0.60747653       1.31572253       0.59694587
C        0.45246437       0.02066888       0.01420360
C       -0.67168571      -0.47475246      -0.74109081
O       -1.74359084      -0.91973337       0.60792277
C        1.71102261      -0.56641952      -0.40761047
N        2.72369398      -0.99091750      -0.75560780
H        1.26021491       1.40448459       1.35788371
H        0.72006333       2.05324979      -0.08315707
H       -0.76085620      -0.42660598       1.12776039
H       -1.30684601       0.26073668      -1.22864718
H       -0.54690256      -1.37525375      -1.33299619
H       -2.44505440      -0.30117988       0.84439319
12
Frame=7 idx=005840 GeodesicLength=0.6965328657842171 rxn_smarts="[N:1]([C@@:2]([C:3]([O:4][H:12])([H:10])[H:11])([C:5]#[N:6])[H:9])([H:7])[H:8]>>[N:1]([C:2](=[C:3]([H:10])[H:11])[C:5]#[N:6])([H:7])[H:8].[O:4]([H:9])[H:12]"
N        0.62938401       1.29025722       0.62421294
C        0.45637182       0.01243774       0.01428159
C       -0.65656420      -0.50041466      -0.74393422
O       -1.77417688      -0.89401986       0.61277660
C        1.72093641      -0.55475707      -0.42947061
N        2.73437040      -0.95906504      -0.79786079
H        1.31682164       1.38104886       1.35310070
H        0.65923672       2.05255656      -0.03627700
H       -0.79814263      -0.36462887       1.14449186
H       -1.28521899       0.22274812      -1.25804543
H       -0.52380421      -1.41098568      -1.31880295
H       -2.47921408      -0.27517735       0.83552731
12
Frame=8 idx=005840 GeodesicLength=0.795757818834558 rxn_smarts="[N:1]([C@@:2]([C:3]([O:4][H:12])([H:10])[H:11])([C:5]#[N:6])[H:9])([H:7])[H:8]>>[N:1]([C:2](=[C:3]([H:10])[H:11])[C:5]#[N:6])([H:7])[H:8].[O:4]([H:9])[H:12]"
N        0.65209971       1.26388615       0.65040035
C        0.46078606       0.00361715       0.01446963
C       -0.64099549      -0.52755659      -0.74558291
O       -1.80499446      -0.86621873       0.61677198
C        1.73091557      -0.54173886      -0.45320616
N        2.74447325      -0.92544647      -0.84194277
H        1.37171084       1.35816633       1.34649202
H        0.59859361       2.04780889       0.01791462
H       -0.83599068      -0.29855377       1.15739287
H       -1.26320488       0.18172861      -1.28660742
H       -0.49992638      -1.44825615      -1.30246289
H       -2.51346715      -0.24743656       0.82636067
12
Frame=9 idx=005840 GeodesicLength=0.8947325968671904 rxn_smarts="[N:1]([C@@:2]([C:3]([O:4][H:12])([H:10])[H:11])([C:5]#[N:6])[H:9])([H:7])[H:8]>>[N:1]([C:2](=[C:3]([H:10])[H:11])[C:5]#[N:6])([H:7])[H:8].[O:4]([H:9])[H:12]"
N        0.67512860       1.23684634       0.67522698
C        0.46549517      -0.00535542       0.01422049
C       -0.62514853      -0.55629061      -0.74597734
O       -1.83575284      -0.83633477       0.61994675
C        1.74066056      -0.52702651      -0.47890333
N        2.75373907      -0.88950106      -0.88798680
H        1.42343447       1.33512481       1.33915442
H        0.54074996       2.03885178       0.07913671
H       -0.87414247      -0.22793803       1.16571371
H       -1.24134194       0.13707900      -1.31420454
H       -0.47513003      -1.48724069      -1.28353133
H       -2.54769201      -0.21821484       0.81720429
12
Frame=10 idx=005840 GeodesicLength=0.9937040499500778 rxn_smarts="[N:1]([C@@:2]([C:3]([O:4][H:12])([H:10])[H:11])([C:5]#[N:6])[H:9])([H:7])[H:8]>>[N:1]([C:2](=[C:3]([H:10])[H:11])[C:5]#[N:6])([H:7])[H:8].[O:4]([H:9])[H:12]"
N        0.69833552       1.20910175       0.69915793
C        0.47050081      -0.01460365       0.01384503
C       -0.60900974      -0.58659200      -0.74496843
O       -1.86645308      -0.80438763       0.62209392
C        1.74997401      -0.51057803      -0.50636754
N        2.76191505      -0.85111400      -0.93588897
H        1.47280068       1.31231260       1.33097553
H        0.48537326       2.02498816       0.14700113
H       -0.91257601      -0.15277993       1.16893836
H       -1.21961303       0.08889649      -1.34050776
H       -0.44926529      -1.52763835      -1.26220053
H       -2.58198219      -0.18760540       0.80792133
12
Frame=11 idx=005840 GeodesicLength=1.0926981253589292 rxn_smarts="[N:1]([C@@:2]([C:3]([O:4][H:12])([H:10])[H:11])([C:5]#[N:6])[H:9])([H:7])[H:8]>>[N:1]([C:2](=[C:3]([H:10])[H:11])[C:5]#[N:6])([H:7])[H:8].[O:4]([H:9])[H:12]"
N        0.72127383       1.18078088       0.72235117
C        0.47554841      -0.02362997       0.01287534
C       -0.59274268      -0.61854020      -0.74250452
O       -1.89689169      -0.77048254       0.62319924
C        1.75848603      -0.49194681      -0.53570542
N        2.76867847      -0.80988378      -0.98549024
H        1.51908829       1.28901393       1.32295592
H        0.43458313       2.00637074       0.22081427
H       -0.95109057      -0.07289852       1.16621319
H       -1.19854085       0.03665396      -1.36539776
H       -0.42212327      -1.56950719      -1.23815939
H       -2.61626911      -0.15593050       0.79884821
12
Frame=12 idx=005840 GeodesicLength=1.1916703707484857 rxn_smarts="[N:1]([C@@:2]([C:3]([O:4][H:12])([H:10])[H:11])([C:5]#[N:6])[H:9])([H:7])[H:8]>>[N:1]([C:2](=[C:3]([H:10])[H:11])[C:5]#[N:6])([H:7])[H:8].[O:4]([H:9])[H:12]"
N        0.74342976       1.15191162       0.74518080
C        0.48032952      -0.03192724       0.01092765
C       -0.57648191      -0.65215721      -0.73850571
O       -1.92690917      -0.73479363       0.62323337
C        1.76579515      -0.47078169      -0.56682728
N        2.77367799      -0.76529609      -1.03661157
H        1.56168781       1.26435200       1.31629242
H        0.39054199       1.98337468       0.29903624
H       -0.98954186       0.01162122       1.15669850
H       -1.17863322      -0.02004680      -1.38860059
H       -0.39340301      -1.61268272      -1.21129285
H       -2.65049305      -0.12357414       0.79046900
12
Frame=13 idx=005840 GeodesicLength=1.2905348100104972 rxn_smarts="[N:1]([C@@:2]([C:3]([O:4][H:12])([H:10])[H:11])([C:5]#[N:6])[H:9])([H:7])[H:8]>>[N:1]([C:2](=[C:3]([H:10])[H:11])[C:5]#[N:6])([H:7])[H:8].[O:4]([H:9])[H:12]"
N        0.76427981       1.12228326       0.76832469
C        0.48444042      -0.03884213       0.00751605
C       -0.56032348      -0.68755257      -0.73283631
O       -1.95638602      -0.69747224       0.62219183
C        1.77145696      -0.44667605      -0.59962281
N        2.77646359      -0.71644918      -1.08933184
H        1.60009413       1.23683105       1.31254619
H        0.35564600       1.95691971       0.37969094
H       -1.02797627       0.10088322       1.13933507
H       -1.16035757      -0.08185603      -1.40987862
H       -0.36267029      -1.65712336      -1.18124728
H       -2.68466729      -0.09094568       0.78331210
12
Frame=14 idx=005840 GeodesicLength=1.3892839428375368 rxn_smarts="[N:1]([C@@:2]([C:3]([O:4][H:12])([H:10])[H:11])([C:5]#[N:6])[H:9])([H:7])[H:8]>>[N:1]([C:2](=[C:3]([H:10])[H:11])[C:5]#[N:6])([H:7])[H:8].[O:4]([H:9])[H:12]"
N        0.78347894       1.09129692       0.79261088
C        0.48751443      -0.04364873       0.00195481
C       -0.54424002      -0.72491114      -0.72533337
O       -1.98526958      -0.65829455       0.61992022
C        1.77503685      -0.41881159      -0.63454535
N        2.77676733      -0.66290097      -1.14338826
H        1.63441150       1.20485614       1.31276994
H        0.33050096       1.92786617       0.46172085
H       -1.06630343       0.19483591       1.11292331
H       -1.14405111      -0.14967780      -1.42902605
H       -0.32926484      -1.70283347      -1.14750658
H       -2.71858103      -0.05777688       0.77789960
12
Frame=15 idx=005840 GeodesicLength=1.4878954516803768 rxn_smarts="[N:1]([C@@:2]([C:3]([O:4][H:12])([H:10])[H:11])([C:5]#[N:6])[H:9])([H:7])[H:8]>>[N:1]([C:2](=[C:3]([H:10])[H:11])[C:5]#[N:6])([H:7])[H:8].[O:4]([H:9])[H:12]"
N        0.80070022       1.05773586       0.81922182
C        0.48909951      -0.04558798      -0.00648086
C       -0.52802204      -0.76484755      -0.71543519
O       -2.01366171      -0.61645745       0.61610258
C        1.77604342      -0.38633813      -0.67200463
N        2.77394739      -0.60268781      -1.19988019
H        1.66478820       1.16594163       1.31822954
H        0.31574528       1.89682153       0.54477523
H       -1.10469880       0.29419942       1.07555967
H       -1.12970487      -0.22538986      -1.44578228
H       -0.29213630      -1.75032793      -1.10856648
H       -2.75210030      -0.02306172       0.77426079
12
Frame=16 idx=005840 GeodesicLength=1.5862186791479396 rxn_smarts="[N:1]([C@@:2]([C:3]([O:4][H:12])([H:10])[H:11])([C:5]#[N:6])[H:9])([H:7])[H:8]>>[N:1]([C:2](=[C:3]([H:10])[H:11])[C:5]#[N:6])([H:7])[H:8].[O:4]([H:9])[H:12]"
N        0.81551024       1.01978512       0.84925802
C        0.48864868      -0.04370958      -0.01879300
C       -0.51119680      -0.80820871      -0.70217445
O       -2.04159423      -0.57039319       0.60998783
C        1.77379387      -0.34784020      -0.71288134
N        2.76695381      -0.53348727      -1.26030904
H        1.69130535       1.11708255       1.32971234
H        0.31078873       1.86354880       0.63002689
H       -1.14290106       0.39972905       1.02480368
H       -1.11705388      -0.31174801      -1.45950294
H       -0.24961356      -1.80014910      -1.06214435
H       -2.78464116       0.01539055       0.77201637
