11
Frame=0 idx=001466 GeodesicLength=0.0 rxn_smarts="[C:1]([C@@:2]1([H:10])[O:3][C@:4]1([C:5]#[N:6])[H:11])([H:7])([H:8])[H:9]>>[C:1]([C@@:2]([O:3][C:5]#[N:6])([C:4][H:11])[H:10])([H:7])([H:8])[H:9]"
C       -1.34060353      -0.28014932      -0.19878198
C       -0.23018773       0.63780718       0.19886043
O        0.86903147      -0.00728462       0.97126208
C        0.98151466       0.78071520      -0.62003287
C        1.51564896      -0.91314494       0.17419687
N        2.07971713      -1.90337998      -0.03958667
H       -1.92378829      -0.59093972       0.66848081
H       -2.00043280       0.25514289      -0.88460830
H       -0.94794372      -1.15639474      -0.71477108
H       -0.52673290       1.47593168       0.82707451
H        1.52377670       1.70169640      -0.38209378
11
Frame=1 idx=001466 GeodesicLength=0.0558681650430205 rxn_smarts="[C:1]([C@@:2]1([H:10])[O:3][C@:4]1([C:5]#[N:6])[H:11])([H:7])([H:8])[H:9]>>[C:1]([C@@:2]([O:3][C:5]#[N:6])([C:4][H:11])[H:10])([H:7])([H:8])[H:9]"
C       -1.33892511      -0.28147736      -0.19766573
C       -0.23265289       0.64098164       0.20085167
O        0.86713617       0.00319738       0.97494426
C        0.98444768       0.78020465      -0.61122621
C        1.51741479      -0.91686548       0.16777210
N        2.07467258      -1.90977738      -0.04885572
H       -1.92255199      -0.59252535       0.66926005
H       -1.99910051       0.25026391      -0.88593183
H       -0.94477945      -1.15855709      -0.71091654
H       -0.53414812       1.48317767       0.82122028
H        1.52848685       1.70137743      -0.37945233
11
Frame=2 idx=001466 GeodesicLength=0.11174183954675432 rxn_smarts="[C:1]([C@@:2]1([H:10])[O:3][C@:4]1([C:5]#[N:6])[H:11])([H:7])([H:8])[H:9]>>[C:1]([C@@:2]([O:3][C:5]#[N:6])([C:4][H:11])[H:10])([H:7])([H:8])[H:9]"
C       -1.33721138      -0.28282097      -0.19650780
C       -0.23511577       0.64415500       0.20285045
O        0.86511331       0.01376518       0.97882755
C        0.98739153       0.77969977      -0.60229201
C        1.51923864      -0.92058002       0.16116152
N        2.06954629      -1.91618083      -0.05830990
H       -1.92133065      -0.59405384       0.67007282
H       -1.99768417       0.24531059      -0.88727891
H       -0.94157711      -1.16076687      -0.70694192
H       -0.54160701       1.49046015       0.81513443
H        1.53323632       1.70101184      -0.37671623
11
Frame=3 idx=001466 GeodesicLength=0.16761525723897683 rxn_smarts="[C:1]([C@@:2]1([H:10])[O:3][C@:4]1([C:5]#[N:6])[H:11])([H:7])([H:8])[H:9]>>[C:1]([C@@:2]([O:3][C:5]#[N:6])([C:4][H:11])[H:10])([H:7])([H:8])[H:9]"
C       -1.33548314      -0.28416798      -0.19530875
C       -0.23758127       0.64732062       0.20485423
O        0.86294828       0.02440207       0.98290962
C        0.99034210       0.77917763      -0.59323071
C        1.52109141      -0.92432015       0.15434193
N        2.06446840      -1.92254507      -0.06791403
H       -1.92014203      -0.59551312       0.67092074
H       -1.99620516       0.24031320      -0.88863442
H       -0.93837365      -1.16300978      -0.70286268
H       -0.54909728       1.49777280       0.80881198
H        1.53803233       1.70056976      -0.37388790
11
Frame=4 idx=001466 GeodesicLength=0.22348195078639688 rxn_smarts="[C:1]([C@@:2]1([H:10])[O:3][C@:4]1([C:5]#[N:6])[H:11])([H:7])([H:8])[H:9]>>[C:1]([C@@:2]([O:3][C:5]#[N:6])([C:4][H:11])[H:10])([H:7])([H:8])[H:9]"
C       -1.33376151      -0.28550575      -0.19406943
C       -0.24005432       0.65047214       0.20686063
O        0.86062684       0.03509229       0.98718836
C        0.99329461       0.77861469      -0.58404282
C        1.52294273      -0.92811683       0.14728940
N        2.05957258      -1.92882799      -0.07762987
H       -1.91900238      -0.59689302       0.67180522
H       -1.99468702       0.23530383      -0.88998129
H       -0.93520646      -1.16526966      -0.69869728
H       -0.55660605       1.50510938       0.80224843
H        1.54288098       1.70002090      -0.37097135
11
Frame=5 idx=001466 GeodesicLength=0.27934810564844276 rxn_smarts="[C:1]([C@@:2]1([H:10])[O:3][C@:4]1([C:5]#[N:6])[H:11])([H:7])([H:8])[H:9]>>[C:1]([C@@:2]([O:3][C:5]#[N:6])([C:4][H:11])[H:10])([H:7])([H:8])[H:9]"
C       -1.33202526      -0.28684810      -0.19278462
C       -0.24253149       0.65361821       0.20887209
O        0.85815472       0.04586651       0.99167711
C        0.99625713       0.77803032      -0.57471330
C        1.52482107      -0.93193922       0.14000619
N        2.05473009      -1.93507593      -0.08750783
H       -1.91789906      -0.59819960       0.67272844
H       -1.99310189       0.23024476      -0.89133768
H       -0.93203860      -1.16756642      -0.69441666
H       -0.56414435       1.51247827       0.79542690
H        1.54777765       1.69939120      -0.36795064
11
Frame=6 idx=001466 GeodesicLength=0.3352195816766787 rxn_smarts="[C:1]([C@@:2]1([H:10])[O:3][C@:4]1([C:5]#[N:6])[H:11])([H:7])([H:8])[H:9]>>[C:1]([C@@:2]([O:3][C:5]#[N:6])([C:4][H:11])[H:10])([H:7])([H:8])[H:9]"
C       -1.33025181      -0.28820941      -0.19145008
C       -0.24500832       0.65676665       0.21088955
O        0.85553770       0.05675624       0.99639006
C        0.99923966       0.77744335      -0.56522633
C        1.52675588      -0.93575698       0.13249590
N        2.04980613      -1.94133312      -0.09759704
H       -1.91681776      -0.59943953       0.67369170
H       -1.99142417       0.22509865      -0.89271793
H       -0.92883093      -1.16991882      -0.68999421
H       -0.57172367       1.51988500       0.78832951
H        1.55271728       1.69870797      -0.36481112
11
Frame=7 idx=001466 GeodesicLength=0.391102103368634 rxn_smarts="[C:1]([C@@:2]1([H:10])[O:3][C@:4]1([C:5]#[N:6])[H:11])([H:7])([H:8])[H:9]>>[C:1]([C@@:2]([O:3][C:5]#[N:6])([C:4][H:11])[H:10])([H:7])([H:8])[H:9]"
C       -1.32842436      -0.28960021      -0.19006163
C       -0.24748205       0.65992307       0.21291393
O        0.85277547       0.06778635       1.00133927
C        1.00224982       0.77686602      -0.55556695
C        1.52876836      -0.93954848       0.12475861
N        2.04470341      -1.94762832      -0.10793418
H       -1.91574649      -0.60062129       0.67469633
H       -1.98963611       0.21983913      -0.89412754
H       -0.92555555      -1.17233831      -0.68541219
H       -0.57935187       1.52733460       0.78093432
H        1.55769936       1.69798744      -0.36153997
11
Frame=8 idx=001466 GeodesicLength=0.4470027907614573 rxn_smarts="[C:1]([C@@:2]1([H:10])[O:3][C@:4]1([C:5]#[N:6])[H:11])([H:7])([H:8])[H:9]>>[C:1]([C@@:2]([O:3][C:5]#[N:6])([C:4][H:11])[H:10])([H:7])([H:8])[H:9]"
C       -1.32652604      -0.29103306      -0.18861505
C       -0.24995014       0.66309322       0.21494656
O        0.84987287       0.07898042       1.00654066
C        1.00529738       0.77631111      -0.54571912
C        1.53088295      -0.94329182       0.11679080
N        2.03931824      -1.95398905      -0.11856602
H       -1.91467814      -0.60174302       0.67574702
H       -1.98771810       0.21443287      -0.89558182
H       -0.92218213      -1.17484501      -0.68064432
H       -0.58704108       1.53483665       0.77321808
H        1.56272420       1.69724769      -0.35811680
11
Frame=9 idx=001466 GeodesicLength=0.5029301611805481 rxn_smarts="[C:1]([C@@:2]1([H:10])[O:3][C@:4]1([C:5]#[N:6])[H:11])([H:7])([H:8])[H:9]>>[C:1]([C@@:2]([O:3][C:5]#[N:6])([C:4][H:11])[H:10])([H:7])([H:8])[H:9]"
C       -1.32453394      -0.29252261      -0.18710387
C       -0.25240805       0.66628314       0.21698480
O        0.84681852       0.09036966       1.01200096
C        1.00839028       0.77579710      -0.53566402
C        1.53312702      -0.94695731       0.10859707
N        2.03351478      -1.96044149      -0.12953985
H       -1.91359496      -0.60281368       0.67684313
H       -1.98563900       0.20884106      -0.89708649
H       -0.91867599      -1.17745256      -0.67566311
H       -0.59479100       1.54238698       0.76515458
H        1.56779234       1.69650971      -0.35452320
11
Frame=10 idx=001466 GeodesicLength=0.5588593583701114 rxn_smarts="[C:1]([C@@:2]1([H:10])[O:3][C@:4]1([C:5]#[N:6])[H:11])([H:7])([H:8])[H:9]>>[C:1]([C@@:2]([O:3][C:5]#[N:6])([C:4][H:11])[H:10])([H:7])([H:8])[H:9]"
C       -1.32250128      -0.29403397      -0.18553071
C       -0.25486788       0.66947642       0.21902810
O        0.84359236       0.10190215       1.01771195
C        1.01151163       0.77526749      -0.52541186
C        1.53542214      -0.95061993       0.10011983
N        2.02762913      -1.96688037      -0.14076764
H       -1.91254866      -0.60379283       0.67798879
H       -1.98344363       0.20314097      -0.89862480
H       -0.91513060      -1.18013195      -0.67049452
H       -0.60257555       1.54997079       0.75675573
H        1.57291234       1.69570125      -0.35077485
11
Frame=11 idx=001466 GeodesicLength=0.614807391782051 rxn_smarts="[C:1]([C@@:2]1([H:10])[O:3][C@:4]1([C:5]#[N:6])[H:11])([H:7])([H:8])[H:9]>>[C:1]([C@@:2]([O:3][C:5]#[N:6])([C:4][H:11])[H:10])([H:7])([H:8])[H:9]"
C       -1.32040757      -0.29558340      -0.18388921
C       -0.25732695       0.67268259       0.22107744
O        0.84019244       0.11361147       1.02368873
C        1.01467198       0.77474096      -0.51494246
C        1.53780745      -0.95424534       0.09135937
N        2.02151753      -1.97334279      -0.15230390
H       -1.91152785      -0.60468939       0.67918624
H       -1.98110734       0.19728810      -0.90021166
H       -0.91150729      -1.18290358      -0.66511014
H       -0.61040255       1.55759632       0.74799699
H        1.57809014       1.69484505      -0.34685141
11
Frame=12 idx=001466 GeodesicLength=0.6707818253791711 rxn_smarts="[C:1]([C@@:2]1([H:10])[O:3][C@:4]1([C:5]#[N:6])[H:11])([H:7])([H:8])[H:9]>>[C:1]([C@@:2]([O:3][C:5]#[N:6])([C:4][H:11])[H:10])([H:7])([H:8])[H:9]"
C       -1.31823221      -0.29718228      -0.18217292
C       -0.25978138       0.67590615       0.22313302
O        0.83661526       0.12552410       1.02994486
C        1.01787978       0.77423072      -0.50423606
C        1.54030250      -0.95781033       0.08230802
N        2.01506889      -1.97984781      -0.16419870
H       -1.91052579      -0.60549784       0.68043643
H       -1.97859741       0.19124587      -0.90186383
H       -0.90777440      -1.18578638      -0.65947162
H       -0.61827901       1.56526055       0.73885325
H        1.58332376       1.69395727      -0.34273244
11
Frame=13 idx=001466 GeodesicLength=0.7267757760192938 rxn_smarts="[C:1]([C@@:2]1([H:10])[O:3][C@:4]1([C:5]#[N:6])[H:11])([H:7])([H:8])[H:9]>>[C:1]([C@@:2]([O:3][C:5]#[N:6])([C:4][H:11])[H:10])([H:7])([H:8])[H:9]"
C       -1.31598994      -0.29882301      -0.18037981
C       -0.26223450       0.67914327       0.22519341
O        0.83284558       0.13763340       1.03648149
C        1.02113214       0.77371795      -0.49328588
C        1.54288991      -0.96133236       0.07293724
N        2.00837027      -1.98636384      -0.17643086
H       -1.90955872      -0.60620859       0.68174105
H       -1.97592441       0.18503215      -0.90357152
H       -0.90395798      -1.18877302      -0.65358265
H       -0.62619026       1.57295806       0.72931391
H        1.58861791       1.69301599      -0.33841638
11
Frame=14 idx=001466 GeodesicLength=0.7827833046476003 rxn_smarts="[C:1]([C@@:2]1([H:10])[O:3][C@:4]1([C:5]#[N:6])[H:11])([H:7])([H:8])[H:9]>>[C:1]([C@@:2]([O:3][C:5]#[N:6])([C:4][H:11])[H:10])([H:7])([H:8])[H:9]"
C       -1.31369249      -0.30049785      -0.17850814
C       -0.26468890       0.68239034       0.22725730
O        0.82886966       0.14993700       1.04330063
C        1.02442629       0.77318511      -0.48208482
C        1.54555061      -0.96482581       0.06321515
N        2.00149961      -1.99286555      -0.18897573
H       -1.90863811      -0.60681362       0.68310096
H       -1.97309717       0.17866465      -0.90532456
H       -0.90008015      -1.19185407      -0.64744773
H       -0.63412274       1.58067888       0.71937083
H        1.59397339       1.69200092      -0.33390389
11
Frame=15 idx=001466 GeodesicLength=0.838799362807434 rxn_smarts="[C:1]([C@@:2]1([H:10])[O:3][C@:4]1([C:5]#[N:6])[H:11])([H:7])([H:8])[H:9]>>[C:1]([C@@:2]([O:3][C:5]#[N:6])([C:4][H:11])[H:10])([H:7])([H:8])[H:9]"
C       -1.31134801      -0.30220202      -0.17655574
C       -0.26714637       0.68564506       0.22932429
O        0.82467577       0.16243731       1.05040600
C        1.02776052       0.77261795      -0.47062406
C        1.54827288      -0.96829831       0.05311076
N        1.99451244      -1.99933743      -0.20181625
H       -1.90777637      -0.60730393       0.68451597
H       -1.97011948       0.17215447      -0.90711681
H       -0.89615631      -1.19502461      -0.64106655
H       -0.64206388       1.58841371       0.70901740
H        1.59938881       1.69089780      -0.32919500
11
Frame=16 idx=001466 GeodesicLength=0.8948193162833273 rxn_smarts="[C:1]([C@@:2]1([H:10])[O:3][C@:4]1([C:5]#[N:6])[H:11])([H:7])([H:8])[H:9]>>[C:1]([C@@:2]([O:3][C:5]#[N:6])([C:4][H:11])[H:10])([H:7])([H:8])[H:9]"
C       -1.30896237      -0.30393199      -0.17451996
C       -0.26960807       0.68890567       0.23139397
O        0.82025157       0.17514023       1.05780242
C        1.03113343       0.77200295      -0.45889265
C        1.55104715      -0.97175385       0.04259416
N        1.98745180      -2.00576580      -0.21494199
H       -1.90698521      -0.60766925       0.68598512
H       -1.96699107       0.16550812      -0.90894451
H       -0.89219839      -1.19828189      -0.63443438
H       -0.65000091       1.59615247       0.69824663
H        1.60486208       1.68969333      -0.32428881
