13
Frame=0 idx=010120 GeodesicLength=0.0 rxn_smarts="[O:1]=[C:2]1[N:3]([H:8])[C:4]([H:9])([H:10])[C@@:5]2([H:11])[C:6]([H:12])([H:13])[N:7]12>>[N:3]([C:4]([C:5]1=[N:7][C:6]1([H:12])[H:13])([H:9])[H:10])([H:8])[H:11].[O+:1]#[C-:2]"
O        1.54109915       1.85134978       0.81278879
C        0.80159368       1.08390307       0.26813529
N        1.26391397      -0.06920819      -0.56271014
C        0.31193756      -1.11680169      -0.11116505
C       -0.83609537      -0.26010487      -0.63475542
C       -1.71234251       0.30546334       0.42127673
N       -0.52790003       1.05246898       0.03609966
H        2.26420894      -0.22897510      -0.60828187
H        0.38231842      -1.27918775       0.97055529
H        0.45755386      -2.04003100      -0.66765942
H        0.40311063       0.03557817      -1.49247154
H       -2.63359987       0.81184591       0.15780359
H       -1.71579848      -0.14630067       1.41038407
13
Frame=1 idx=010120 GeodesicLength=0.14079144047077033 rxn_smarts="[O:1]=[C:2]1[N:3]([H:8])[C:4]([H:9])([H:10])[C@@:5]2([H:11])[C:6]([H:12])([H:13])[N:7]12>>[N:3]([C:4]([C:5]1=[N:7][C:6]1([H:12])[H:13])([H:9])[H:10])([H:8])[H:11].[O+:1]#[C-:2]"
O        1.55281135       1.88000831       0.80777289
C        0.81493191       1.09736869       0.28902231
N        1.27126875      -0.07517332      -0.55803206
C        0.31365093      -1.11829614      -0.11386569
C       -0.83314181      -0.25503378      -0.62756444
C       -1.71865185       0.30261810       0.42254088
N       -0.53914977       1.05697092       0.02927192
H        2.26887006      -0.24916233      -0.60235889
H        0.38406637      -1.29723694       0.96470224
H        0.44833012      -2.03819014      -0.67959636
H        0.39859911       0.03752077      -1.50164268
H       -2.64663457       0.79256440       0.15140203
H       -1.71495060      -0.13395854       1.41834785
13
Frame=2 idx=010120 GeodesicLength=0.2815316556724333 rxn_smarts="[O:1]=[C:2]1[N:3]([H:8])[C:4]([H:9])([H:10])[C@@:5]2([H:11])[C:6]([H:12])([H:13])[N:7]12>>[N:3]([C:4]([C:5]1=[N:7][C:6]1([H:12])[H:13])([H:9])[H:10])([H:8])[H:11].[O+:1]#[C-:2]"
O        1.56463096       1.90864587       0.80267524
C        0.82864874       1.11095549       0.31082994
N        1.27866822      -0.08121155      -0.55327804
C        0.31540763      -1.11976471      -0.11650136
C       -0.83007147      -0.24995393      -0.62019473
C       -1.72492251       0.29978252       0.42376840
N       -0.55058455       1.06159567       0.02223454
H        2.27336244      -0.26935818      -0.59670594
H        0.38575696      -1.31548654       0.95862151
H        0.43917312      -2.03610118      -0.69145709
H        0.39369092       0.03928189      -1.51106119
H       -2.65952335       0.77271548       0.14488034
H       -1.71423710      -0.12110083       1.42618837
13
Frame=3 idx=010120 GeodesicLength=0.42221168124733344 rxn_smarts="[O:1]=[C:2]1[N:3]([H:8])[C:4]([H:9])([H:10])[C@@:5]2([H:11])[C:6]([H:12])([H:13])[N:7]12>>[N:3]([C:4]([C:5]1=[N:7][C:6]1([H:12])[H:13])([H:9])[H:10])([H:8])[H:11].[O+:1]#[C-:2]"
O        1.57649417       1.93707657       0.79775692
C        0.84276498       1.12471868       0.33348611
N        1.28610854      -0.08730989      -0.54850735
C        0.31722590      -1.12118392      -0.11905453
C       -0.82688661      -0.24487872      -0.61263988
C       -1.73114285       0.29697620       0.42495464
N       -0.56223131       1.06636039       0.01489429
H        2.27768438      -0.28954205      -0.59140190
H        0.38743891      -1.33385086       0.95232741
H        0.43009935      -2.03376879      -0.70317632
H        0.38832019       0.04078720      -1.52079204
H       -2.67225143       0.75225171       0.13824455
H       -1.71362421      -0.10763654       1.43390809
13
Frame=4 idx=010120 GeodesicLength=0.5628334966511039 rxn_smarts="[O:1]=[C:2]1[N:3]([H:8])[C:4]([H:9])([H:10])[C@@:5]2([H:11])[C:6]([H:12])([H:13])[N:7]12>>[N:3]([C:4]([C:5]1=[N:7][C:6]1([H:12])[H:13])([H:9])[H:10])([H:8])[H:11].[O+:1]#[C-:2]"
O        1.58836635       1.96517441       0.79326014
C        0.85730135       1.13870404       0.35693301
N        1.29358674      -0.09345898      -0.54377488
C        0.31912089      -1.12253493      -0.12151132
C       -0.82358541      -0.23981449      -0.60489678
C       -1.73730267       0.29421700       0.42609168
N       -0.57412125       1.07127382       0.00715869
H        2.28183474      -0.30969902      -0.58651167
H        0.38915168      -1.35225816       0.94583236
H        0.42111833      -2.03120181      -0.71469814
H        0.38241991       0.04195785      -1.53089585
H       -2.68479752       0.73112179       0.13152568
H       -1.71309314      -0.09348150       1.44148709
13
Frame=5 idx=010120 GeodesicLength=0.7034017147644817 rxn_smarts="[O:1]=[C:2]1[N:3]([H:8])[C:4]([H:9])([H:10])[C@@:5]2([H:11])[C:6]([H:12])([H:13])[N:7]12>>[N:3]([C:4]([C:5]1=[N:7][C:6]1([H:12])[H:13])([H:9])[H:10])([H:8])[H:11].[O+:1]#[C-:2]"
O        1.60023209       1.99287022       0.78939365
C        0.87228669       1.15293698       0.38113566
N        1.30110130      -0.09965127      -0.53912594
C        0.32110421      -1.12380331      -0.12386373
C       -0.82016661      -0.23476560      -0.59696152
C       -1.74338981       0.29152057       0.42717857
N       -0.58628885       1.07633818      -0.00105679
H        2.28581239      -0.32981518      -0.58208851
H        0.39092581      -1.37065819       0.93914218
H        0.41223393      -2.02841008      -0.72598251
H        0.37592375       0.04271597      -1.54142367
H       -2.69715285       0.70928320       0.12473341
H       -1.71262205      -0.07856150       1.44891920
13
Frame=6 idx=010120 GeodesicLength=0.8439309902365552 rxn_smarts="[O:1]=[C:2]1[N:3]([H:8])[C:4]([H:9])([H:10])[C@@:5]2([H:11])[C:6]([H:12])([H:13])[N:7]12>>[N:3]([C:4]([C:5]1=[N:7][C:6]1([H:12])[H:13])([H:9])[H:10])([H:8])[H:11].[O+:1]#[C-:2]"
O        1.61207792       2.02013512       0.78631569
C        0.88774642       1.16743510       0.40609329
N        1.30865657      -0.10588515      -0.53459594
C        0.32318369      -1.12497836      -0.12610745
C       -0.81662308      -0.22972461      -0.58883601
C       -1.74939498       0.28890332       0.42820676
N       -0.59876511       1.08155396      -0.00983278
H        2.28962227      -0.34989003      -0.57816935
H        0.39277780      -1.38901378       0.93225971
H        0.40344378      -2.02540264      -0.73699711
H        0.36876736       0.04299353      -1.55242335
H       -2.70928178       0.68667740       0.11792188
H       -1.71221085      -0.06280387       1.45616466
13
Frame=7 idx=010120 GeodesicLength=0.9844313480403397 rxn_smarts="[O:1]=[C:2]1[N:3]([H:8])[C:4]([H:9])([H:10])[C@@:5]2([H:11])[C:6]([H:12])([H:13])[N:7]12>>[N:3]([C:4]([C:5]1=[N:7][C:6]1([H:12])[H:13])([H:9])[H:10])([H:8])[H:11].[O+:1]#[C-:2]"
O        1.62389731       2.04697128       0.78415238
C        0.90371332       1.18219765       0.43183197
N        1.31625532      -0.11215636      -0.53021155
C        0.32536548      -1.12605209      -0.12824095
C       -0.81294827      -0.22468549      -0.58052070
C       -1.75531083       0.28637386       0.42916909
N       -0.61158359       1.08692000      -0.01924675
H        2.29326817      -0.36991936      -0.57478527
H        0.39471949      -1.40730218       0.92518355
H        0.39474573      -2.02218835      -0.74772304
H        0.36088891       0.04271996      -1.56393510
H       -2.72116202       0.66326805       0.11112202
H       -1.71184903      -0.04614696       1.46320434
13
Frame=8 idx=010120 GeodesicLength=1.1249177690378993 rxn_smarts="[O:1]=[C:2]1[N:3]([H:8])[C:4]([H:9])([H:10])[C@@:5]2([H:11])[C:6]([H:12])([H:13])[N:7]12>>[N:3]([C:4]([C:5]1=[N:7][C:6]1([H:12])[H:13])([H:9])[H:10])([H:8])[H:11].[O+:1]#[C-:2]"
O        1.63569974       2.07343634       0.78297185
C        0.92022478       1.19720453       0.45842059
N        1.32390464      -0.11846500      -0.52598760
C        0.32765207      -1.12701917      -0.13026840
C       -0.80912929      -0.21962720      -0.57201851
C       -1.76112650       0.28394839       0.43006022
N       -0.62477309       1.09242468      -0.02936220
H        2.29675416      -0.38990398      -0.57194764
H        0.39674771      -1.42551941       0.91790301
H        0.38612915      -2.01877148      -0.75815582
H        0.35221961       0.04182625      -1.57599031
H       -2.73275180       0.63899466       0.10438978
H       -1.71155119      -0.02852861       1.46998504
13
Frame=9 idx=010120 GeodesicLength=1.2655398586346338 rxn_smarts="[O:1]=[C:2]1[N:3]([H:8])[C:4]([H:9])([H:10])[C@@:5]2([H:11])[C:6]([H:12])([H:13])[N:7]12>>[N:3]([C:4]([C:5]1=[N:7][C:6]1([H:12])[H:13])([H:9])[H:10])([H:8])[H:11].[O+:1]#[C-:2]"
O        1.64745598       2.09966943       0.78265527
C        0.93736210       1.21232206       0.48613179
N        1.33161033      -0.12479399      -0.52191397
C        0.33005087      -1.12787810      -0.13221173
C       -0.80514562      -0.21452308      -0.56333587
C       -1.76682138       0.28163574       0.43088139
N       -0.63837602       1.09805603      -0.04025483
H        2.30008873      -0.40980181      -0.56961163
H        0.39884634      -1.44370213       0.91038941
H        0.37760068      -2.01514263      -0.76835000
H        0.34265618       0.04018777      -1.58860918
H       -2.74403208       0.61390454       0.09773487
H       -1.71129610      -0.00993382       1.47649448
13
Frame=10 idx=010120 GeodesicLength=1.4061568829092146 rxn_smarts="[O:1]=[C:2]1[N:3]([H:8])[C:4]([H:9])([H:10])[C@@:5]2([H:11])[C:6]([H:12])([H:13])[N:7]12>>[N:3]([C:4]([C:5]1=[N:7][C:6]1([H:12])[H:13])([H:9])[H:10])([H:8])[H:11].[O+:1]#[C-:2]"
O        1.65916964       2.12559788       0.78349622
C        0.95513608       1.22762505       0.51485028
N        1.33937833      -0.13115000      -0.51804209
C        0.33256535      -1.12861414      -0.13405409
C       -0.80098766      -0.20936022      -0.55447286
C       -1.77239160       0.27945282       0.43161779
N       -0.65242378       1.10380813      -0.05200898
H        2.30327235      -0.42964947      -0.56787855
H        0.40104104      -1.46178205       0.90265807
H        0.36914118      -2.01132034      -0.77822895
H        0.33214887       0.03777147      -1.60183602
H       -2.75494965       0.58785960       0.09122880
H       -1.71110015       0.00976127       1.48267039
13
Frame=11 idx=010120 GeodesicLength=1.5467450240206957 rxn_smarts="[O:1]=[C:2]1[N:3]([H:8])[C:4]([H:9])([H:10])[C@@:5]2([H:11])[C:6]([H:12])([H:13])[N:7]12>>[N:3]([C:4]([C:5]1=[N:7][C:6]1([H:12])[H:13])([H:9])[H:10])([H:8])[H:11].[O+:1]#[C-:2]"
O        1.67081395       2.15125486       0.78556083
C        0.97359922       1.24307665       0.54467038
N        1.34721764      -0.13752844      -0.51438718
C        0.33519936      -1.12921869      -0.13579888
C       -0.79663834      -0.20411209      -0.54543008
C       -1.77782266       0.27741842       0.43226423
N       -0.66694585       1.10967264      -0.06470123
H        2.30630998      -0.44944527      -0.56677517
H        0.40333338      -1.47974587       0.89470244
H        0.36073871      -2.00730626      -0.78778819
H        0.32061859       0.03450157      -1.61570015
H       -2.76546900       0.56080633       0.08489866
H       -1.71095498       0.03062617       1.48848434
13
Frame=12 idx=010120 GeodesicLength=1.6873154437176583 rxn_smarts="[O:1]=[C:2]1[N:3]([H:8])[C:4]([H:9])([H:10])[C@@:5]2([H:11])[C:6]([H:12])([H:13])[N:7]12>>[N:3]([C:4]([C:5]1=[N:7][C:6]1([H:12])[H:13])([H:9])[H:10])([H:8])[H:11].[O+:1]#[C-:2]"
O        1.68235928       2.17666345       0.78895555
C        0.99281286       1.25864229       0.57568746
N        1.35513637      -0.14392362      -0.51097614
C        0.33795856      -1.12967956      -0.13744692
C       -0.79207547      -0.19874845      -0.53621390
C       -1.78310159       0.27554919       0.43280662
N       -0.68198928       1.11563351      -0.07842714
H        2.30920719      -0.46918734      -0.56634033
H        0.40572834      -1.49756784       0.88651906
H        0.35238214      -2.00310411      -0.79701402
H        0.30797283       0.03028653      -1.63023571
H       -2.77553257       0.53267851       0.07880537
H       -1.71085866       0.05275745       1.49388010
13
Frame=13 idx=010120 GeodesicLength=1.8278383660611153 rxn_smarts="[O:1]=[C:2]1[N:3]([H:8])[C:4]([H:9])([H:10])[C@@:5]2([H:11])[C:6]([H:12])([H:13])[N:7]12>>[N:3]([C:4]([C:5]1=[N:7][C:6]1([H:12])[H:13])([H:9])[H:10])([H:8])[H:11].[O+:1]#[C-:2]"
O        1.69375846       2.20186178       0.79372941
C        1.01284527       1.27426481       0.60802851
N        1.36314679      -0.15033101      -0.50782450
C        0.34084907      -1.12998618      -0.13900469
C       -0.78727552      -0.19323505      -0.52682609
C       -1.78820870       0.27385873       0.43324381
N       -0.69758970       1.12167585      -0.09327493
H        2.31196915      -0.48886882      -0.56659770
H        0.40822831      -1.51523393       0.87809921
H        0.34406102      -1.99871243      -0.80590501
H        0.29411619       0.02503860      -1.64546725
H       -2.78510138       0.50343948       0.07297565
H       -1.71079895       0.07622818       1.49882358
13
Frame=14 idx=010120 GeodesicLength=1.9683347093169292 rxn_smarts="[O:1]=[C:2]1[N:3]([H:8])[C:4]([H:9])([H:10])[C@@:5]2([H:11])[C:6]([H:12])([H:13])[N:7]12>>[N:3]([C:4]([C:5]1=[N:7][C:6]1([H:12])[H:13])([H:9])[H:10])([H:8])[H:11].[O+:1]#[C-:2]"
O        1.70495976       2.22687327       0.79998610
C        1.03377853       1.28988852       0.64183578
N        1.37126125      -0.15673913      -0.50496026
C        0.34387856      -1.13011904      -0.14047953
C       -0.78220719      -0.18752589      -0.51727776
C       -1.79312257       0.27237452       0.43355821
N       -0.71380320       1.12777124      -0.10935921
H        2.31460047      -0.50848908      -0.56759681
H        0.41083612      -1.53271091       0.86943503
H        0.33576139      -1.99412909      -0.81444770
H        0.27893646       0.01864073      -1.66142065
H       -2.79409920       0.47300303       0.06749390
H       -1.71078039       0.10116184       1.50323289
13
Frame=15 idx=010120 GeodesicLength=2.1087803821527045 rxn_smarts="[O:1]=[C:2]1[N:3]([H:8])[C:4]([H:9])([H:10])[C@@:5]2([H:11])[C:6]([H:12])([H:13])[N:7]12>>[N:3]([C:4]([C:5]1=[N:7][C:6]1([H:12])[H:13])([H:9])[H:10])([H:8])[H:11].[O+:1]#[C-:2]"
O        1.71589581       2.25171863       0.80781950
C        1.05569855       1.30544630       0.67725817
N        1.37949326      -0.16313797      -0.50241289
C        0.34705728      -1.13005988      -0.14187853
C       -0.77683832      -0.18157588      -0.50757755
C       -1.79781838       0.27111199       0.43373976
N       -0.73068083       1.13388896      -0.12679685
H        2.31710674      -0.52803934      -0.56938296
H        0.41356080      -1.54996474       0.86052096
H        0.32747420      -1.98935252      -0.82263212
H        0.26231171       0.01097269      -1.67811825
H       -2.80246847       0.44132016       0.06242031
H       -1.71079234       0.12767161       1.50704044
13
Frame=16 idx=010120 GeodesicLength=2.2491751084026244 rxn_smarts="[O:1]=[C:2]1[N:3]([H:8])[C:4]([H:9])([H:10])[C@@:5]2([H:11])[C:6]([H:12])([H:13])[N:7]12>>[N:3]([C:4]([C:5]1=[N:7][C:6]1([H:12])[H:13])([H:9])[H:10])([H:8])[H:11].[O+:1]#[C-:2]"
O        1.72649073       2.27641654       0.81734208
C        1.07870897       1.32086555       0.71446852
N        1.38785811      -0.16951490      -0.50021844
C        0.35039370      -1.12978341      -0.14321269
C       -0.77112985      -0.17532352      -0.49773994
C       -1.80226746       0.27010012       0.43377181
N       -0.74828417       1.13998840      -0.14572038
H        2.31949230      -0.54751494      -0.57201191
H        0.41640738      -1.56695067       0.85134984
H        0.31918154      -1.98437844      -0.83044744
H        0.24410616       0.00189418      -1.69557704
H       -2.81012365       0.40830077       0.05784189
H       -1.71083376       0.15590033       1.51015369
