13
Frame=0 idx=003221 GeodesicLength=0.0 rxn_smarts="[C:1]([C@@:2]1([H:9])[C:3]([H:10])([H:11])[C:4]([H:12])([H:13])[O:5]1)([H:6])([H:7])[H:8]>>[C:1](/[C:2](=[C:3](/[C:4]([O:5][H:11])([H:12])[H:13])[H:10])[H:9])([H:6])([H:7])[H:8]"
C        1.71256494      -0.37187462      -0.21637868
C        0.30918074       0.13715217      -0.33417991
C       -0.91094785      -0.73195441      -0.18410146
C       -1.58941585       0.50362389       0.34464368
O       -0.22540610       0.79614268       0.98070184
H        2.41758682       0.43832771      -0.02176604
H        1.79262088      -1.12815925       0.56441004
H        1.98665286      -0.83565270      -1.16710069
H        0.24177604       0.98264804      -1.03776744
H       -1.30970100      -1.33706954      -0.99401705
H       -0.30440977      -0.25910357       1.29103551
H       -2.37242663       0.44445264       1.09940204
H       -1.74807508       1.36146693      -0.32488185
13
Frame=1 idx=003221 GeodesicLength=0.09490825123584248 rxn_smarts="[C:1]([C@@:2]1([H:9])[C:3]([H:10])([H:11])[C:4]([H:12])([H:13])[O:5]1)([H:6])([H:7])[H:8]>>[C:1](/[C:2](=[C:3](/[C:4]([O:5][H:11])([H:12])[H:13])[H:10])[H:9])([H:6])([H:7])[H:8]"
C        1.71672424      -0.37761927      -0.22352975
C        0.31507392       0.13839611      -0.33580984
C       -0.90172086      -0.72549642      -0.17401961
C       -1.59302416       0.50918488       0.34479668
O       -0.24187048       0.81528507       0.98671815
H        2.42523161       0.42639875      -0.01615246
H        1.79528757      -1.14384156       0.54778596
H        1.99243072      -0.83085044      -1.17888596
H        0.25337353       0.98493080      -1.03754352
H       -1.30053205      -1.33390298      -0.98132758
H       -0.31224385      -0.25752077       1.30564928
H       -2.37989666       0.43863210       1.09497175
H       -1.76883352       1.35640373      -0.33265310
13
Frame=2 idx=003221 GeodesicLength=0.18976886700574053 rxn_smarts="[C:1]([C@@:2]1([H:9])[C:3]([H:10])([H:11])[C:4]([H:12])([H:13])[O:5]1)([H:6])([H:7])[H:8]>>[C:1](/[C:2](=[C:3](/[C:4]([O:5][H:11])([H:12])[H:13])[H:10])[H:9])([H:6])([H:7])[H:8]"
C        1.72097661      -0.38351014      -0.23087517
C        0.32118725       0.13976145      -0.33737869
C       -0.89228365      -0.71869070      -0.16367671
C       -1.59673104       0.51484546       0.34483426
O       -0.25879297       0.83499958       0.99262642
H        2.43301489       0.41391292      -0.01032644
H        1.79785063      -1.15997161       0.53044449
H        1.99829016      -0.82573496      -1.19094575
H        0.26528288       0.98754311      -1.03695629
H       -1.29109006      -1.33087657      -0.96805096
H       -0.32041191      -0.25577518       1.32057001
H       -2.38732847       0.43273143       1.09035113
H       -1.78996431       1.35076522      -0.34061631
13
Frame=3 idx=003221 GeodesicLength=0.28459783387793336 rxn_smarts="[C:1]([C@@:2]1([H:9])[C:3]([H:10])([H:11])[C:4]([H:12])([H:13])[O:5]1)([H:6])([H:7])[H:8]>>[C:1](/[C:2](=[C:3](/[C:4]([O:5][H:11])([H:12])[H:13])[H:10])[H:9])([H:6])([H:7])[H:8]"
C        1.72532277      -0.38954874      -0.23842472
C        0.32753046       0.14125014      -0.33888590
C       -0.88262824      -0.71151743      -0.15306316
C       -1.60053897       0.52060682       0.34474791
O       -0.27620313       0.85530593       0.99841362
H        2.44093577       0.40083625      -0.00429715
H        1.80029486      -1.17654375       0.51234864
H        2.00423653      -0.82029564      -1.20327658
H        0.27752223       0.99050290      -1.03598062
H       -1.28135901      -1.32798236      -0.95414980
H       -0.32894280      -0.25387646       1.33580537
H       -2.39470847       0.42675084       1.08553963
H       -1.81146201       1.34451149      -0.34877725
13
Frame=4 idx=003221 GeodesicLength=0.3794078894287047 rxn_smarts="[C:1]([C@@:2]1([H:9])[C:3]([H:10])([H:11])[C:4]([H:12])([H:13])[O:5]1)([H:6])([H:7])[H:8]>>[C:1](/[C:2](=[C:3](/[C:4]([O:5][H:11])([H:12])[H:13])[H:10])[H:9])([H:6])([H:7])[H:8]"
C        1.72976322      -0.39573664      -0.24618905
C        0.33411450       0.14286485      -0.34032596
C       -0.87274492      -0.70395598      -0.14216358
C       -1.60445107       0.52646934       0.34452900
O       -0.29413399       0.87622922       1.00406021
H        2.44899338       0.38712601       0.00192687
H        1.80260119      -1.19355088       0.49344886
H        2.01027590      -0.81451631      -1.21587132
H        0.29011147       0.99382679      -1.03458827
H       -1.27132199      -1.32520876      -0.93958510
H       -0.33786700      -0.25183176       1.35136557
H       -2.40202271       0.42068952       1.08053667
H       -1.83331797       1.33759460      -0.35714389
13
Frame=5 idx=003221 GeodesicLength=0.47422202605581754 rxn_smarts="[C:1]([C@@:2]1([H:9])[C:3]([H:10])([H:11])[C:4]([H:12])([H:13])[O:5]1)([H:6])([H:7])[H:8]>>[C:1](/[C:2](=[C:3](/[C:4]([O:5][H:11])([H:12])[H:13])[H:10])[H:9])([H:6])([H:7])[H:8]"
C        1.73429757      -0.40207658      -0.25418132
C        0.34094968       0.14460992      -0.34170146
C       -0.86262449      -0.69598147      -0.13096890
C       -1.60847048       0.53243595       0.34416793
O       -0.31261970       0.89779218       1.00954731
H        2.45718619       0.37274705       0.00833856
H        1.80474791      -1.21099195       0.47370264
H        2.01641668      -0.80838358      -1.22872777
H        0.30307256       0.99753754      -1.03275087
H       -1.26095745      -1.32255294      -0.92430351
H       -0.34721808      -0.24965659       1.36725595
H       -2.40925680       0.41454879       1.07534230
H       -1.85552356       1.32997169      -0.36572086
13
Frame=6 idx=003221 GeodesicLength=0.5690374212785273 rxn_smarts="[C:1]([C@@:2]1([H:9])[C:3]([H:10])([H:11])[C:4]([H:12])([H:13])[O:5]1)([H:6])([H:7])[H:8]>>[C:1](/[C:2](=[C:3](/[C:4]([O:5][H:11])([H:12])[H:13])[H:10])[H:9])([H:6])([H:7])[H:8]"
C        1.73892687      -0.40857152      -0.26241246
C        0.34804821       0.14648979      -0.34300831
C       -0.85225391      -0.68756983      -0.11946130
C       -1.61259997       0.53850514       0.34365573
O       -0.33169458       0.92001723       1.01485466
H        2.46551915       0.35766716       0.01491920
H        1.80671617      -1.22885979       0.45307962
H        2.02265864      -0.80189353      -1.24184991
H        0.31642917       1.00165706      -1.03043375
H       -1.25024991      -1.32000548      -0.90827436
H       -0.35702952      -0.24735966       1.38348665
H       -2.41640146       0.40832656       1.06995828
H       -1.87806886       1.32159685      -0.37451406
13
Frame=7 idx=003221 GeodesicLength=0.6638787125666299 rxn_smarts="[C:1]([C@@:2]1([H:9])[C:3]([H:10])([H:11])[C:4]([H:12])([H:13])[O:5]1)([H:6])([H:7])[H:8]>>[C:1](/[C:2](=[C:3](/[C:4]([O:5][H:11])([H:12])[H:13])[H:10])[H:9])([H:6])([H:7])[H:8]"
C        1.74364853      -0.41522346      -0.27089903
C        0.35542409       0.14850967      -0.34423841
C       -0.84162051      -0.67869197      -0.10761894
C       -1.61684223       0.54467883       0.34297979
O       -0.35140491       0.94294081       1.01994537
H        2.47398618       0.34181302       0.02166897
H        1.80846678      -1.24714295       0.43149039
H        2.02901690      -0.79500788      -1.25522188
H        0.33020953       1.00620577      -1.02759860
H       -1.23917071      -1.31755555      -0.89142743
H       -0.36733702      -0.24495105       1.40007029
H       -2.42343906       0.40202671       1.06438673
H       -1.90093756       1.31239804      -0.38353725
13
Frame=8 idx=003221 GeodesicLength=0.7587628527359577 rxn_smarts="[C:1]([C@@:2]1([H:9])[C:3]([H:10])([H:11])[C:4]([H:12])([H:13])[O:5]1)([H:6])([H:7])[H:8]>>[C:1](/[C:2](=[C:3](/[C:4]([O:5][H:11])([H:12])[H:13])[H:10])[H:9])([H:6])([H:7])[H:8]"
C        1.74846196      -0.42203434      -0.27965709
C        0.36309162       0.15067709      -0.34539023
C       -0.83070884      -0.66931495      -0.09542048
C       -1.62120196       0.55095704       0.34212717
O       -0.37179853       0.96659324       1.02478501
H        2.48258368       0.32512983       0.02856822
H        1.80996952      -1.26583100       0.40888677
H        2.03549935      -0.78771024      -1.26884580
H        0.34444577       1.01121235      -1.02419955
H       -1.22769636      -1.31519534      -0.87370424
H       -0.37818288      -0.24244455       1.41701626
H       -2.43035538       0.39564687       1.05862757
H       -1.92410796       1.30231401      -0.39279361
13
Frame=9 idx=003221 GeodesicLength=0.8537343646805955 rxn_smarts="[C:1]([C@@:2]1([H:9])[C:3]([H:10])([H:11])[C:4]([H:12])([H:13])[O:5]1)([H:6])([H:7])[H:8]>>[C:1](/[C:2](=[C:3](/[C:4]([O:5][H:11])([H:12])[H:13])[H:10])[H:9])([H:6])([H:7])[H:8]"
C        1.75336232      -0.42901158      -0.28872475
C        0.37107868       0.15301658      -0.34642029
C       -0.81948151      -0.65938949      -0.08282101
C       -1.62568963       0.55732355       0.34107320
O       -0.39295232       0.99102316       1.02928591
H        2.49130607       0.30752826       0.03560265
H        1.81116885      -1.28492270       0.38514394
H        2.04210302      -0.77993954      -1.28275379
H        0.35919339       1.01670384      -1.02012922
H       -1.21576004      -1.31294554      -0.85496114
H       -0.38963706      -0.23986533       1.43435264
H       -2.43717100       0.38919822       1.05266328
H       -1.94752079       1.29128057      -0.40231141
13
Frame=10 idx=003221 GeodesicLength=0.9487283510489765 rxn_smarts="[C:1]([C@@:2]1([H:9])[C:3]([H:10])([H:11])[C:4]([H:12])([H:13])[O:5]1)([H:6])([H:7])[H:8]>>[C:1](/[C:2](=[C:3](/[C:4]([O:5][H:11])([H:12])[H:13])[H:10])[H:9])([H:6])([H:7])[H:8]"
C        1.75834596      -0.43615340      -0.29809884
C        0.37938565       0.15552480      -0.34736502
C       -0.80793913      -0.64889456      -0.06982178
C       -1.63030149       0.56378826       0.33981357
O       -0.41488209       1.01623520       1.03345587
H        2.50015986       0.28899615       0.04275154
H        1.81203795      -1.30440260       0.36028024
H        2.04883496      -0.77172473      -1.29692266
H        0.37446863       1.02271729      -1.01539193
H       -1.20336542      -1.31077784      -0.83520401
H       -0.40171470      -0.23721908       1.45206499
H       -2.44383900       0.38267055       1.04651314
H       -1.97119116       1.27923997      -0.41207509
13
Frame=11 idx=003221 GeodesicLength=1.0437530339333019 rxn_smarts="[C:1]([C@@:2]1([H:9])[C:3]([H:10])([H:11])[C:4]([H:12])([H:13])[O:5]1)([H:6])([H:7])[H:8]>>[C:1](/[C:2](=[C:3](/[C:4]([O:5][H:11])([H:12])[H:13])[H:10])[H:9])([H:6])([H:7])[H:8]"
C        1.76340613      -0.44346215      -0.30780628
C        0.38803221       0.15821565      -0.34820884
C       -0.79605747      -0.63778780      -0.05638165
C       -1.63504292       0.57034733       0.33832495
O       -0.43765753       1.04227895       1.03723336
H        2.50913021       0.26941910       0.05001966
H        1.81250518      -1.32426955       0.33415164
H        2.05571645      -0.76299350      -1.31134480
H        0.39031905       1.02928579      -1.00991692
H       -1.19046143      -1.30869486      -0.81430213
H       -0.41446192      -0.23450308       1.47017058
H       -2.45034360       0.37606825       1.04017098
H       -1.99508436       1.26609587      -0.42211054
13
Frame=12 idx=003221 GeodesicLength=1.1387940569918709 rxn_smarts="[C:1]([C@@:2]1([H:9])[C:3]([H:10])([H:11])[C:4]([H:12])([H:13])[O:5]1)([H:6])([H:7])[H:8]>>[C:1](/[C:2](=[C:3](/[C:4]([O:5][H:11])([H:12])[H:13])[H:10])[H:9])([H:6])([H:7])[H:8]"
C        1.76853307      -0.45094246      -0.31787367
C        0.39703398       0.16110319      -0.34894845
C       -0.78381064      -0.62602428      -0.04246556
C       -1.63991809       0.57699268       0.33658768
O       -0.46133915       1.06919112       1.04056167
H        2.51820828       0.24871675       0.05739519
H        1.81250741      -1.34451097       0.30667150
H        2.06275552      -0.75371284      -1.32602480
H        0.40679347       1.03644941      -1.00363190
H       -1.17700599      -1.30669326      -0.79215895
H       -0.42792441      -0.23172260       1.48868099
H       -2.45666854       0.36939129       1.03363682
H       -2.01916491       1.25176197      -0.43243053
13
Frame=13 idx=003221 GeodesicLength=1.233824135916485 rxn_smarts="[C:1]([C@@:2]1([H:9])[C:3]([H:10])([H:11])[C:4]([H:12])([H:13])[O:5]1)([H:6])([H:7])[H:8]>>[C:1](/[C:2](=[C:3](/[C:4]([O:5][H:11])([H:12])[H:13])[H:10])[H:9])([H:6])([H:7])[H:8]"
C        1.77371753      -0.45859543      -0.32832367
C        0.40640928       0.16420646      -0.34957558
C       -0.77117209      -0.61355405      -0.02804438
C       -1.64493117       0.58371536       0.33458033
O       -0.48598816       1.09700257       1.04338404
H        2.52739011       0.22682130       0.06484363
H        1.81197944      -1.36511221       0.27778010
H        2.06994493      -0.74386877      -1.34097652
H        0.42394602       1.04425598      -0.99645769
H       -1.16294883      -1.30476971      -0.76867671
H       -0.44215340      -0.22889553       1.50760049
H       -2.46280038       0.36263502       1.02690817
H       -2.04339326       1.23615899      -0.44304219
13
Frame=14 idx=003221 GeodesicLength=1.3288507397791827 rxn_smarts="[C:1]([C@@:2]1([H:9])[C:3]([H:10])([H:11])[C:4]([H:12])([H:13])[O:5]1)([H:6])([H:7])[H:8]>>[C:1](/[C:2](=[C:3](/[C:4]([O:5][H:11])([H:12])[H:13])[H:10])[H:9])([H:6])([H:7])[H:8]"
C        1.77894410      -0.46642474      -0.33919556
C        0.41617842       0.16754445      -0.35008137
C       -0.75810726      -0.60031667      -0.01305951
C       -1.65008605       0.59050482       0.33227439
O       -0.51169118       1.12576896       1.04560440
H        2.53665101       0.20359212       0.07236583
H        1.81082250      -1.38606247       0.24730813
H        2.07731252      -0.73337866      -1.35619328
H        0.44184523       1.05275094      -0.98828737
H       -1.14822905      -1.30292559      -0.74369015
H       -0.45720153      -0.22601755       1.52694833
H       -2.46872104       0.35580249       1.01998156
H       -2.06771766       1.21916191      -0.45397541
13
Frame=15 idx=003221 GeodesicLength=1.4238539990922652 rxn_smarts="[C:1]([C@@:2]1([H:9])[C:3]([H:10])([H:11])[C:4]([H:12])([H:13])[O:5]1)([H:6])([H:7])[H:8]>>[C:1](/[C:2](=[C:3](/[C:4]([O:5][H:11])([H:12])[H:13])[H:10])[H:9])([H:6])([H:7])[H:8]"
C        1.78419659      -0.47443439      -0.35052333
C        0.42636272       0.17114061      -0.35045663
C       -0.74457945      -0.58624594       0.00254149
C       -1.65538768       0.59734603       0.32963876
O       -0.53853385       1.15553507       1.04712630
H        2.54597050       0.17890740       0.07994395
H        1.80893662      -1.40734417       0.21512254
H        2.08486870      -0.72218650      -1.37168477
H        0.46056749       1.06198932      -0.97900535
H       -1.13278072      -1.30116189      -0.71704310
H       -0.47312249      -0.22309132       1.54673543
H       -2.47441528       0.34889380       1.01285577
H       -2.09208315       1.20065197      -0.46525106
13
Frame=16 idx=003221 GeodesicLength=1.518801959445116 rxn_smarts="[C:1]([C@@:2]1([H:9])[C:3]([H:10])([H:11])[C:4]([H:12])([H:13])[O:5]1)([H:6])([H:7])[H:8]>>[C:1](/[C:2](=[C:3](/[C:4]([O:5][H:11])([H:12])[H:13])[H:10])[H:9])([H:6])([H:7])[H:8]"
C        1.78945373      -0.48262708      -0.36234710
C        0.43698424       0.17502210      -0.35069106
C       -0.73055123      -0.57126713       0.01880596
C       -1.66084056       0.60421695       0.32663805
O       -0.56661078       1.18632918       1.04784708
H        2.55532999       0.15265674       0.08750617
H        1.80622196      -1.42890523       0.18112755
H        2.09260554      -0.71027487      -1.38745154
H        0.48020215       1.07203760      -0.96846568
H       -1.11653330      -1.29946847      -0.68857662
H       -0.48997896      -0.22013896       1.56696518
H       -2.47987095       0.34189724       1.00552040
H       -2.11641184       1.18052194      -0.47687840
