7
Frame=0 idx=003191 GeodesicLength=0.0 rxn_smarts="[C:1]([C:2]#[C:3][H:7])([H:4])([H:5])[H:6]>>[C:1](=[C:2]=[C:3]([H:5])[H:7])([H:4])[H:6]"
C       -0.93023190       0.20611332      -0.41219040
C        0.33257919      -0.00253691       0.08735331
C        1.39982168      -0.60251729       0.50732743
H       -1.42386452       1.15912006      -0.28001239
H       -0.21747427       0.46026801       1.00994297
H       -1.49515275      -0.60170765      -0.86576711
H        2.33432260      -0.61873956      -0.04665381
7
Frame=1 idx=003191 GeodesicLength=0.09125471629110701 rxn_smarts="[C:1]([C:2]#[C:3][H:7])([H:4])([H:5])[H:6]>>[C:1](=[C:2]=[C:3]([H:5])[H:7])([H:4])[H:6]"
C       -0.94402474       0.20033644      -0.39231662
C        0.34487734       0.02144685       0.04993650
C        1.38646935      -0.59955953       0.49592450
H       -1.43130186       1.15985830      -0.28361722
H       -0.20313451       0.45267951       1.02385304
H       -1.49214358      -0.60526176      -0.86968074
H        2.33925801      -0.62949979      -0.02409946
7
Frame=2 idx=003191 GeodesicLength=0.1825480383763024 rxn_smarts="[C:1]([C:2]#[C:3][H:7])([H:4])([H:5])[H:6]>>[C:1](=[C:2]=[C:3]([H:5])[H:7])([H:4])[H:6]"
C       -0.95625831       0.19375067      -0.37190602
C        0.35411932       0.03920220       0.01495482
C        1.37398544      -0.59586775       0.48427942
H       -1.43444764       1.16095949      -0.29087751
H       -0.18878040       0.44371473       1.03874859
H       -1.49166814      -0.60632465      -0.87249964
H        2.34304972      -0.63543469      -0.00269966
7
Frame=3 idx=003191 GeodesicLength=0.2738791281736774 rxn_smarts="[C:1]([C:2]#[C:3][H:7])([H:4])([H:5])[H:6]>>[C:1](=[C:2]=[C:3]([H:5])[H:7])([H:4])[H:6]"
C       -0.96668361       0.18771350      -0.35272356
C        0.36118535       0.05146392      -0.01939464
C        1.36190614      -0.59316917       0.47153915
H       -1.43391665       1.16274492      -0.30093675
H       -0.17461436       0.43214442       1.05375079
H       -1.49496176      -0.60536618      -0.87202105
H        2.34708489      -0.63553141       0.01978606
7
Frame=4 idx=003191 GeodesicLength=0.3652616734745039 rxn_smarts="[C:1]([C:2]#[C:3][H:7])([H:4])([H:5])[H:6]>>[C:1](=[C:2]=[C:3]([H:5])[H:7])([H:4])[H:6]"
C       -0.97497859       0.18285665      -0.33539242
C        0.36702422       0.06074928      -0.05305206
C        1.35073398      -0.58942843       0.45880871
H       -1.43146221       1.16466030      -0.31282116
H       -0.16165155       0.41788191       1.06930796
H       -1.50007772      -0.60331405      -0.86872525
H        2.35041187      -0.63340566       0.04187422
7
Frame=5 idx=003191 GeodesicLength=0.45662779184308766 rxn_smarts="[C:1]([C:2]#[C:3][H:7])([H:4])([H:5])[H:6]>>[C:1](=[C:2]=[C:3]([H:5])[H:7])([H:4])[H:6]"
C       -0.98143449       0.17941442      -0.31998640
C        0.37192794       0.06717991      -0.08679951
C        1.34007923      -0.58565792       0.44555455
H       -1.42729135       1.16695431      -0.32606176
H       -0.14945326       0.40096307       1.08502009
H       -1.50727111      -0.60046350      -0.86238166
H        2.35344305      -0.62839029       0.06465469
7
Frame=6 idx=003191 GeodesicLength=0.5480285066831507 rxn_smarts="[C:1]([C:2]#[C:3][H:7])([H:4])([H:5])[H:6]>>[C:1](=[C:2]=[C:3]([H:5])[H:7])([H:4])[H:6]"
C       -0.98603839       0.17733069      -0.30634442
C        0.37626580       0.07204917      -0.12018433
C        1.33043199      -0.57979214       0.43302369
H       -1.42214653       1.16929517      -0.34037320
H       -0.13882236       0.38159606       1.10144042
H       -1.51498506      -0.59732173      -0.85384999
H        2.35529456      -0.62315722       0.08628783
7
Frame=7 idx=003191 GeodesicLength=0.6394242355372188 rxn_smarts="[C:1]([C:2]#[C:3][H:7])([H:4])([H:5])[H:6]>>[C:1](=[C:2]=[C:3]([H:5])[H:7])([H:4])[H:6]"
C       -0.98923047       0.17651911      -0.29407951
C        0.38003051       0.07475214      -0.15393516
C        1.32137882      -0.57313932       0.42053642
H       -1.41581375       1.17196918      -0.35571103
H       -0.12905860       0.35987555       1.11823377
H       -1.52386927      -0.59370040      -0.84305890
H        2.35656275      -0.61627626       0.10801441
7
Frame=8 idx=003191 GeodesicLength=0.7307825402229292 rxn_smarts="[C:1]([C:2]#[C:3][H:7])([H:4])([H:5])[H:6]>>[C:1](=[C:2]=[C:3]([H:5])[H:7])([H:4])[H:6]"
C       -0.99111835       0.17689685      -0.28295972
C        0.38327600       0.07524520      -0.18828221
C        1.31287903      -0.56551978       0.40822509
H       -1.40832744       1.17492871      -0.37200176
H       -0.12011078       0.33584502       1.13542567
H       -1.53373526      -0.58953542      -0.83018747
H        2.35713679      -0.60786057       0.12978040
7
Frame=9 idx=003191 GeodesicLength=0.8221429586246198 rxn_smarts="[C:1]([C:2]#[C:3][H:7])([H:4])([H:5])[H:6]>>[C:1](=[C:2]=[C:3]([H:5])[H:7])([H:4])[H:6]"
C       -0.99167379       0.17836722      -0.27287107
C        0.38609931       0.07375805      -0.22303306
C        1.30518666      -0.55556602       0.39694928
H       -1.39976992       1.17803838      -0.38920717
H       -0.11262369       0.30951081       1.15333068
H       -1.54396609      -0.58494943      -0.81559587
H        2.35674750      -0.59915902       0.15042721
7
Frame=10 idx=003191 GeodesicLength=0.9134930111754582 rxn_smarts="[C:1]([C:2]#[C:3][H:7])([H:4])([H:5])[H:6]>>[C:1](=[C:2]=[C:3]([H:5])[H:7])([H:4])[H:6]"
C       -0.99101233       0.18095272      -0.26359610
C        0.38846276       0.06991097      -0.25835436
C        1.29833443      -0.54299759       0.38688947
H       -1.38991053       1.18141318      -0.40774698
H       -0.10674891       0.28039353       1.17211775
H       -1.55471458      -0.57971507      -0.79911737
H        2.35558917      -0.58995775       0.16980759
7
Frame=11 idx=003191 GeodesicLength=1.004831417106956 rxn_smarts="[C:1]([C:2]#[C:3][H:7])([H:4])([H:5])[H:6]>>[C:1](=[C:2]=[C:3]([H:5])[H:7])([H:4])[H:6]"
C       -0.98913778       0.18469928      -0.25509757
C        0.39022986       0.06263731      -0.29474372
C        1.29223194      -0.52776713       0.37790747
H       -1.37814619       1.18526914      -0.42769132
H       -0.10253765       0.24792974       1.19163957
H       -1.56657498      -0.57346122      -0.78038602
H        2.35393479      -0.57930711       0.18837160
7
Frame=12 idx=003191 GeodesicLength=1.0961917962203227 rxn_smarts="[C:1]([C:2]#[C:3][H:7])([H:4])([H:5])[H:6]>>[C:1](=[C:2]=[C:3]([H:5])[H:7])([H:4])[H:6]"
C       -0.98595829       0.18967899      -0.24733727
C        0.39121576       0.05090702      -0.33238772
C        1.28700201      -0.50878807       0.37037986
H       -1.36386242       1.18970754      -0.44940037
H       -0.10047562       0.21125413       1.21205165
H       -1.57980951      -0.56577354      -0.75905302
H        2.35188808      -0.56698607       0.20574688
7
Frame=13 idx=003191 GeodesicLength=1.1876457198990429 rxn_smarts="[C:1]([C:2]#[C:3][H:7])([H:4])([H:5])[H:6]>>[C:1](=[C:2]=[C:3]([H:5])[H:7])([H:4])[H:6]"
C       -0.98131832       0.19605427      -0.24029286
C        0.39110269       0.03304685      -0.37158415
C        1.28273178      -0.48481952       0.36444958
H       -1.34611899       1.19501194      -0.47344600
H       -0.10101594       0.16896852       1.23350078
H       -1.59502157      -0.55603704      -0.73447435
H        2.34964035      -0.55222502       0.22184699
7
Frame=14 idx=003191 GeodesicLength=1.2781837503207787 rxn_smarts="[C:1]([C:2]#[C:3][H:7])([H:4])([H:5])[H:6]>>[C:1](=[C:2]=[C:3]([H:5])[H:7])([H:4])[H:6]"
C       -0.97490206       0.20402698      -0.23373137
C        0.38918212       0.00549562      -0.41271939
C        1.27911241      -0.45505593       0.35926375
H       -1.32265663       1.20122009      -0.50056548
H       -0.10438682       0.11866206       1.25518566
H       -1.61369449      -0.54236774      -0.70518560
H        2.34734547      -0.53198108       0.23775242
7
Frame=15 idx=003191 GeodesicLength=1.368906012848112 rxn_smarts="[C:1]([C:2]#[C:3][H:7])([H:4])([H:5])[H:6]>>[C:1](=[C:2]=[C:3]([H:5])[H:7])([H:4])[H:6]"
C       -0.96598766       0.21440283      -0.22762509
C        0.38434992      -0.03630511      -0.45549395
C        1.27637382      -0.41475106       0.35539839
H       -1.29040268       1.20895244      -0.53372044
H       -0.11204661       0.05493988       1.27808037
H       -1.63731115      -0.52286246      -0.66886189
H        2.34502436      -0.50437653       0.25222260
7
Frame=16 idx=003191 GeodesicLength=1.4585891049843673 rxn_smarts="[C:1]([C:2]#[C:3][H:7])([H:4])([H:5])[H:6]>>[C:1](=[C:2]=[C:3]([H:5])[H:7])([H:4])[H:6]"
C       -0.95303654       0.22688007      -0.22132164
C        0.37587064      -0.09485609      -0.49797707
C        1.27235109      -0.35916117       0.35059506
H       -1.24802966       1.21617823      -0.57293479
H       -0.12302968      -0.02401303       1.30110697
H       -1.66404707      -0.49527179      -0.62514049
H        2.33992122      -0.46975623       0.26567196
