14
Frame=0 idx=011715 GeodesicLength=0.0 rxn_smarts="[C:1]([c:2]1[c:3]([H:11])[o:4][c:5]([H:12])[c:6]1[N:7]([H:13])[H:14])([H:8])([H:9])[H:10]>>[C:1](=[C:2]1[C:3]([H:9])([H:11])[O:4][C:5]([H:12])=[C:6]1[N:7]([H:13])[H:14])([H:8])[H:10]"
C       -1.74483538       0.20575049       0.64231848
C       -0.42769959      -0.18074770       0.27615902
C       -0.54083214      -1.35798186      -0.48270426
O        0.59150819      -1.45918427      -1.30297876
C        1.39692734      -0.44175134      -0.90888290
C        0.89857312       0.31585165       0.10973364
N        1.47118169       1.40760472       0.75592757
H       -1.98225888       0.65279383       1.60601412
H       -1.90576743      -1.04502221      -0.33518136
H       -2.36398111       0.57417381      -0.16685060
H       -0.72678287      -2.29917996       0.02760281
H        2.29250124      -0.30152511      -1.49645757
H        0.79226266       2.10948707       1.00872216
H        2.24920321       1.81973090       0.26657763
14
Frame=1 idx=011715 GeodesicLength=0.0472022729607893 rxn_smarts="[C:1]([c:2]1[c:3]([H:11])[o:4][c:5]([H:12])[c:6]1[N:7]([H:13])[H:14])([H:8])([H:9])[H:10]>>[C:1](=[C:2]1[C:3]([H:9])([H:11])[O:4][C:5]([H:12])=[C:6]1[N:7]([H:13])[H:14])([H:8])[H:10]"
C       -1.73677022       0.20387533       0.65023093
C       -0.42268618      -0.19762963       0.29233224
C       -0.53898811      -1.36283215      -0.48788127
O        0.59595728      -1.46004616      -1.30331734
C        1.40292580      -0.44619772      -0.90203978
C        0.89638943       0.31445094       0.10849127
N        1.45283546       1.41977616       0.74641823
H       -1.96808216       0.62279810       1.62790573
H       -1.91446573      -1.02476029      -0.35744186
H       -2.35493479       0.61096303      -0.14069078
H       -0.73571885      -2.31040785       0.00637391
H        2.31073591      -0.31846086      -1.47326836
H        0.76859499       2.12829096       0.96408065
H        2.24420717       1.82018015       0.26880643
14
Frame=2 idx=011715 GeodesicLength=0.09446657285234979 rxn_smarts="[C:1]([c:2]1[c:3]([H:11])[o:4][c:5]([H:12])[c:6]1[N:7]([H:13])[H:14])([H:8])([H:9])[H:10]>>[C:1](=[C:2]1[C:3]([H:9])([H:11])[O:4][C:5]([H:12])=[C:6]1[N:7]([H:13])[H:14])([H:8])[H:10]"
C       -1.72845419       0.20212516       0.65826740
C       -0.41781226      -0.21395453       0.30733316
C       -0.53717508      -1.36725460      -0.49337727
O        0.60043865      -1.46073505      -1.30381775
C        1.40943742      -0.45124513      -0.89455613
C        0.89404201       0.31305262       0.10695342
N        1.43408013       1.43195253       0.73593884
H       -1.95413810       0.59121696       1.64944235
H       -1.92252820      -1.00263833      -0.38002633
H       -2.34577470       0.64775438      -0.11201471
H       -0.74454802      -2.32072511      -0.01505476
H        2.32970721      -0.33675047      -1.44813947
H        0.74494238       2.14555829       0.91888023
H        2.23778275       1.82164328       0.27017101
14
Frame=3 idx=011715 GeodesicLength=0.14179320573901733 rxn_smarts="[C:1]([c:2]1[c:3]([H:11])[o:4][c:5]([H:12])[c:6]1[N:7]([H:13])[H:14])([H:8])([H:9])[H:10]>>[C:1](=[C:2]1[C:3]([H:9])([H:11])[O:4][C:5]([H:12])=[C:6]1[N:7]([H:13])[H:14])([H:8])[H:10]"
C       -1.72001142       0.20053825       0.66638707
C       -0.41315464      -0.22960474       0.32109616
C       -0.53542073      -1.37123296      -0.49924013
O        0.60479737      -1.46100547      -1.30478076
C        1.41614636      -0.45641432      -0.88697299
C        0.89150668       0.31177261       0.10500137
N        1.41499756       1.44407175       0.72461779
H       -1.94043042       0.55837292       1.67040904
H       -1.93001881      -0.97900615      -0.40248074
H       -2.33683871       0.68407522      -0.08083774
H       -0.75298348      -2.33017807      -0.03660731
H        2.34963904      -0.35675599      -1.42066320
H        0.72148625       2.16147091       0.87312644
H        2.23028496       1.82389604       0.27094501
14
Frame=4 idx=011715 GeodesicLength=0.18918420513139725 rxn_smarts="[C:1]([c:2]1[c:3]([H:11])[o:4][c:5]([H:12])[c:6]1[N:7]([H:13])[H:14])([H:8])([H:9])[H:10]>>[C:1](=[C:2]1[C:3]([H:9])([H:11])[O:4][C:5]([H:12])=[C:6]1[N:7]([H:13])[H:14])([H:8])[H:10]"
C       -1.71144659       0.19920389       0.67433706
C       -0.40863629      -0.24469323       0.33385203
C       -0.53362393      -1.37495375      -0.50520239
O        0.60933435      -1.46133952      -1.30562197
C        1.42315099      -0.46191712      -0.87903488
C        0.88896087       0.31038374       0.10291642
N        1.39583690       1.45592124       0.71261886
H       -1.92721533       0.52468211       1.69030069
H       -1.93677021      -0.95376329      -0.42504404
H       -2.32775686       0.72001453      -0.04761024
H       -0.76118624      -2.33886932      -0.05792680
H        2.36947690      -0.37734631      -1.39203171
H        0.69832288       2.17560510       0.82769636
H        2.22155255       1.82707194       0.27075060
14
Frame=5 idx=011715 GeodesicLength=0.2366296587525724 rxn_smarts="[C:1]([c:2]1[c:3]([H:11])[o:4][c:5]([H:12])[c:6]1[N:7]([H:13])[H:14])([H:8])([H:9])[H:10]>>[C:1](=[C:2]1[C:3]([H:9])([H:11])[O:4][C:5]([H:12])=[C:6]1[N:7]([H:13])[H:14])([H:8])[H:10]"
C       -1.70289037       0.19831606       0.68180190
C       -0.40431475      -0.25913565       0.34562765
C       -0.53171615      -1.37859305      -0.51099477
O        0.61408767      -1.46193503      -1.30611567
C        1.43012437      -0.46731901      -0.87125583
C        0.88641997       0.30890718       0.10069456
N        1.37680096       1.46723613       0.70033323
H       -1.91474974       0.49067506       1.70861731
H       -1.94278113      -0.92738220      -0.44734148
H       -2.31864724       0.75525433      -0.01292843
H       -0.76885127      -2.34692403      -0.07843267
H        2.38863531      -0.39780825      -1.36315523
H        0.67578630       2.18800981       0.78296557
H        2.21209609       1.83069866       0.27018387
14
Frame=6 idx=011715 GeodesicLength=0.2842135966600402 rxn_smarts="[C:1]([c:2]1[c:3]([H:11])[o:4][c:5]([H:12])[c:6]1[N:7]([H:13])[H:14])([H:8])([H:9])[H:10]>>[C:1](=[C:2]1[C:3]([H:9])([H:11])[O:4][C:5]([H:12])=[C:6]1[N:7]([H:13])[H:14])([H:8])[H:10]"
C       -1.69427246       0.19764117       0.68923201
C       -0.40014570      -0.27305640       0.35655895
C       -0.52982022      -1.38192465      -0.51700347
O        0.61890939      -1.46236654      -1.30672296
C        1.43721674      -0.47273541      -0.86339501
C        0.88393311       0.30732097       0.09845005
N        1.35762847       1.47841818       0.68734017
H       -1.90285708       0.45568318       1.72591522
H       -1.94808460      -0.89944735      -0.46957702
H       -2.30947856       0.78988256       0.02402982
H       -0.77624405      -2.35433025      -0.09894427
H        2.40790001      -0.41919315      -1.33259855
H        0.65348498       2.19915082       0.73784973
H        2.20182996       1.83495687       0.26886533
14
Frame=7 idx=011715 GeodesicLength=0.33184301215959244 rxn_smarts="[C:1]([c:2]1[c:3]([H:11])[o:4][c:5]([H:12])[c:6]1[N:7]([H:13])[H:14])([H:8])([H:9])[H:10]>>[C:1](=[C:2]1[C:3]([H:9])([H:11])[O:4][C:5]([H:12])=[C:6]1[N:7]([H:13])[H:14])([H:8])[H:10]"
C       -1.68567745       0.19742142       0.69617133
C       -0.39615776      -0.28635364       0.36661904
C       -0.52781411      -1.38520004      -0.52284594
O        0.62384418      -1.46296569      -1.30712998
C        1.44396635      -0.47759833      -0.85625441
C        0.88146502       0.30570993       0.09600105
N        1.33868525       1.48903769       0.67409411
H       -1.89174054       0.42062611       1.74147744
H       -1.95263466      -0.87052329      -0.49141467
H       -2.30027206       0.82360990       0.06239977
H       -0.78295407      -2.36122844      -0.11860282
H        2.42658295      -0.44084844      -1.30129126
H        0.63180981       2.20863586       0.69382683
H        2.19089708       1.83967694       0.26694950
14
Frame=8 idx=011715 GeodesicLength=0.3795883366672968 rxn_smarts="[C:1]([c:2]1[c:3]([H:11])[o:4][c:5]([H:12])[c:6]1[N:7]([H:13])[H:14])([H:8])([H:9])[H:10]>>[C:1](=[C:2]1[C:3]([H:9])([H:11])[O:4][C:5]([H:12])=[C:6]1[N:7]([H:13])[H:14])([H:8])[H:10]"
C       -1.67705572       0.19756929       0.70283715
C       -0.39231156      -0.29919625       0.37607392
C       -0.52575178      -1.38833044      -0.52863025
O        0.62898548      -1.46370232      -1.30721545
C        1.45088186      -0.48260101      -0.84881435
C        0.87916945       0.30383922       0.09381472
N        1.31974645       1.49933826       0.66042040
H       -1.88155131       0.38490380       1.75556311
H       -1.95634357      -0.84016930      -0.51316069
H       -2.29074281       0.85663159       0.10253864
H       -0.78940310      -2.36762383      -0.13788249
H        2.44441185      -0.46220019      -1.26968942
H        0.61052269       2.21685511       0.64958620
H        2.17944207       1.84468608       0.26455852
14
Frame=9 idx=011715 GeodesicLength=0.42740398232431864 rxn_smarts="[C:1]([c:2]1[c:3]([H:11])[o:4][c:5]([H:12])[c:6]1[N:7]([H:13])[H:14])([H:8])([H:9])[H:10]>>[C:1](=[C:2]1[C:3]([H:9])([H:11])[O:4][C:5]([H:12])=[C:6]1[N:7]([H:13])[H:14])([H:8])[H:10]"
C       -1.66845789       0.19816147       0.70911242
C       -0.38863872      -0.31144772       0.38476382
C       -0.52361555      -1.39138058      -0.53433006
O        0.63412945      -1.46443989      -1.30730544
C        1.45744281      -0.48697781      -0.84216865
C        0.87690469       0.30200689       0.09142223
N        1.30100726       1.50919931       0.64646217
H       -1.87216314       0.34907023       1.76794926
H       -1.95933201      -0.80889374      -0.53442217
H       -2.28116351       0.88858720       0.14420978
H       -0.79514247      -2.37361338      -0.15645931
H        2.46168683      -0.48407035      -1.23698431
H        0.58981464       2.22375152       0.60610848
H        2.16752761       1.85004685       0.26164177
14
Frame=10 idx=011715 GeodesicLength=0.4753238186287305 rxn_smarts="[C:1]([c:2]1[c:3]([H:11])[o:4][c:5]([H:12])[c:6]1[N:7]([H:13])[H:14])([H:8])([H:9])[H:10]>>[C:1](=[C:2]1[C:3]([H:9])([H:11])[O:4][C:5]([H:12])=[C:6]1[N:7]([H:13])[H:14])([H:8])[H:10]"
C       -1.65987051       0.19920032       0.71501255
C       -0.38512779      -0.32329008       0.39299350
C       -0.52140284      -1.39439621      -0.53983139
O        0.63949218      -1.46542903      -1.30692618
C        1.46414686      -0.49152501      -0.83517131
C        0.87483627       0.29989234       0.08937534
N        1.28236837       1.51863982       0.63223558
H       -1.86390356       0.31292606       1.77856847
H       -1.96140770      -0.77633230      -0.55553021
H       -2.27111487       0.91970667       0.18738275
H       -0.80058317      -2.37925289      -0.17444615
H        2.47775973      -0.50507677      -1.20468437
H        0.56957602       2.22938727       0.56268139
H        2.15523101       1.85554981       0.25834002
14
Frame=11 idx=011715 GeodesicLength=0.5233178277941054 rxn_smarts="[C:1]([c:2]1[c:3]([H:11])[o:4][c:5]([H:12])[c:6]1[N:7]([H:13])[H:14])([H:8])([H:9])[H:10]>>[C:1](=[C:2]1[C:3]([H:9])([H:11])[O:4][C:5]([H:12])=[C:6]1[N:7]([H:13])[H:14])([H:8])[H:10]"
C       -1.65134579       0.20077373       0.72043486
C       -0.38181252      -0.33462769       0.40068355
C       -0.51910273      -1.39744817      -0.54507738
O        0.64493062      -1.46659500      -1.30627112
C        1.47071062      -0.49584103      -0.82842001
C        0.87287038       0.29768360       0.08739139
N        1.26398035       1.52756963       0.61789406
H       -1.85676190       0.27687389       1.78725570
H       -1.96268484      -0.74290215      -0.57621200
H       -2.26075130       0.94976383       0.23178352
H       -0.80541755      -2.38463983      -0.19156377
H        2.49276269      -0.52555917      -1.17255843
H        0.54996370       2.23377976       0.51996301
H        2.14265827       1.86116860       0.25469664
14
Frame=12 idx=011715 GeodesicLength=0.5712994230079408 rxn_smarts="[C:1]([c:2]1[c:3]([H:11])[o:4][c:5]([H:12])[c:6]1[N:7]([H:13])[H:14])([H:8])([H:9])[H:10]>>[C:1](=[C:2]1[C:3]([H:9])([H:11])[O:4][C:5]([H:12])=[C:6]1[N:7]([H:13])[H:14])([H:8])[H:10]"
C       -1.64299443       0.20306571       0.72502872
C       -0.37876950      -0.34540193       0.40784469
C       -0.51665003      -1.40082231      -0.54972368
O        0.65045328      -1.46824802      -1.30506780
C        1.47696289      -0.49982887      -0.82213875
C        0.87094488       0.29540791       0.08537736
N        1.24609236       1.53569624       0.60390736
H       -1.85092219       0.24172387       1.79358276
H       -1.96320211      -0.70917314      -0.59634798
H       -2.25009579       0.97866185       0.27659939
H       -0.80940004      -2.39002249      -0.20709714
H        2.50621400      -0.54453509      -1.14203878
H        0.53128826       2.23687082       0.47891051
H        2.13007841       1.86660546       0.25116334
14
Frame=13 idx=011715 GeodesicLength=0.6193505263891753 rxn_smarts="[C:1]([c:2]1[c:3]([H:11])[o:4][c:5]([H:12])[c:6]1[N:7]([H:13])[H:14])([H:8])([H:9])[H:10]>>[C:1](=[C:2]1[C:3]([H:9])([H:11])[O:4][C:5]([H:12])=[C:6]1[N:7]([H:13])[H:14])([H:8])[H:10]"
C       -1.63473974       0.20591056       0.72917154
C       -0.37596098      -0.35573668       0.41462906
C       -0.51413477      -1.40429983      -0.55403960
O        0.65603353      -1.47011536      -1.30349735
C        1.48317597      -0.50382653      -0.81575863
C        0.86913862       0.29296988       0.08358767
N        1.22844452       1.54333771       0.58987710
H       -1.84640040       0.20675493       1.79793184
H       -1.96291054      -0.67462969      -0.61613299
H       -2.23891774       1.00651926       0.32253071
H       -0.81285976      -2.39529587      -0.22172300
H        2.51858253      -0.56250469      -1.11239421
H        0.51321225       2.23889346       0.43841516
H        2.11733651       1.87202284       0.24740269
14
Frame=14 idx=011715 GeodesicLength=0.6673658550298089 rxn_smarts="[C:1]([c:2]1[c:3]([H:11])[o:4][c:5]([H:12])[c:6]1[N:7]([H:13])[H:14])([H:8])([H:9])[H:10]>>[C:1](=[C:2]1[C:3]([H:9])([H:11])[O:4][C:5]([H:12])=[C:6]1[N:7]([H:13])[H:14])([H:8])[H:10]"
C       -1.62665089       0.20944412       0.73259314
C       -0.37344139      -0.36552982       0.42096037
C       -0.51151550      -1.40808782      -0.55780084
O        0.66157829      -1.47233129      -1.30152322
C        1.48908940      -0.50757322      -0.80974716
C        0.86733191       0.29050880       0.08174278
N        1.21127630       1.55027765       0.57617010
H       -1.84318795       0.17269096       1.80001244
H       -1.96191593      -0.63984502      -0.63542186
H       -2.22734874       1.03315080       0.36892931
H       -0.81548630      -2.40065179      -0.23486303
H        2.52968634      -0.57916097      -1.08422834
H        0.49597527       2.23984829       0.39952725
H        2.10460920       1.87725930       0.24364906
14
Frame=15 idx=011715 GeodesicLength=0.7154670750528866 rxn_smarts="[C:1]([c:2]1[c:3]([H:11])[o:4][c:5]([H:12])[c:6]1[N:7]([H:13])[H:14])([H:8])([H:9])[H:10]>>[C:1](=[C:2]1[C:3]([H:9])([H:11])[O:4][C:5]([H:12])=[C:6]1[N:7]([H:13])[H:14])([H:8])[H:10]"
C       -1.61866443       0.21347842       0.73570964
C       -0.37116710      -0.37490010       0.42694172
C       -0.50888221      -1.41193853      -0.56133077
O        0.66708040      -1.47457993      -1.29940076
C        1.49495429      -0.51128544      -0.80369923
C        0.86560994       0.28797109       0.08003173
N        1.19432709       1.55685693       0.56232967
H       -1.84122953       0.13882200       1.80021666
H       -1.96019564      -0.60426162      -0.65434361
H       -2.21523105       1.05858209       0.41660329
H       -0.81759579      -2.40596477      -0.24725455
H        2.54004791      -0.59527872      -1.05642896
H        0.47921709       2.23994258       0.36113823
H        2.09172903       1.88255601       0.23948693
14
Frame=16 idx=011715 GeodesicLength=0.7636667819366755 rxn_smarts="[C:1]([c:2]1[c:3]([H:11])[o:4][c:5]([H:12])[c:6]1[N:7]([H:13])[H:14])([H:8])([H:9])[H:10]>>[C:1](=[C:2]1[C:3]([H:9])([H:11])[O:4][C:5]([H:12])=[C:6]1[N:7]([H:13])[H:14])([H:8])[H:10]"
C       -1.61069419       0.21792282       0.73871814
C       -0.36911354      -0.38393470       0.43270770
C       -0.50626426      -1.41571953      -0.56473883
O        0.67255631      -1.47677486      -1.29708836
C        1.50087400      -0.51517398      -0.79718796
C        0.86402641       0.28524193       0.07873851
N        1.17739186       1.56320350       0.54812416
H       -1.84062096       0.10478352       1.79858915
H       -1.95757908      -0.56750778      -0.67300214
H       -2.20213707       1.08285388       0.46595454
H       -0.81940428      -2.41111361      -0.25927535
H        2.54975416      -0.61090217      -1.02881014
H        0.46271268       2.23913970       0.32256912
H        2.07849796       1.88798129       0.23470148
