13
Frame=0 idx=002266 GeodesicLength=0.0 rxn_smarts="[C:1]1([H:7])([H:8])[C:2]([H:9])=[C:3]([H:10])[C@@:4]2([H:11])[N:5]([H:12])[C@@:6]12[H:13]>>[C:1]1([H:7])([H:8])[C:2]([H:9])=[C:3]([H:10])[C@@:4]2([H:11])[N+:5]1([H:12])[C-:6]2[H:13]"
C        0.48460282      -1.18864447      -0.29337550
C        1.24209237       0.01989875      -0.72811185
C        0.69256948       1.17937330      -0.40300970
C       -0.57232892       0.94570685       0.36590403
N       -1.14200010      -0.30958271      -0.09945969
C       -0.47015497      -0.20776754       1.28878878
H        1.00556646      -1.82049470       0.41903180
H        0.11748070      -1.79585954      -1.12501191
H        2.17458428      -0.10393206      -1.26475932
H        1.10451893       2.15429442      -0.62503046
H       -1.29040891       1.73991625       0.52937269
H       -2.15264548      -0.38361179      -0.17071373
H       -1.19387671      -0.22929674       2.10637480
13
Frame=1 idx=002266 GeodesicLength=0.038384253592039765 rxn_smarts="[C:1]1([H:7])([H:8])[C:2]([H:9])=[C:3]([H:10])[C@@:4]2([H:11])[N:5]([H:12])[C@@:6]12[H:13]>>[C:1]1([H:7])([H:8])[C:2]([H:9])=[C:3]([H:10])[C@@:4]2([H:11])[N+:5]1([H:12])[C-:6]2[H:13]"
C        0.48108869      -1.18700601      -0.28402036
C        1.23749723       0.01908620      -0.73140127
C        0.68782734       1.17843168      -0.40519455
C       -0.57206762       0.94701499       0.37138390
N       -1.14494054      -0.31006653      -0.08652493
C       -0.46520163      -0.20955497       1.29083415
H        1.01332666      -1.81670479       0.42271942
H        0.11728875      -1.80314907      -1.11075246
H        2.16655538      -0.10467298      -1.27384996
H        1.10035983       2.15340776      -0.62602583
H       -1.28671110       1.74345566       0.53943749
H       -2.14837498      -0.37053368      -0.21627440
H       -1.18664804      -0.23970825       2.10966880
13
Frame=2 idx=002266 GeodesicLength=0.07675610144692414 rxn_smarts="[C:1]1([H:7])([H:8])[C:2]([H:9])=[C:3]([H:10])[C@@:4]2([H:11])[N:5]([H:12])[C@@:6]12[H:13]>>[C:1]1([H:7])([H:8])[C:2]([H:9])=[C:3]([H:10])[C@@:4]2([H:11])[N+:5]1([H:12])[C-:6]2[H:13]"
C        0.47713891      -1.18534659      -0.27459619
C        1.23244794       0.01817544      -0.73461807
C        0.68277243       1.17742542      -0.40719487
C       -0.57192729       0.94830287       0.37725824
N       -1.14848843      -0.31049215      -0.07281909
C       -0.46013484      -0.21125489       1.29332992
H        1.02055149      -1.81299858       0.42623505
H        0.11653833      -1.81022549      -1.09637930
H        2.15800837      -0.10557706      -1.28287909
H        1.09554170       2.15244451      -0.62752608
H       -1.28307878       1.74697015       0.54995244
H       -2.14050073      -0.35758075      -0.26447241
H       -1.17886910      -0.24984287       2.11370945
13
Frame=3 idx=002266 GeodesicLength=0.11508798453540661 rxn_smarts="[C:1]1([H:7])([H:8])[C:2]([H:9])=[C:3]([H:10])[C@@:4]2([H:11])[N:5]([H:12])[C@@:6]12[H:13]>>[C:1]1([H:7])([H:8])[C:2]([H:9])=[C:3]([H:10])[C@@:4]2([H:11])[N+:5]1([H:12])[C-:6]2[H:13]"
C        0.47265707      -1.18363970      -0.26516274
C        1.22690320       0.01717410      -0.73777954
C        0.67737935       1.17637322      -0.40904037
C       -0.57195721       0.94961074       0.38345693
N       -1.15277306      -0.31078038      -0.05840841
C       -0.45501421      -0.21283180       1.29619589
H        1.02710177      -1.80939440       0.42951258
H        0.11514126      -1.81704477      -1.08197569
H        2.14894189      -0.10665772      -1.29179106
H        1.09016416       2.15141459      -0.62937044
H       -1.27954963       1.75051198       0.56083338
H       -2.12848083      -0.34511934      -0.31496194
H       -1.17051375      -0.25961653       2.11849141
13
Frame=4 idx=002266 GeodesicLength=0.15341762941983358 rxn_smarts="[C:1]1([H:7])([H:8])[C:2]([H:9])=[C:3]([H:10])[C@@:4]2([H:11])[N:5]([H:12])[C@@:6]12[H:13]>>[C:1]1([H:7])([H:8])[C:2]([H:9])=[C:3]([H:10])[C@@:4]2([H:11])[N+:5]1([H:12])[C-:6]2[H:13]"
C        0.46755777      -1.18186029      -0.25579833
C        1.22087602       0.01609268      -0.74084902
C        0.67167740       1.17529352      -0.41069754
C       -0.57218471       0.95097107       0.38992048
N       -1.15790949      -0.31083862      -0.04340486
C       -0.44993353      -0.21428812       1.29933064
H        1.03281144      -1.80594940       0.43246675
H        0.11303968      -1.82352442      -1.06768496
H        2.13940939      -0.10791665      -1.30048159
H        1.08423554       2.15033664      -0.63156170
H       -1.27613592       1.75413166       0.57199394
H       -2.11183519      -0.33348539      -0.36720596
H       -1.16160839      -0.26896267       2.12397216
13
Frame=5 idx=002266 GeodesicLength=0.1917267517922875 rxn_smarts="[C:1]1([H:7])([H:8])[C:2]([H:9])=[C:3]([H:10])[C@@:4]2([H:11])[N:5]([H:12])[C@@:6]12[H:13]>>[C:1]1([H:7])([H:8])[C:2]([H:9])=[C:3]([H:10])[C@@:4]2([H:11])[N+:5]1([H:12])[C-:6]2[H:13]"
C        0.46177391      -1.17998664      -0.24665929
C        1.21442620       0.01494933      -0.74381687
C        0.66572213       1.17421306      -0.41217910
C       -0.57262492       0.95241953       0.39652536
N       -1.16398949      -0.31055787      -0.02805936
C       -0.44501385      -0.21565084       1.30253953
H        1.03750648      -1.80274340       0.43494883
H        0.11021401      -1.82956669      -1.05375923
H        2.12971522      -0.10933423      -1.30855062
H        1.07774380       2.14924374      -0.63421045
H       -1.27282367       1.75789674       0.58329786
H       -2.09041552      -0.32301923      -0.42006563
H       -1.15223431      -0.27786349       2.12998898
13
Frame=6 idx=002266 GeodesicLength=0.23014665120190608 rxn_smarts="[C:1]1([H:7])([H:8])[C:2]([H:9])=[C:3]([H:10])[C@@:4]2([H:11])[N:5]([H:12])[C@@:6]12[H:13]>>[C:1]1([H:7])([H:8])[C:2]([H:9])=[C:3]([H:10])[C@@:4]2([H:11])[N+:5]1([H:12])[C-:6]2[H:13]"
C        0.45533010      -1.17795946      -0.23777893
C        1.20761830       0.01380012      -0.74670890
C        0.65954986       1.17320929      -0.41361298
C       -0.57336413       0.95406972       0.40297648
N       -1.17103078      -0.30981234      -0.01270485
C       -0.44043416      -0.21678286       1.30559326
H        1.04115426      -1.79968048       0.43702715
H        0.10675441      -1.83518750      -1.04021956
H        2.11954231      -0.11090162      -1.31664255
H        1.07152465       2.14816190      -0.63621415
H       -1.26969666       1.76194386       0.59435350
H       -2.06434075      -0.31471301      -0.47234315
H       -1.14260740      -0.28614763       2.13627468
13
Frame=7 idx=002266 GeodesicLength=0.26867863556223165 rxn_smarts="[C:1]1([H:7])([H:8])[C:2]([H:9])=[C:3]([H:10])[C@@:4]2([H:11])[N:5]([H:12])[C@@:6]12[H:13]>>[C:1]1([H:7])([H:8])[C:2]([H:9])=[C:3]([H:10])[C@@:4]2([H:11])[N+:5]1([H:12])[C-:6]2[H:13]"
C        0.44836995      -1.17582976      -0.22924060
C        1.20095227       0.01262236      -0.74899551
C        0.65369179       1.17220222      -0.41431481
C       -0.57410609       0.95577354       0.40956806
N       -1.17883700      -0.30849102       0.00219681
C       -0.43651327      -0.21817340       1.30835466
H        1.04361515      -1.79703798       0.43864729
H        0.10299027      -1.84016844      -1.02743552
H        2.10958383      -0.11254853      -1.32393030
H        1.06399636       2.14713754      -0.64011767
H       -1.26633969       1.76618666       0.60556160
H       -2.03407312      -0.30722361      -0.52272915
H       -1.13333046      -0.29444957       2.14243513
13
Frame=8 idx=002266 GeodesicLength=0.30739171438778223 rxn_smarts="[C:1]1([H:7])([H:8])[C:2]([H:9])=[C:3]([H:10])[C@@:4]2([H:11])[N:5]([H:12])[C@@:6]12[H:13]>>[C:1]1([H:7])([H:8])[C:2]([H:9])=[C:3]([H:10])[C@@:4]2([H:11])[N+:5]1([H:12])[C-:6]2[H:13]"
C        0.44094338      -1.17345887      -0.22119249
C        1.19419420       0.01152769      -0.75132228
C        0.64774564       1.17132692      -0.41529117
C       -0.57516633       0.95774915       0.41549108
N       -1.18738640      -0.30657214       0.01635157
C       -0.43320535      -0.21925607       1.31044860
H        1.04507448      -1.79439510       0.43980559
H        0.09894464      -1.84466530      -1.01530916
H        2.09950574      -0.11425128      -1.33120786
H        1.05766296       2.14612656      -0.64242086
H       -1.26312906       1.77080610       0.61597571
H       -2.00089184      -0.30280780      -0.56948163
H       -1.12429207      -0.30212986       2.14815290
13
Frame=9 idx=002266 GeodesicLength=0.3462761562559046 rxn_smarts="[C:1]1([H:7])([H:8])[C:2]([H:9])=[C:3]([H:10])[C@@:4]2([H:11])[N:5]([H:12])[C@@:6]12[H:13]>>[C:1]1([H:7])([H:8])[C:2]([H:9])=[C:3]([H:10])[C@@:4]2([H:11])[N+:5]1([H:12])[C-:6]2[H:13]"
C        0.43329236      -1.17097444      -0.21355913
C        1.18777986       0.01049653      -0.75323543
C        0.64215860       1.17057378      -0.41594579
C       -0.57628885       0.95990890       0.42104661
N       -1.19642852      -0.30406660       0.02946522
C       -0.43069056      -0.22042490       1.31190132
H        1.04567315      -1.79199040       0.44066643
H        0.09495273      -1.84871278      -1.00394354
H        2.08956192      -0.11595901      -1.33832178
H        1.05136793       2.14524686      -0.64496875
H       -1.25975900       1.77578455       0.62595514
H       -1.96563512      -0.30014959      -0.61224151
H       -1.11598449      -0.30973289       2.15318122
13
Frame=10 idx=002266 GeodesicLength=0.385386832177112 rxn_smarts="[C:1]1([H:7])([H:8])[C:2]([H:9])=[C:3]([H:10])[C@@:4]2([H:11])[N:5]([H:12])[C@@:6]12[H:13]>>[C:1]1([H:7])([H:8])[C:2]([H:9])=[C:3]([H:10])[C@@:4]2([H:11])[N+:5]1([H:12])[C-:6]2[H:13]"
C        0.42559193      -1.16838568      -0.20628171
C        1.18193349       0.00951965      -0.75455761
C        0.63715889       1.16987164      -0.41603443
C       -0.57733027       0.96215394       0.42635855
N       -1.20572551      -0.30099459       0.04139653
C       -0.42906886      -0.22184435       1.31270776
H        1.04553117      -1.78980363       0.44133686
H        0.09125854      -1.85227920      -0.99330606
H        2.07983473      -0.11764679      -1.34530188
H        1.04462838       2.14445759      -0.64854154
H       -1.25605166       1.78100281       0.63566705
H       -1.92903149      -0.29852749      -0.65077233
H       -1.10872934      -0.31752390       2.15732881
13
Frame=11 idx=002266 GeodesicLength=0.42466513244585824 rxn_smarts="[C:1]1([H:7])([H:8])[C:2]([H:9])=[C:3]([H:10])[C@@:4]2([H:11])[N:5]([H:12])[C@@:6]12[H:13]>>[C:1]1([H:7])([H:8])[C:2]([H:9])=[C:3]([H:10])[C@@:4]2([H:11])[N+:5]1([H:12])[C-:6]2[H:13]"
C        0.41793485      -1.16569765      -0.19935971
C        1.17656025       0.00863023      -0.75555785
C        0.63254501       1.16927684      -0.41598287
C       -0.57838285       0.96453829       0.43118920
N       -1.21519729      -0.29746345       0.05214753
C       -0.42821220      -0.22333172       1.31283246
H        1.04488388      -1.78769122       0.44188612
H        0.08790348      -1.85552661      -0.98327628
H        2.07021627      -0.11928603      -1.35241911
H        1.03829702       2.14376687      -0.65192246
H       -1.25214949       1.78649163       0.64484584
H       -1.89199480      -0.29836268      -0.68494589
H       -1.10240413      -0.32534452       2.16056302
13
Frame=12 idx=002266 GeodesicLength=0.46406728782288265 rxn_smarts="[C:1]1([H:7])([H:8])[C:2]([H:9])=[C:3]([H:10])[C@@:4]2([H:11])[N:5]([H:12])[C@@:6]12[H:13]>>[C:1]1([H:7])([H:8])[C:2]([H:9])=[C:3]([H:10])[C@@:4]2([H:11])[N+:5]1([H:12])[C-:6]2[H:13]"
C        0.41038629      -1.16289830      -0.19279681
C        1.17156744       0.00783400      -0.75644465
C        0.62814536       1.16877615      -0.41609587
C       -0.57949813       0.96705269       0.43541792
N       -1.22475812      -0.29356719       0.06179243
C       -0.42800071      -0.22477273       1.31226953
H        1.04389995      -1.78552182       0.44232220
H        0.08492045      -1.85852722      -0.97375586
H        2.06072599      -0.12085710      -1.35969792
H        1.03284116       2.14313196      -0.65444427
H       -1.24813517       1.79219910       0.65338086
H       -1.85520700      -0.29975047      -0.71483103
H       -1.09688751      -0.33309907       2.16288347
13
Frame=13 idx=002266 GeodesicLength=0.5036422306481366 rxn_smarts="[C:1]1([H:7])([H:8])[C:2]([H:9])=[C:3]([H:10])[C@@:4]2([H:11])[N:5]([H:12])[C@@:6]12[H:13]>>[C:1]1([H:7])([H:8])[C:2]([H:9])=[C:3]([H:10])[C@@:4]2([H:11])[N+:5]1([H:12])[C-:6]2[H:13]"
C        0.40307232      -1.16006263      -0.18642241
C        1.16722629       0.00709318      -0.75680602
C        0.62432651       1.16831436      -0.41575511
C       -0.58047171       0.96959967       0.43942863
N       -1.23424817      -0.28931515       0.07033510
C       -0.42853093      -0.22644573       1.31119520
H        1.04264080      -1.78343825       0.44284473
H        0.08246641      -1.86127217      -0.96466422
H        2.05120646      -0.12238166      -1.36733688
H        1.02717596       2.14257219      -0.65764915
H       -1.24378345       1.79803604       0.66168404
H       -1.81859858      -0.30155545      -0.74115630
H       -1.09248191      -0.34114438       2.16430239
13
Frame=14 idx=002266 GeodesicLength=0.5433586743873584 rxn_smarts="[C:1]1([H:7])([H:8])[C:2]([H:9])=[C:3]([H:10])[C@@:4]2([H:11])[N:5]([H:12])[C@@:6]12[H:13]>>[C:1]1([H:7])([H:8])[C:2]([H:9])=[C:3]([H:10])[C@@:4]2([H:11])[N+:5]1([H:12])[C-:6]2[H:13]"
C        0.39598100      -1.15717628      -0.18027315
C        1.16334496       0.00642316      -0.75694302
C        0.62081529       1.16791245      -0.41538925
C       -0.58140837       0.97220733       0.44304764
N       -1.24368182      -0.28479989       0.07791572
C       -0.42962773      -0.22817550       1.30960709
H        1.04122678      -1.78132477       0.44340478
H        0.08045773      -1.86384275      -0.95592908
H        2.04169855      -0.12383752      -1.37526139
H        1.02194469       2.14206599      -0.66058712
H       -1.23923462       1.80399614       0.66958940
H       -1.78260303      -0.30415676      -0.76408763
H       -1.08891344      -0.34929160       2.16490600
13
Frame=15 idx=002266 GeodesicLength=0.5831486425243387 rxn_smarts="[C:1]1([H:7])([H:8])[C:2]([H:9])=[C:3]([H:10])[C@@:4]2([H:11])[N:5]([H:12])[C@@:6]12[H:13]>>[C:1]1([H:7])([H:8])[C:2]([H:9])=[C:3]([H:10])[C@@:4]2([H:11])[N+:5]1([H:12])[C-:6]2[H:13]"
C        0.38911686      -1.15425625      -0.17436171
C        1.15986057       0.00581255      -0.75695093
C        0.61753524       1.16755241      -0.41509418
C       -0.58230504       0.97485200       0.44629538
N       -1.25302569      -0.28008536       0.08464014
C       -0.43118647      -0.22995099       1.30754912
H        1.03971984      -1.77917456       0.44396807
H        0.07885362      -1.86626217      -0.94753712
H        2.03236500      -0.12521555      -1.38322685
H        1.01711287       2.14159806      -0.66329061
H       -1.23450922       1.81003085       0.67712524
H       -1.74748263      -0.30737099      -0.78387899
H       -1.08605496      -0.35753000       2.16476245
13
Frame=16 idx=002266 GeodesicLength=0.6229785674742685 rxn_smarts="[C:1]1([H:7])([H:8])[C:2]([H:9])=[C:3]([H:10])[C@@:4]2([H:11])[N:5]([H:12])[C@@:6]12[H:13]>>[C:1]1([H:7])([H:8])[C:2]([H:9])=[C:3]([H:10])[C@@:4]2([H:11])[N+:5]1([H:12])[C-:6]2[H:13]"
C        0.38248849      -1.15132634      -0.16866779
C        1.15678005       0.00524538      -0.75680265
C        0.61451795       1.16721275      -0.41478849
C       -0.58311450       0.97750290       0.44927616
N       -1.26223872      -0.27520256       0.09059274
C       -0.43315386      -0.23182101       1.30509101
H        1.03814423      -1.77702689       0.44453582
H        0.07763035      -1.86852634      -0.93947943
H        2.02330549      -0.12651807      -1.39107049
H        1.01239280       2.14115796      -0.66614997
H       -1.22956964       1.81609600       0.68440473
H       -1.71331015      -0.31087489      -0.80087228
H       -1.08387251      -0.36591888       2.16393064
