10
Frame=0 idx=003943 GeodesicLength=0.0 rxn_smarts="[O:1]=[C:2]([N:3]([C:4]([C:5]#[N:6])([H:9])[H:10])[H:8])[H:7]>>[O:1](/[C:2](=[N:3]/[H:8])[H:7])[N:6]=[C:5]=[C:4]([H:9])[H:10]"
O       -0.88210263       1.00180625      -1.27990452
C       -1.15803110      -0.16255376      -0.77906591
N       -1.18731981      -0.35615971       0.49621045
C        1.23477795       0.06344152       0.92621164
C        1.20083107       0.81517123      -0.16147210
N        0.82348655       1.38409412      -1.14824131
H       -1.30735720      -0.97445839      -1.50512526
H       -1.39832125      -1.33606284       0.68182666
H        1.05850414       0.51259019       1.89401239
H        1.61553228      -0.94786861       0.87554796
10
Frame=1 idx=003943 GeodesicLength=0.0588497681690107 rxn_smarts="[O:1]=[C:2]([N:3]([C:4]([C:5]#[N:6])([H:9])[H:10])[H:8])[H:7]>>[O:1](/[C:2](=[N:3]/[H:8])[H:7])[N:6]=[C:5]=[C:4]([H:9])[H:10]"
O       -0.89818326       1.01650049      -1.25836188
C       -1.17488490      -0.15337887      -0.77368739
N       -1.18414094      -0.37164769       0.49872963
C        1.21865297       0.05779029       0.92366064
C        1.21684925       0.79708661      -0.17756221
N        0.83923080       1.37991616      -1.15546519
H       -1.29499322      -0.96326999      -1.50742991
H       -1.39978873      -1.35195668       0.67344485
H        1.05265779       0.53373467       1.88078720
H        1.62460024      -0.94477498       0.89588427
10
Frame=2 idx=003943 GeodesicLength=0.11758073650201603 rxn_smarts="[O:1]=[C:2]([N:3]([C:4]([C:5]#[N:6])([H:9])[H:10])[H:8])[H:7]>>[O:1](/[C:2](=[N:3]/[H:8])[H:7])[N:6]=[C:5]=[C:4]([H:9])[H:10]"
O       -0.91353035       1.03076115      -1.23607598
C       -1.19128189      -0.14455241      -0.76801633
N       -1.18089750      -0.38759230       0.50077185
C        1.20299613       0.05268699       0.92095475
C        1.23251113       0.77892648      -0.19314567
N        0.85577299       1.37469772      -1.16299862
H       -1.28490515      -0.95073653      -1.50976183
H       -1.40009823      -1.36841974       0.66454380
H        1.04605273       0.55449816       1.86675787
H        1.63338014      -0.94026951       0.91697017
10
Frame=3 idx=003943 GeodesicLength=0.17619400719779604 rxn_smarts="[O:1]=[C:2]([N:3]([C:4]([C:5]#[N:6])([H:9])[H:10])[H:8])[H:7]>>[O:1](/[C:2](=[N:3]/[H:8])[H:7])[N:6]=[C:5]=[C:4]([H:9])[H:10]"
O       -0.92816258       1.04432126      -1.21352806
C       -1.20714620      -0.13615377      -0.76207101
N       -1.17776935      -0.40350995       0.50243811
C        1.18775270       0.04794961       0.91795098
C        1.24763921       0.76126904      -0.20794607
N        0.87293370       1.36887254      -1.17064995
H       -1.27600148      -0.93759132      -1.51178323
H       -1.39980374      -1.38482087       0.65558371
H        1.03891685       0.57424401       1.85214666
H        1.64164090      -0.93458055       0.93785886
10
Frame=4 idx=003943 GeodesicLength=0.23470380513648154 rxn_smarts="[O:1]=[C:2]([N:3]([C:4]([C:5]#[N:6])([H:9])[H:10])[H:8])[H:7]>>[O:1](/[C:2](=[N:3]/[H:8])[H:7])[N:6]=[C:5]=[C:4]([H:9])[H:10]"
O       -0.94214874       1.05744527      -1.19040590
C       -1.22257811      -0.12801657      -0.75579792
N       -1.17457502      -0.41967026       0.50372191
C        1.17297737       0.04362894       0.91479131
C        1.26245178       0.74382697      -0.22211037
N        0.89082389       1.36209766      -1.17866792
H       -1.26892139      -0.92351918      -1.51370345
H       -1.39851352      -1.40157173       0.64618791
H        1.03103286       0.59344649       1.83693572
H        1.64945089      -0.92766760       0.95904871
10
Frame=5 idx=003943 GeodesicLength=0.29313508487989626 rxn_smarts="[O:1]=[C:2]([N:3]([C:4]([C:5]#[N:6])([H:9])[H:10])[H:8])[H:7]>>[O:1](/[C:2](=[N:3]/[H:8])[H:7])[N:6]=[C:5]=[C:4]([H:9])[H:10]"
O       -0.95558250       1.06990160      -1.16715945
C       -1.23751714      -0.12025165      -0.74925794
N       -1.17149468      -0.43564568       0.50471088
C        1.15859656       0.03953873       0.91135050
C        1.27681289       0.72705763      -0.23547297
N        0.90923994       1.35487514      -1.18684355
H       -1.26259113      -0.90915872      -1.51523616
H       -1.39681303      -1.41809365       0.63681276
H        1.02268362       0.61159364       1.82134502
H        1.65666547      -0.91981704       0.97975091
10
Frame=6 idx=003943 GeodesicLength=0.35152180187754334 rxn_smarts="[O:1]=[C:2]([N:3]([C:4]([C:5]#[N:6])([H:9])[H:10])[H:8])[H:7]>>[O:1](/[C:2](=[N:3]/[H:8])[H:7])[N:6]=[C:5]=[C:4]([H:9])[H:10]"
O       -0.96854121       1.08189201      -1.14352620
C       -1.25206261      -0.11273388      -0.74239779
N       -1.16841615      -0.45162986       0.50540991
C        1.14461259       0.03570098       0.90769924
C        1.29088950       0.71068509      -0.24819004
N        0.92824857       1.34698701      -1.19529417
H       -1.25730549      -0.89429024      -1.51650937
H       -1.39446908      -1.43465889       0.62719766
H        1.01373479       0.62904404       1.80529209
H        1.66330908      -0.91099626       1.00031867
10
Frame=7 idx=003943 GeodesicLength=0.409843711403975 rxn_smarts="[O:1]=[C:2]([N:3]([C:4]([C:5]#[N:6])([H:9])[H:10])[H:8])[H:7]>>[O:1](/[C:2](=[N:3]/[H:8])[H:7])[N:6]=[C:5]=[C:4]([H:9])[H:10]"
O       -0.98105516       1.09358562      -1.11921894
C       -1.26630918      -0.10532832      -0.73514155
N       -1.16524093      -0.46783779       0.50579246
C        1.13101174       0.03213825       0.90391457
C        1.30479378       0.69441164      -0.26040644
N        0.94788483       1.33816371      -1.20413336
H       -1.25338288      -0.87864003      -1.51766061
H       -1.39126952      -1.45154481       0.61702765
H        1.00410791       0.64617487       1.78867206
H        1.66945940      -0.90112314       1.02115416
10
Frame=8 idx=003943 GeodesicLength=0.46820023492492513 rxn_smarts="[O:1]=[C:2]([N:3]([C:4]([C:5]#[N:6])([H:9])[H:10])[H:8])[H:7]>>[O:1](/[C:2](=[N:3]/[H:8])[H:7])[N:6]=[C:5]=[C:4]([H:9])[H:10]"
O       -0.99324597       1.10480309      -1.09460735
C       -1.28020059      -0.09816764      -0.72756705
N       -1.16209449      -0.48391128       0.50593251
C        1.11774328       0.02870599       0.89990407
C        1.31845656       0.67860050      -0.27201678
N        0.96802996       1.32886821      -1.21318811
H       -1.25000879      -0.86273555      -1.51845234
H       -1.38764200      -1.46826738       0.60670414
H        0.99397636       0.66256655       1.77167896
H        1.67498566      -0.89046248       1.04161196
10
Frame=9 idx=003943 GeodesicLength=0.5265071605375006 rxn_smarts="[O:1]=[C:2]([N:3]([C:4]([C:5]#[N:6])([H:9])[H:10])[H:8])[H:7]>>[O:1](/[C:2](=[N:3]/[H:8])[H:7])[N:6]=[C:5]=[C:4]([H:9])[H:10]"
O       -1.00512560       1.11571653      -1.06941402
C       -1.29382765      -0.09112153      -0.71959810
N       -1.15889722      -0.50007061       0.50580197
C        1.10480558       0.02544398       0.89573226
C        1.33197123       0.66291483      -0.28316269
N        0.98870827       1.31883265      -1.22253218
H       -1.24747084      -0.84627277      -1.51899226
H       -1.38337491      -1.48512385       0.59591955
H        0.98326076       0.67858795       1.75414594
H        1.67995038      -0.87890718       1.06209953
10
Frame=10 idx=003943 GeodesicLength=0.5848124092887478 rxn_smarts="[O:1]=[C:2]([N:3]([C:4]([C:5]#[N:6])([H:9])[H:10])[H:8])[H:7]>>[O:1](/[C:2](=[N:3]/[H:8])[H:7])[N:6]=[C:5]=[C:4]([H:9])[H:10]"
O       -1.01680560       1.12621693      -1.04383096
C       -1.30715787      -0.08427686      -0.71129431
N       -1.15572203      -0.51612346       0.50545247
C        1.09216508       0.02227851       0.89134842
C        1.34530533       0.64754935      -0.29380516
N        1.00985367       1.30832604      -1.23206236
H       -1.24528292      -0.82952353      -1.51918407
H       -1.37872203      -1.50184833       0.58491486
H        0.97210902       0.69404315       1.73618806
H        1.68425735      -0.86664180       1.08227306
10
Frame=11 idx=003943 GeodesicLength=0.6431287857462376 rxn_smarts="[O:1]=[C:2]([N:3]([C:4]([C:5]#[N:6])([H:9])[H:10])[H:8])[H:7]>>[O:1](/[C:2](=[N:3]/[H:8])[H:7])[N:6]=[C:5]=[C:4]([H:9])[H:10]"
O       -1.02840155       1.13624306      -1.01802530
C       -1.32017742      -0.07770789      -0.70272244
N       -1.15263998      -0.53192048       0.50493031
C        1.07979372       0.01915054       0.88670478
C        1.35844251       0.63263108      -0.30393362
N        1.03142328       1.29761268      -1.24166811
H       -1.24302639      -0.81272183      -1.51894335
H       -1.37392311      -1.51824305       0.57390707
H        0.96065823       0.70879134       1.71788068
H        1.68785073      -0.85383544       1.10186998
10
Frame=12 idx=003943 GeodesicLength=0.7014582683450576 rxn_smarts="[O:1]=[C:2]([N:3]([C:4]([C:5]#[N:6])([H:9])[H:10])[H:8])[H:7]>>[O:1](/[C:2](=[N:3]/[H:8])[H:7])[N:6]=[C:5]=[C:4]([H:9])[H:10]"
O       -1.04006007       1.14573058      -0.99219042
C       -1.33285912      -0.07150553      -0.69397826
N       -1.14972594      -0.54726829       0.50431221
C        1.06763623       0.01598069       0.88173533
C        1.37133752       0.61831895      -0.31355031
N        1.05336146       1.28696771      -1.25122088
H       -1.24014405      -0.79612200      -1.51817463
H       -1.36924858      -1.53406110       0.56319921
H        0.94904142       0.72263802       1.69933485
H        1.69066113      -0.84067901       1.12053290
10
Frame=13 idx=003943 GeodesicLength=0.7597742779171233 rxn_smarts="[O:1]=[C:2]([N:3]([C:4]([C:5]#[N:6])([H:9])[H:10])[H:8])[H:7]>>[O:1](/[C:2](=[N:3]/[H:8])[H:7])[N:6]=[C:5]=[C:4]([H:9])[H:10]"
O       -1.05177196       1.15479848      -0.96603841
C       -1.34527447      -0.06556832      -0.68498946
N       -1.14688762      -0.56241409       0.50354197
C        1.05570864       0.01285254       0.87652984
C        1.38408599       0.60432940      -0.32275966
N        1.07576324       1.27611317      -1.26084827
H       -1.23711759      -0.77939204      -1.51701134
H       -1.36443482      -1.54960914       0.55245310
H        0.93717580       0.73595025       1.68041389
H        1.69275277      -0.82706025       1.13870834
10
Frame=14 idx=003943 GeodesicLength=0.8181305713583013 rxn_smarts="[O:1]=[C:2]([N:3]([C:4]([C:5]#[N:6])([H:9])[H:10])[H:8])[H:7]>>[O:1](/[C:2](=[N:3]/[H:8])[H:7])[N:6]=[C:5]=[C:4]([H:9])[H:10]"
O       -1.06369232       1.16340141      -0.93973235
C       -1.35741077      -0.05998458      -0.67585300
N       -1.14420491      -0.57718441       0.50269453
C        1.04396436       0.00969639       0.87101488
C        1.39665784       0.59082937      -0.33156759
N        1.09861112       1.26531103      -1.27044611
H       -1.23342695      -0.76277807      -1.51537502
H       -1.35975395      -1.56467135       0.54197203
H        0.92517498       0.74854627       1.66122486
H        1.69408061      -0.81316607       1.15606777
10
Frame=15 idx=003943 GeodesicLength=0.8765229240677229 rxn_smarts="[O:1]=[C:2]([N:3]([C:4]([C:5]#[N:6])([H:9])[H:10])[H:8])[H:7]>>[O:1](/[C:2](=[N:3]/[H:8])[H:7])[N:6]=[C:5]=[C:4]([H:9])[H:10]"
O       -1.07580808       1.17165282      -0.91299289
C       -1.36933947      -0.05465505      -0.66648953
N       -1.14158813      -0.59178848       0.50171461
C        1.03240343       0.00656841       0.86527101
C        1.40912468       0.57754374      -0.34005394
N        1.12200455       1.25426449      -1.28011568
H       -1.22948670      -0.74597725      -1.51336103
H       -1.35495633      -1.57950896       0.53143117
H        0.91292232       0.76072656       1.64161221
H        1.69472373      -0.79882630       1.17298408
10
Frame=16 idx=003943 GeodesicLength=0.9350019001357923 rxn_smarts="[O:1]=[C:2]([N:3]([C:4]([C:5]#[N:6])([H:9])[H:10])[H:8])[H:7]>>[O:1](/[C:2](=[N:3]/[H:8])[H:7])[N:6]=[C:5]=[C:4]([H:9])[H:10]"
O       -1.08812256       1.17963431      -0.88557998
C       -1.38111417      -0.04950455      -0.65682337
N       -1.13897646      -0.60636848       0.50056839
C        1.02101496       0.00349607       0.85933879
C        1.42154414       0.56430464      -0.34827891
N        1.14602573       1.24272578      -1.28995871
H       -1.22553289      -0.72877338      -1.51102788
H       -1.34986836      -1.59428932       0.52059547
H        0.90029929       0.77268403       1.62145796
H        1.69473032      -0.78390910       1.18970825
