13
Frame=0 idx=002854 GeodesicLength=0.0 rxn_smarts="[C:1]([C:2]([C@@:3]([O:4][H:13])([C:5]#[N:6])[H:12])([H:10])[H:11])([H:7])([H:8])[H:9]>>[C:1]([C:2]([C@@:3]1([H:12])[C:5]([O:4][H:13])=[N:6]1)([H:10])[H:11])([H:7])([H:8])[H:9]"
C        1.71510177       0.45194423      -0.27841357
C        0.57148567       0.22726136       0.73965753
C       -0.43622454      -0.60950691       0.07843760
O       -2.43762559      -0.16973597       0.52103756
C       -1.47893997      -0.07872008      -0.72701151
N       -1.63483366       0.28835255      -1.85192382
H        2.47151378       1.08729342       0.18136086
H        2.18437368      -0.48903843      -0.56760515
H        1.33214360       0.93856103      -1.17435017
H        0.13308361       1.18708040       1.01347120
H        0.96132609      -0.27000820       1.62895000
H       -0.30232781      -1.69048716       0.08028752
H       -3.07907660      -0.87299618       0.35610194
13
Frame=1 idx=002854 GeodesicLength=0.05297565896490755 rxn_smarts="[C:1]([C:2]([C@@:3]([O:4][H:13])([C:5]#[N:6])[H:12])([H:10])[H:11])([H:7])([H:8])[H:9]>>[C:1]([C:2]([C@@:3]1([H:12])[C:5]([O:4][H:13])=[N:6]1)([H:10])[H:11])([H:7])([H:8])[H:9]"
C        1.71563049       0.45098823      -0.27704146
C        0.56818215       0.23148170       0.73552354
C       -0.44819929      -0.60008631       0.07525723
O       -2.43127614      -0.18696928       0.54755665
C       -1.49151956      -0.05029809      -0.71609555
N       -1.60909979       0.25873140      -1.86125809
H        2.47469835       1.08270467       0.18343127
H        2.18066164      -0.49263265      -0.56496873
H        1.33764893       0.93868691      -1.17474968
H        0.13677585       1.19342295       1.01357432
H        0.95087737      -0.26962246       1.62596502
H       -0.30410518      -1.67955515       0.05424370
H       -3.08027481      -0.87685193       0.35856177
13
Frame=2 idx=002854 GeodesicLength=0.10613944589126512 rxn_smarts="[C:1]([C:2]([C@@:3]([O:4][H:13])([C:5]#[N:6])[H:12])([H:10])[H:11])([H:7])([H:8])[H:9]>>[C:1]([C:2]([C@@:3]1([H:12])[C:5]([O:4][H:13])=[N:6]1)([H:10])[H:11])([H:7])([H:8])[H:9]"
C        1.71617894       0.44976280      -0.27570122
C        0.56442880       0.23583249       0.73083010
C       -0.46002842      -0.59106222       0.07128910
O       -2.42385755      -0.20513938       0.57275770
C       -1.50430040      -0.02363718      -0.70644610
N       -1.58337359       0.23212244      -1.86671757
H        2.47762864       1.07801532       0.18565516
H        2.17721086      -0.49653857      -0.56173940
H        1.34378433       0.93824786      -1.17555607
H        0.13958586       1.19992078       1.01212955
H        0.93948962      -0.26844872       1.62291707
H       -0.30580152      -1.66852674       0.02883034
H       -3.08094556      -0.88054889       0.36175134
13
Frame=3 idx=002854 GeodesicLength=0.1595020472873644 rxn_smarts="[C:1]([C:2]([C@@:3]([O:4][H:13])([C:5]#[N:6])[H:12])([H:10])[H:11])([H:7])([H:8])[H:9]>>[C:1]([C:2]([C@@:3]1([H:12])[C:5]([O:4][H:13])=[N:6]1)([H:10])[H:11])([H:7])([H:8])[H:9]"
C        1.71674824       0.44821730      -0.27437559
C        0.56023283       0.24029803       0.72558448
C       -0.47158035      -0.58271490       0.06668279
O       -2.41541059      -0.22406599       0.59656331
C       -1.51719893       0.00049880      -0.69810490
N       -1.55799492       0.20978246      -1.86869877
H        2.48023317       1.07330774       0.18798688
H        2.17411560      -0.50080432      -0.55777574
H        1.35053104       0.93704776      -1.17681182
H        0.14136907       1.20657602       1.00893923
H        0.92722291      -0.26628397       1.61990662
H       -0.30713826      -1.65774373       0.00423781
H       -3.08112980      -0.88411521       0.36586570
13
Frame=4 idx=002854 GeodesicLength=0.2130074712991697 rxn_smarts="[C:1]([C:2]([C@@:3]([O:4][H:13])([C:5]#[N:6])[H:12])([H:10])[H:11])([H:7])([H:8])[H:9]>>[C:1]([C:2]([C@@:3]1([H:12])[C:5]([O:4][H:13])=[N:6]1)([H:10])[H:11])([H:7])([H:8])[H:9]"
C        1.71742955       0.44639479      -0.27306295
C        0.55569399       0.24484435       0.71990236
C       -0.48286411      -0.57513543       0.06159014
O       -2.40621919      -0.24352093       0.61901684
C       -1.53026528       0.02194284      -0.69102528
N       -1.53316788       0.19185302      -1.86798725
H        2.48267848       1.06864494       0.19042351
H        2.17146586      -0.50536159      -0.55317152
H        1.35787218       0.93513379      -1.17850089
H        0.14219875       1.21334568       1.00419507
H        0.91428441      -0.26314883       1.61706026
H       -0.30811843      -1.64735292      -0.01947671
H       -3.08098833      -0.88763972       0.37103640
13
Frame=5 idx=002854 GeodesicLength=0.26670476211812755 rxn_smarts="[C:1]([C:2]([C@@:3]([O:4][H:13])([C:5]#[N:6])[H:12])([H:10])[H:11])([H:7])([H:8])[H:9]>>[C:1]([C:2]([C@@:3]1([H:12])[C:5]([O:4][H:13])=[N:6]1)([H:10])[H:11])([H:7])([H:8])[H:9]"
C        1.71788561       0.44432108      -0.27166429
C        0.55082025       0.24937253       0.71380603
C       -0.49375644      -0.56829350       0.05613515
O       -2.39579865      -0.26320850       0.64016499
C       -1.54304364       0.04105541      -0.68484504
N       -1.50892485       0.17756815      -1.86519371
H        2.48449347       1.06403583       0.19295297
H        2.16882464      -0.51016207      -0.54790829
H        1.36538674       0.93258407      -1.18029551
H        0.14220595       1.22011472       0.99809233
H        0.90075702      -0.25930351       1.61410939
H       -0.30868559      -1.63738525      -0.04246627
H       -3.08016451      -0.89069898       0.37711224
13
Frame=6 idx=002854 GeodesicLength=0.32049919860623494 rxn_smarts="[C:1]([C:2]([C@@:3]([O:4][H:13])([C:5]#[N:6])[H:12])([H:10])[H:11])([H:7])([H:8])[H:9]>>[C:1]([C:2]([C@@:3]1([H:12])[C:5]([O:4][H:13])=[N:6]1)([H:10])[H:11])([H:7])([H:8])[H:9]"
C        1.71842354       0.44209087      -0.27026976
C        0.54575588       0.25387285       0.70748380
C       -0.50440680      -0.56216329       0.05044152
O       -2.38492493      -0.28295533       0.66012484
C       -1.55587862       0.05797750      -0.67970761
N       -1.48526273       0.16660900      -1.86092703
H        2.48620683       1.05949436       0.19559121
H        2.16652569      -0.51511879      -0.54232134
H        1.37323328       0.92965332      -1.18233703
H        0.14147333       1.22688204       0.99100590
H        0.88691173      -0.25484533       1.61135714
H       -0.30895833      -1.62788155      -0.06465234
H       -3.07909887      -0.89361566       0.38421070
13
Frame=7 idx=002854 GeodesicLength=0.374461666195086 rxn_smarts="[C:1]([C:2]([C@@:3]([O:4][H:13])([C:5]#[N:6])[H:12])([H:10])[H:11])([H:7])([H:8])[H:9]>>[C:1]([C:2]([C@@:3]1([H:12])[C:5]([O:4][H:13])=[N:6]1)([H:10])[H:11])([H:7])([H:8])[H:9]"
C        1.71894638       0.43971548      -0.26878089
C        0.54053916       0.25831854       0.70087347
C       -0.51480590      -0.55664185       0.04452043
O       -2.37341740      -0.30273257       0.67896671
C       -1.56863833       0.07300939      -0.67527919
N       -1.46227079       0.15842492      -1.85535575
H        2.48768407       1.05503769       0.19836070
H        2.16437676      -0.52013293      -0.53625999
H        1.38131695       0.92624031      -1.18440203
H        0.14020422       1.23351799       0.98293263
H        0.87274734      -0.24982005       1.60852088
H       -0.30901203      -1.61864796      -0.08628039
H       -3.07767046      -0.89628897       0.39218342
13
Frame=8 idx=002854 GeodesicLength=0.4284515820971905 rxn_smarts="[C:1]([C:2]([C@@:3]([O:4][H:13])([C:5]#[N:6])[H:12])([H:10])[H:11])([H:7])([H:8])[H:9]>>[C:1]([C:2]([C@@:3]1([H:12])[C:5]([O:4][H:13])=[N:6]1)([H:10])[H:11])([H:7])([H:8])[H:9]"
C        1.71944400       0.43723424      -0.26723263
C        0.53520080       0.26267665       0.69411817
C       -0.52496556      -0.55168601       0.03843986
O       -2.36137015      -0.32236890       0.69679670
C       -1.58129212       0.08644463      -0.67157706
N       -1.43994741       0.15253214      -1.84897063
H        2.48893805       1.05066464       0.20125817
H        2.16240067      -0.52522586      -0.52992230
H        1.38951223       0.92253054      -1.18652743
H        0.13838546       1.24006763       0.97420999
H        0.85840658      -0.24443294       1.60576042
H       -0.30882165      -1.60977592      -0.10735509
H       -3.07589090      -0.89866084       0.40100182
13
Frame=9 idx=002854 GeodesicLength=0.48252269732807795 rxn_smarts="[C:1]([C:2]([C@@:3]([O:4][H:13])([C:5]#[N:6])[H:12])([H:10])[H:11])([H:7])([H:8])[H:9]>>[C:1]([C:2]([C@@:3]1([H:12])[C:5]([O:4][H:13])=[N:6]1)([H:10])[H:11])([H:7])([H:8])[H:9]"
C        1.71992880       0.43465076      -0.26558968
C        0.52977299       0.26695738       0.68718772
C       -0.53491498      -0.54722937       0.03220642
O       -2.34882108      -0.34191209       0.71368423
C       -1.59385010       0.09844068      -0.66844760
N       -1.41831636       0.14874677      -1.84181274
H        2.48998995       1.04640053       0.20427842
H        2.16055398      -0.53036702      -0.52320715
H        1.39785594       0.91844242      -1.18865170
H        0.13615970       1.24649816       0.96480481
H        0.84386384      -0.23866997       1.60296710
H       -0.30846449      -1.60114557      -0.12802377
H       -3.07375819      -0.90081270       0.41060394
13
Frame=10 idx=002854 GeodesicLength=0.5367045297380809 rxn_smarts="[C:1]([C:2]([C@@:3]([O:4][H:13])([C:5]#[N:6])[H:12])([H:10])[H:11])([H:7])([H:8])[H:9]>>[C:1]([C:2]([C@@:3]1([H:12])[C:5]([O:4][H:13])=[N:6]1)([H:10])[H:11])([H:7])([H:8])[H:9]"
C        1.72042451       0.43195361      -0.26385984
C        0.52427261       0.27119173       0.68013063
C       -0.54467405      -0.54320531       0.02581908
O       -2.33584105      -0.36138666       0.72974619
C       -1.60635317       0.10919980      -0.66588106
N       -1.39738938       0.14692157      -1.83402600
H        2.49087223       1.04223757       0.20740818
H        2.15886139      -0.53561801      -0.51611724
H        1.40636140       0.91396491      -1.19081336
H        0.13356721       1.25290752       0.95480828
H        0.82912865      -0.23256307       1.60022200
H       -0.30795553      -1.59274164      -0.14840233
H       -3.07127482      -0.90286201       0.42096547
13
Frame=11 idx=002854 GeodesicLength=0.5908780797926139 rxn_smarts="[C:1]([C:2]([C@@:3]([O:4][H:13])([C:5]#[N:6])[H:12])([H:10])[H:11])([H:7])([H:8])[H:9]>>[C:1]([C:2]([C@@:3]1([H:12])[C:5]([O:4][H:13])=[N:6]1)([H:10])[H:11])([H:7])([H:8])[H:9]"
C        1.72092359       0.42916543      -0.26200986
C        0.51870700       0.27534083       0.67295439
C       -0.55425468      -0.53957124       0.01928130
O       -2.32236459      -0.38075396       0.74501853
C       -1.61881164       0.11889383      -0.66371488
N       -1.37723886       0.14666654      -1.82580535
H        2.49157958       1.03818037       0.21069051
H        2.15732344      -0.54091306      -0.50863714
H        1.41497367       0.90911339      -1.19296685
H        0.13061309       1.25919628       0.94429462
H        0.81423996      -0.22618405       1.59746197
H       -0.30727579      -1.58447371      -0.16860779
H       -3.06841477      -0.90466066       0.43204054
13
Frame=12 idx=002854 GeodesicLength=0.6452265379687921 rxn_smarts="[C:1]([C:2]([C@@:3]([O:4][H:13])([C:5]#[N:6])[H:12])([H:10])[H:11])([H:7])([H:8])[H:9]>>[C:1]([C:2]([C@@:3]1([H:12])[C:5]([O:4][H:13])=[N:6]1)([H:10])[H:11])([H:7])([H:8])[H:9]"
C        1.72137467       0.42628264      -0.26005620
C        0.51309673       0.27941824       0.66566115
C       -0.56365092      -0.53629074       0.01262944
O       -2.30846895      -0.39998433       0.75952293
C       -1.63114322       0.12759674      -0.66201218
N       -1.35772794       0.14795030      -1.81703787
H        2.49206129       1.03420721       0.21406301
H        2.15583535      -0.54628093      -0.50080911
H        1.42364429       0.90391650      -1.19505428
H        0.12738754       1.26541343       0.93327431
H        0.79919890      -0.21956075       1.59465145
H       -0.30647276      -1.57634606      -0.18858458
H       -3.06513498      -0.90632224       0.44375191
13
Frame=13 idx=002854 GeodesicLength=0.6996042166807757 rxn_smarts="[C:1]([C:2]([C@@:3]([O:4][H:13])([C:5]#[N:6])[H:12])([H:10])[H:11])([H:7])([H:8])[H:9]>>[C:1]([C:2]([C@@:3]1([H:12])[C:5]([O:4][H:13])=[N:6]1)([H:10])[H:11])([H:7])([H:8])[H:9]"
C        1.72184280       0.42333704      -0.25798701
C        0.50747091       0.28341355       0.65829215
C       -0.57290528      -0.53333925       0.00585547
O       -2.29419740      -0.41910010       0.77332793
C       -1.64342906       0.13542038      -0.66067997
N       -1.33894576       0.15049104      -1.80793637
H        2.49241944       1.03036780       0.21756398
H        2.15447011      -0.55166965      -0.49263554
H        1.43240660       0.89837611      -1.19710844
H        0.12392651       1.27151863       0.92185917
H        0.78405544      -0.21272577       1.59182611
H       -0.30558083      -1.56830997      -0.20846132
H       -3.06153350      -0.90777981       0.45608384
13
Frame=14 idx=002854 GeodesicLength=0.7540411780756865 rxn_smarts="[C:1]([C:2]([C@@:3]([O:4][H:13])([C:5]#[N:6])[H:12])([H:10])[H:11])([H:7])([H:8])[H:9]>>[C:1]([C:2]([C@@:3]1([H:12])[C:5]([O:4][H:13])=[N:6]1)([H:10])[H:11])([H:7])([H:8])[H:9]"
C        1.72230683       0.42032401      -0.25580033
C        0.50182857       0.28732397       0.65084892
C       -0.58201405      -0.53068672      -0.00103645
O       -2.27954460      -0.43809884       0.78645906
C       -1.65564713       0.14244730      -0.65969951
N       -1.32086627       0.15421008      -1.79850312
H        2.49262122       1.02665540       0.22117442
H        2.15320491      -0.55709083      -0.48410397
H        1.44123036       0.89248749      -1.19911150
H        0.12024245       1.27751760       0.91006012
H        0.76880099      -0.20571119       1.58896616
H       -0.30459466      -1.56034017      -0.22826175
H       -3.05756862      -0.90903809       0.46900795
13
Frame=15 idx=002854 GeodesicLength=0.8085447656271082 rxn_smarts="[C:1]([C:2]([C@@:3]([O:4][H:13])([C:5]#[N:6])[H:12])([H:10])[H:11])([H:7])([H:8])[H:9]>>[C:1]([C:2]([C@@:3]1([H:12])[C:5]([O:4][H:13])=[N:6]1)([H:10])[H:11])([H:7])([H:8])[H:9]"
C        1.72275977       0.41725325      -0.25349492
C        0.49618127       0.29114308       0.64334535
C       -0.59098497      -0.52831265      -0.00803903
O       -2.26452482      -0.45697936       0.79893917
C       -1.66779128       0.14874675      -0.65905007
N       -1.30346918       0.15897205      -1.78877164
H        2.49266644       1.02307750       0.22488738
H        2.15202263      -0.56253082      -0.47522910
H        1.45009052       0.88626451      -1.20104798
H        0.11636397       1.28339946       0.89792074
H        0.75345453      -0.19854926       1.58606243
H       -0.30352847      -1.55241503      -0.24801035
H       -3.05324042      -0.91006949       0.48248801
13
Frame=16 idx=002854 GeodesicLength=0.8631154886346651 rxn_smarts="[C:1]([C:2]([C@@:3]([O:4][H:13])([C:5]#[N:6])[H:12])([H:10])[H:11])([H:7])([H:8])[H:9]>>[C:1]([C:2]([C@@:3]1([H:12])[C:5]([O:4][H:13])=[N:6]1)([H:10])[H:11])([H:7])([H:8])[H:9]"
C        1.72319611       0.41413499      -0.25107026
C        0.49053856       0.29486299       0.63579450
C       -0.59982441      -0.52620075      -0.01514590
O       -2.24915179      -0.47574253       0.81078643
C       -1.67985510       0.15437745      -0.65871384
N       -1.28673616       0.16465350      -1.77877244
H        2.49255570       1.01964274       0.22869565
H        2.15091125      -0.56797451      -0.46602534
H        1.45896326       0.87972255      -1.20290466
H        0.11231300       1.28915041       0.88548137
H        0.73803325      -0.19127245       1.58310676
H       -0.30239214      -1.54451635      -0.26772592
H       -3.04855154      -0.91083804       0.49649364
