15
Frame=0 idx=009333 GeodesicLength=0.0 rxn_smarts="[C:1]([n:2]1[c:3]([H:11])[c:4]([C:5]([H:12])([H:13])[H:14])[c:6]([H:15])[n:7]1)([H:8])([H:9])[H:10]>>[C:1]([N-:2][N+:7]#[C:6][H:15])([H:8])([H:9])[H:10].[C:3](#[C:4][C:5]([H:12])([H:13])[H:14])[H:11]"
C       -2.64315655       0.03240292      -0.33382059
N       -1.53692104      -0.08528661       0.60724939
C        0.26574518      -1.34736494      -0.14947648
C        1.23552671      -0.61133992      -0.05797366
C        2.64315773      -0.19067293      -0.14274486
C        0.28806065       1.34533679       0.67343563
N       -0.84386535       0.93691974       0.73235461
H       -2.33344049       0.50935045      -1.26919838
H       -3.46737479       0.60139133       0.10357259
H       -2.99950706      -0.97462983      -0.54361924
H       -0.39045854      -2.17204238      -0.29585663
H        2.75920187       0.61867449      -0.86480264
H        3.27558724      -1.02376960      -0.45373863
H        3.00583455       0.17296939       0.81986089
H        0.74160990       2.18806107       1.17475801
15
Frame=1 idx=009333 GeodesicLength=0.07123172370379 rxn_smarts="[C:1]([n:2]1[c:3]([H:11])[c:4]([C:5]([H:12])([H:13])[H:14])[c:6]([H:15])[n:7]1)([H:8])([H:9])[H:10]>>[C:1]([N-:2][N+:7]#[C:6][H:15])([H:8])([H:9])[H:10].[C:3](#[C:4][C:5]([H:12])([H:13])[H:14])[H:11]"
C       -2.65294043       0.04607643      -0.36370376
N       -1.53368790      -0.08212050       0.55894590
C        0.27825527      -1.36074454      -0.06805609
C        1.23989597      -0.60516439      -0.00501344
C        2.64391698      -0.19139680      -0.16148142
C        0.28677187       1.33478302       0.71812752
N       -0.85703624       0.94871982       0.71717077
H       -2.37161051       0.57270785      -1.28094173
H       -3.48507517       0.57195523       0.11097450
H       -2.98570945      -0.96002297      -0.61324215
H       -0.34689363      -2.20872721      -0.22214029
H        2.72797559       0.60744653      -0.89962112
H        3.25977678      -1.03013291      -0.48992246
H        3.05070757       0.18320744       0.77904959
H        0.74565330       2.17341298       1.21985417
15
Frame=2 idx=009333 GeodesicLength=0.1409325199752439 rxn_smarts="[C:1]([n:2]1[c:3]([H:11])[c:4]([C:5]([H:12])([H:13])[H:14])[c:6]([H:15])[n:7]1)([H:8])([H:9])[H:10]>>[C:1]([N-:2][N+:7]#[C:6][H:15])([H:8])([H:9])[H:10].[C:3](#[C:4][C:5]([H:12])([H:13])[H:14])[H:11]"
C       -2.66267197       0.05915900      -0.39111889
N       -1.52502692      -0.07939808       0.50564793
C        0.29130839      -1.37139001       0.01038972
C        1.24567063      -0.59885112       0.04724223
C        2.64356552      -0.19381737      -0.17694816
C        0.28456223       1.32528036       0.75904138
N       -0.86700490       0.95972676       0.69930342
H       -2.41733171       0.63904330      -1.28600294
H       -3.50006605       0.53449187       0.12558953
H       -2.97032082      -0.94324380      -0.68421487
H       -0.30285663      -2.23951101      -0.15644121
H        2.69747967       0.59295261      -0.93083772
H        3.24275837      -1.03928336      -0.51856448
H        3.09085191       0.19262498       0.74012528
H        0.74908229       2.16221588       1.25678877
15
Frame=3 idx=009333 GeodesicLength=0.20632621152420613 rxn_smarts="[C:1]([n:2]1[c:3]([H:11])[c:4]([C:5]([H:12])([H:13])[H:14])[c:6]([H:15])[n:7]1)([H:8])([H:9])[H:10]>>[C:1]([N-:2][N+:7]#[C:6][H:15])([H:8])([H:9])[H:10].[C:3](#[C:4][C:5]([H:12])([H:13])[H:14])[H:11]"
C       -2.66779361       0.07042659      -0.42023878
N       -1.51198775      -0.07455664       0.45038308
C        0.30213962      -1.37847955       0.08737277
C        1.25079522      -0.59205006       0.09978073
C        2.63885590      -0.19606230      -0.19406011
C        0.28184770       1.31557137       0.80448979
N       -0.87396895       0.97216049       0.67962973
H       -2.45824826       0.69752812      -1.29178969
H       -3.50753551       0.49671098       0.13396402
H       -2.95293409      -0.92627420      -0.75300076
H       -0.26157563      -2.26681213      -0.08248516
H        2.66027151       0.58163039      -0.95903163
H        3.21937670      -1.04725226      -0.55310628
H        3.12819889       0.19816593       0.69788937
H        0.75255825       2.14929327       1.30020293
15
Frame=4 idx=009333 GeodesicLength=0.2703099805914952 rxn_smarts="[C:1]([n:2]1[c:3]([H:11])[c:4]([C:5]([H:12])([H:13])[H:14])[c:6]([H:15])[n:7]1)([H:8])([H:9])[H:10]>>[C:1]([N-:2][N+:7]#[C:6][H:15])([H:8])([H:9])[H:10].[C:3](#[C:4][C:5]([H:12])([H:13])[H:14])[H:11]"
C       -2.67292222       0.08111255      -0.44632637
N       -1.49356701      -0.06960301       0.38951063
C        0.31172865      -1.38203556       0.15419689
C        1.25676790      -0.58498795       0.15038200
C        2.63360653      -0.20003995      -0.20675612
C        0.27779130       1.30610426       0.84708855
N       -0.87815408       0.98344307       0.65902060
H       -2.50826690       0.76063429      -1.28740261
H       -3.51150960       0.44750963       0.15064543
H       -2.93333956      -0.90583309      -0.82533424
H       -0.22109319      -2.29036627      -0.01312590
H        2.62603147       0.56828842      -0.98150050
H        3.19556526      -1.05768655      -0.57956532
H        3.16054933       0.20113148       0.66033355
H        0.75681213       2.14232866       1.32883342
15
Frame=5 idx=009333 GeodesicLength=0.33172346829119875 rxn_smarts="[C:1]([n:2]1[c:3]([H:11])[c:4]([C:5]([H:12])([H:13])[H:14])[c:6]([H:15])[n:7]1)([H:8])([H:9])[H:10]>>[C:1]([N-:2][N+:7]#[C:6][H:15])([H:8])([H:9])[H:10].[C:3](#[C:4][C:5]([H:12])([H:13])[H:14])[H:11]"
C       -2.67590920       0.08963199      -0.47079372
N       -1.47010979      -0.06242194       0.32455917
C        0.31882063      -1.38274556       0.21359680
C        1.26273448      -0.57817832       0.20105262
C        2.62619366      -0.20428224      -0.21644735
C        0.27262136       1.29580097       0.89184630
N       -0.87902255       0.99563746       0.63542192
H       -2.56012492       0.81709555      -1.27899296
H       -3.50781051       0.39505394       0.16820695
H       -2.91481210      -0.88492355      -0.89357596
H       -0.18456755      -2.30946595       0.05242378
H        2.59046257       0.55917072      -0.99533831
H        3.16804404      -1.06699003      -0.60678279
H        3.18990893       0.19823990       0.62656380
H        0.76357095       2.13837705       1.34825974
15
Frame=6 idx=009333 GeodesicLength=0.3921466957508134 rxn_smarts="[C:1]([n:2]1[c:3]([H:11])[c:4]([C:5]([H:12])([H:13])[H:14])[c:6]([H:15])[n:7]1)([H:8])([H:9])[H:10]>>[C:1]([N-:2][N+:7]#[C:6][H:15])([H:8])([H:9])[H:10].[C:3](#[C:4][C:5]([H:12])([H:13])[H:14])[H:11]"
C       -2.67804118       0.09669927      -0.49285369
N       -1.44109727      -0.05200745       0.25224507
C        0.32329844      -1.38072645       0.26561690
C        1.26840978      -0.57120588       0.25067406
C        2.61774067      -0.20933749      -0.22197910
C        0.26560267       1.28595838       0.93538912
N       -0.87697252       1.00885761       0.60888299
H       -2.62060208       0.87363056      -1.25996745
H       -3.49701883       0.33085841       0.19120176
H       -2.89514293      -0.86067778      -0.96395024
H       -0.15196236      -2.32435420       0.11370688
H        2.55690313       0.55049482      -1.00299008
H        3.13916233      -1.07706513      -0.62855985
H        3.21528358       0.19238270       0.59781917
H        0.77443657       2.13649264       1.35476447
15
Frame=7 idx=009333 GeodesicLength=0.4497538638369391 rxn_smarts="[C:1]([n:2]1[c:3]([H:11])[c:4]([C:5]([H:12])([H:13])[H:14])[c:6]([H:15])[n:7]1)([H:8])([H:9])[H:10]>>[C:1]([N-:2][N+:7]#[C:6][H:15])([H:8])([H:9])[H:10].[C:3](#[C:4][C:5]([H:12])([H:13])[H:14])[H:11]"
C       -2.67602115       0.10019466      -0.51298992
N       -1.40900968      -0.03716073       0.18068046
C        0.32290367      -1.37514537       0.30907773
C        1.27151930      -0.56317165       0.29674720
C        2.60624194      -0.21325141      -0.22581879
C        0.25634381       1.27699296       0.97953901
N       -0.87212239       1.02499179       0.58082704
H       -2.67584647       0.91646045      -1.24014593
H       -3.47700841       0.26850753       0.21044622
H       -2.87606446      -0.83981277      -1.02492946
H       -0.12670850      -2.33401824       0.17133157
H        2.52331023       0.54777800      -1.00378804
H        3.10573961      -1.08452712      -0.65179088
H        3.23609007       0.18174154       0.57285530
H        0.79063242       2.13042036       1.35795852
15
Frame=8 idx=009333 GeodesicLength=0.5073055019026522 rxn_smarts="[C:1]([n:2]1[c:3]([H:11])[c:4]([C:5]([H:12])([H:13])[H:14])[c:6]([H:15])[n:7]1)([H:8])([H:9])[H:10]>>[C:1]([N-:2][N+:7]#[C:6][H:15])([H:8])([H:9])[H:10].[C:3](#[C:4][C:5]([H:12])([H:13])[H:14])[H:11]"
C       -2.67323495       0.10111435      -0.52992645
N       -1.37181171      -0.01429339       0.09955897
C        0.31814360      -1.36347599       0.34305302
C        1.27277375      -0.55193036       0.33698031
C        2.59585100      -0.21944234      -0.22695248
C        0.24612016       1.27469286       1.01114678
N       -0.86510215       1.04672421       0.54611413
H       -2.74408658       0.95607368      -1.20711375
H       -3.44675027       0.19018736       0.23608874
H       -2.85507978      -0.81655826      -1.08706632
H       -0.10791359      -2.33646633       0.22739645
H        2.49843954       0.54050356      -1.00438081
H        3.07351474      -1.09673757      -0.66526321
H        3.25308230       0.16911084       0.55254125
H        0.80605393       2.12049736       1.36782338
15
Frame=9 idx=009333 GeodesicLength=0.5654138099285555 rxn_smarts="[C:1]([n:2]1[c:3]([H:11])[c:4]([C:5]([H:12])([H:13])[H:14])[c:6]([H:15])[n:7]1)([H:8])([H:9])[H:10]>>[C:1]([N-:2][N+:7]#[C:6][H:15])([H:8])([H:9])[H:10].[C:3](#[C:4][C:5]([H:12])([H:13])[H:14])[H:11]"
C       -2.66577438       0.09795408      -0.54472181
N       -1.33227386       0.01539775       0.01798874
C        0.30761723      -1.34713712       0.36796811
C        1.27065079      -0.53879796       0.37225041
C        2.58355177      -0.22577379      -0.22746833
C        0.23438861       1.27567619       1.03864725
N       -0.85537629       1.07405268       0.50737505
H       -2.80939041       0.98185213      -1.17105494
H       -3.40456607       0.11053178       0.25953504
H       -2.83282592      -0.79737513      -1.14138104
H       -0.09832056      -2.33229528       0.28218306
H        2.47646871       0.53672105      -1.00125418
H        3.03739321      -1.10858600      -0.67966335
H        3.26667690       0.15078672       0.53548089
H        0.82178027       2.10699289       1.38411509
15
Frame=10 idx=009333 GeodesicLength=0.6259358230912033 rxn_smarts="[C:1]([n:2]1[c:3]([H:11])[c:4]([C:5]([H:12])([H:13])[H:14])[c:6]([H:15])[n:7]1)([H:8])([H:9])[H:10]>>[C:1]([N-:2][N+:7]#[C:6][H:15])([H:8])([H:9])[H:10].[C:3](#[C:4][C:5]([H:12])([H:13])[H:14])[H:11]"
C       -2.65344762       0.09108683      -0.55697890
N       -1.29156675       0.05227360      -0.06279029
C        0.29120425      -1.32561904       0.38458334
C        1.26447304      -0.52281625       0.40130302
C        2.57011639      -0.23364735      -0.22747059
C        0.22172114       1.28143947       1.06010022
N       -0.84549298       1.10629089       0.46975952
H       -2.87429671       0.99758836      -1.12561726
H       -3.35043701       0.02220892       0.28086448
H       -2.80568244      -0.77862225      -1.19404108
H       -0.09807707      -2.32044932       0.33419786
H        2.45986650       0.53178118      -0.99805107
H        2.99905390      -1.12305539      -0.69082193
H        3.27639614       0.12804646       0.52148293
H        0.83616923       2.09349388       1.40347975
15
Frame=11 idx=009333 GeodesicLength=0.6905458473609888 rxn_smarts="[C:1]([n:2]1[c:3]([H:11])[c:4]([C:5]([H:12])([H:13])[H:14])[c:6]([H:15])[n:7]1)([H:8])([H:9])[H:10]>>[C:1]([N-:2][N+:7]#[C:6][H:15])([H:8])([H:9])[H:10].[C:3](#[C:4][C:5]([H:12])([H:13])[H:14])[H:11]"
C       -2.63554578       0.08080893      -0.56753764
N       -1.25166247       0.09388476      -0.13824953
C        0.26977708      -1.30047367       0.39401928
C        1.25446605      -0.50497107       0.42483726
C        2.55471807      -0.24193748      -0.22801677
C        0.20806662       1.28994375       1.07839114
N       -0.83573008       1.14191664       0.43461954
H       -2.93202876       1.00117001      -1.07602477
H       -3.28582757      -0.06702507       0.29706877
H       -2.77468846      -0.76211900      -1.24232290
H       -0.10649962      -2.30208272       0.38538576
H        2.44604211       0.52867545      -0.99379668
H        2.95720708      -1.13751396      -0.70299482
H        3.28252111       0.10046890       0.50933938
H        0.84918460       2.07925454       1.42528197
15
Frame=12 idx=009333 GeodesicLength=0.7615830103764409 rxn_smarts="[C:1]([n:2]1[c:3]([H:11])[c:4]([C:5]([H:12])([H:13])[H:14])[c:6]([H:15])[n:7]1)([H:8])([H:9])[H:10]>>[C:1]([N-:2][N+:7]#[C:6][H:15])([H:8])([H:9])[H:10].[C:3](#[C:4][C:5]([H:12])([H:13])[H:14])[H:11]"
C       -2.61215815       0.06791007      -0.57641461
N       -1.21281125       0.14071360      -0.20850253
C        0.24377832      -1.27168687       0.39672987
C        1.24078166      -0.48500220       0.44274546
C        2.53752232      -0.25117452      -0.22974391
C        0.19354572       1.30090999       1.09483484
N       -0.82673268       1.18109085       0.40315537
H       -2.98369218       0.99284519      -1.02323256
H       -3.21107702      -0.15693019       0.30831568
H       -2.73911945      -0.74725276      -1.28664191
H       -0.12226458      -2.27696739       0.43511812
H        2.43494758       0.52420255      -0.99167222
H        2.91318763      -1.15336454      -0.71399011
H        3.28456996       0.07019036       0.49776930
H        0.85952213       2.06451586       1.45152923
15
Frame=13 idx=009333 GeodesicLength=0.8388052822314819 rxn_smarts="[C:1]([n:2]1[c:3]([H:11])[c:4]([C:5]([H:12])([H:13])[H:14])[c:6]([H:15])[n:7]1)([H:8])([H:9])[H:10]>>[C:1]([N-:2][N+:7]#[C:6][H:15])([H:8])([H:9])[H:10].[C:3](#[C:4][C:5]([H:12])([H:13])[H:14])[H:11]"
C       -2.58491994       0.05266730      -0.58388759
N       -1.17693794       0.18977516      -0.27206239
C        0.21476643      -1.24066284       0.39326385
C        1.22422165      -0.46349072       0.45509840
C        2.51958381      -0.26085830      -0.23177270
C        0.17849102       1.31368418       1.10829202
N       -0.81959829       1.22161554       0.37548603
H       -3.02845413       0.97457241      -0.96627255
H       -3.12833350      -0.24636720       0.31447244
H       -2.70171817      -0.73291704      -1.32819650
H       -0.14427918      -2.24565970       0.48494563
H        2.42806503       0.52160275      -0.98798946
H        2.86707212      -1.16862818      -0.72643261
H        3.28378417       0.03460657       0.48888290
H        0.86825691       2.05006007       1.47617255
15
Frame=14 idx=009333 GeodesicLength=0.9221291264669773 rxn_smarts="[C:1]([n:2]1[c:3]([H:11])[c:4]([C:5]([H:12])([H:13])[H:14])[c:6]([H:15])[n:7]1)([H:8])([H:9])[H:10]>>[C:1]([N-:2][N+:7]#[C:6][H:15])([H:8])([H:9])[H:10].[C:3](#[C:4][C:5]([H:12])([H:13])[H:14])[H:11]"
C       -2.55244279       0.03702338      -0.59214297
N       -1.14344746       0.23945456      -0.32431676
C        0.18432341      -1.20879391       0.39031551
C        1.20601865      -0.44098910       0.46521314
C        2.49850049      -0.27059647      -0.23738857
C        0.16304222       1.32624617       1.12516704
N       -0.81507214       1.26155379       0.35782371
H       -3.06108773       0.94813209      -0.91408772
H       -3.04287420      -0.32970309       0.31146272
H       -2.65833819      -0.71929154      -1.36758033
H       -0.16849844      -2.21035498       0.53577642
H        2.41703105       0.51513367      -0.99150984
H        2.81881560      -1.18491379      -0.73825046
H        3.27915216       0.00243596       0.47445259
H        0.87487739       2.03466327       1.50506551
15
Frame=15 idx=009333 GeodesicLength=1.0129765757724043 rxn_smarts="[C:1]([n:2]1[c:3]([H:11])[c:4]([C:5]([H:12])([H:13])[H:14])[c:6]([H:15])[n:7]1)([H:8])([H:9])[H:10]>>[C:1]([N-:2][N+:7]#[C:6][H:15])([H:8])([H:9])[H:10].[C:3](#[C:4][C:5]([H:12])([H:13])[H:14])[H:11]"
C       -2.51696292       0.02012220      -0.59979954
N       -1.11241825       0.28984270      -0.37121211
C        0.15247753      -1.17586059       0.38424225
C        1.18631092      -0.41762672       0.47196564
C        2.47657234      -0.28066059      -0.24358344
C        0.14707623       1.33945900       1.14060857
N       -0.81212553       1.30173989       0.34290066
H       -3.08759584       0.91393937      -0.85986063
H       -2.95108262      -0.41094974       0.30407975
H       -2.61416156      -0.70535565      -1.40509578
H       -0.19657792      -2.16941676       0.58754908
H        2.40802760       0.50962431      -0.99436933
H        2.76862504      -1.20043132      -0.75162219
H        3.27225312      -0.03339463       0.46100382
H        0.87958185       2.01896854       1.53319325
15
Frame=16 idx=009333 GeodesicLength=1.1100690003056526 rxn_smarts="[C:1]([n:2]1[c:3]([H:11])[c:4]([C:5]([H:12])([H:13])[H:14])[c:6]([H:15])[n:7]1)([H:8])([H:9])[H:10]>>[C:1]([N-:2][N+:7]#[C:6][H:15])([H:8])([H:9])[H:10].[C:3](#[C:4][C:5]([H:12])([H:13])[H:14])[H:11]"
C       -2.47856807       0.00321318      -0.60778663
N       -1.08382349       0.33951603      -0.40999292
C        0.12045039      -1.14287223       0.37831340
C        1.16604646      -0.39372351       0.47680632
C        2.45302689      -0.29071309      -0.25188465
C        0.13081616       1.35200053       1.15771729
N       -0.81145018       1.34061643       0.33428526
H       -3.10522954       0.87376772      -0.81082324
H       -2.85808095      -0.48485471       0.29153958
H       -2.56742038      -0.69274968      -1.43948928
H       -0.22525248      -2.12486897       0.63950408
H        2.39720246       0.50249739      -1.00078247
H        2.71710959      -1.21589673      -0.76533459
H        3.26292167      -0.06824446       0.44474491
H        0.88225149       2.00231210       1.56318295
