10
Frame=0 idx=004061 GeodesicLength=0.0 rxn_smarts="[N:1]([c:2]1[c:3]([H:9])[n:4][c:5]([H:10])[o:6]1)([H:7])[H:8]>>[N:1]([C:2](=[C:3]([N+:4]#[C:5][H:10])[H:9])[O-:6])([H:7])[H:8]"
N        1.80689194      -0.18857946       0.22952162
C        0.46877385      -0.27142622       0.01587371
C       -0.34956083       0.92395563       0.16936704
N       -1.58554506       0.64939636      -0.12913843
C       -2.10729046      -0.34990375      -0.59537294
O       -0.08276297      -1.32750371      -0.30089635
H        2.36565965      -0.99114855       0.00478372
H        2.25834068       0.70448608       0.28770816
H       -0.01663204       1.91631449       0.42733369
H       -2.75787476      -1.06559086      -0.10918021
10
Frame=1 idx=004061 GeodesicLength=0.030369673662086236 rxn_smarts="[N:1]([c:2]1[c:3]([H:9])[n:4][c:5]([H:10])[o:6]1)([H:7])[H:8]>>[N:1]([C:2](=[C:3]([N+:4]#[C:5][H:10])[H:9])[O-:6])([H:7])[H:8]"
N        1.80836303      -0.19056429       0.23647858
C        0.46804711      -0.26993129       0.03139746
C       -0.35037272       0.92323238       0.17651641
N       -1.58728375       0.64900401      -0.12857016
C       -2.09633072      -0.35889827      -0.59345144
O       -0.08681906      -1.32098024      -0.30726837
H        2.36374931      -0.99068398      -0.00537953
H        2.26045665       0.70284138       0.28595744
H       -0.01672490       1.91961857       0.41754109
H       -2.76308494      -1.06363827      -0.11322147
10
Frame=2 idx=004061 GeodesicLength=0.060719980422142744 rxn_smarts="[N:1]([c:2]1[c:3]([H:9])[n:4][c:5]([H:10])[o:6]1)([H:7])[H:8]>>[N:1]([C:2](=[C:3]([N+:4]#[C:5][H:10])[H:9])[O-:6])([H:7])[H:8]"
N        1.80989333      -0.19230376       0.24235606
C        0.46764434      -0.26823729       0.04543448
C       -0.35116870       0.92233953       0.18356207
N       -1.58858216       0.64874374      -0.12952934
C       -2.08507132      -0.36801495      -0.59170293
O       -0.09113458      -1.31526468      -0.30991092
H        2.36171807      -0.98984729      -0.01610196
H        2.26237137       0.70142376       0.28389314
H       -0.01715567       1.92207945       0.40995513
H       -2.76851468      -1.06091851      -0.11795574
10
Frame=3 idx=004061 GeodesicLength=0.0910835925192563 rxn_smarts="[N:1]([c:2]1[c:3]([H:9])[n:4][c:5]([H:10])[o:6]1)([H:7])[H:8]>>[N:1]([C:2](=[C:3]([N+:4]#[C:5][H:10])[H:9])[O-:6])([H:7])[H:8]"
N        1.81126733      -0.19424560       0.24855954
C        0.46753822      -0.26587939       0.05602466
C       -0.35173088       0.92184610       0.18893936
N       -1.59027159       0.64834523      -0.12930464
C       -2.07484111      -0.37694627      -0.58836048
O       -0.09507701      -1.30877288      -0.31573099
H        2.35959313      -0.98945426      -0.02457801
H        2.26441280       0.69953205       0.28403742
H       -0.01747348       1.92456646       0.40152043
H       -2.77341743      -1.05899145      -0.12110729
10
Frame=4 idx=004061 GeodesicLength=0.12144364690599205 rxn_smarts="[N:1]([c:2]1[c:3]([H:9])[n:4][c:5]([H:10])[o:6]1)([H:7])[H:8]>>[N:1]([C:2](=[C:3]([N+:4]#[C:5][H:10])[H:9])[O-:6])([H:7])[H:8]"
N        1.81274533      -0.19605997       0.25420265
C        0.46760607      -0.26334684       0.06565484
C       -0.35226316       0.92132421       0.19425271
N       -1.59188075       0.64794127      -0.12936868
C       -2.06470988      -0.38579167      -0.58484263
O       -0.09909352      -1.30262180      -0.32004896
H        2.35748518      -0.98899881      -0.03283126
H        2.26650286       0.69774413       0.28391091
H       -0.01791688       1.92669839       0.39393699
H       -2.77847526      -1.05688890      -0.12486658
10
Frame=5 idx=004061 GeodesicLength=0.1517818217965446 rxn_smarts="[N:1]([c:2]1[c:3]([H:9])[n:4][c:5]([H:10])[o:6]1)([H:7])[H:8]>>[N:1]([C:2](=[C:3]([N+:4]#[C:5][H:10])[H:9])[O-:6])([H:7])[H:8]"
N        1.81429463      -0.19781894       0.25947171
C        0.46779923      -0.26070925       0.07453812
C       -0.35275382       0.92079316       0.19942035
N       -1.59345515       0.64750898      -0.12950176
C       -2.05475270      -0.39453636      -0.58099543
O       -0.10312968      -1.29669609      -0.32350956
H        2.35539047      -0.98844109      -0.04098569
H        2.26862311       0.69598919       0.28393565
H       -0.01840607       1.92861604       0.38668396
H       -2.78361003      -1.05470565      -0.12905736
10
Frame=6 idx=004061 GeodesicLength=0.18220166436014815 rxn_smarts="[N:1]([c:2]1[c:3]([H:9])[n:4][c:5]([H:10])[o:6]1)([H:7])[H:8]>>[N:1]([C:2](=[C:3]([N+:4]#[C:5][H:10])[H:9])[O-:6])([H:7])[H:8]"
N        1.81601895      -0.19940441       0.26414242
C        0.46815880      -0.25798167       0.08338928
C       -0.35321732       0.92019929       0.20502262
N       -1.59492964       0.64698659      -0.12964014
C       -2.04473205      -0.40315397      -0.57717579
O       -0.10730478      -1.29128566      -0.32479452
H        2.35327594      -0.98773688      -0.04941557
H        2.27079712       0.69443153       0.28315120
H       -0.01895333       1.93024785       0.38000849
H       -2.78911369      -1.05230267      -0.13468799
10
Frame=7 idx=004061 GeodesicLength=0.21254981299798503 rxn_smarts="[N:1]([c:2]1[c:3]([H:9])[n:4][c:5]([H:10])[o:6]1)([H:7])[H:8]>>[N:1]([C:2](=[C:3]([N+:4]#[C:5][H:10])[H:9])[O-:6])([H:7])[H:8]"
N        1.81759846      -0.20128029       0.26905306
C        0.46848632      -0.25517504       0.09110762
C       -0.35364566       0.91970975       0.20974676
N       -1.59646711       0.64645342      -0.12961086
C       -2.03520955      -0.41172097      -0.57235747
O       -0.11132610      -1.28563821      -0.32747983
H        2.35116156      -0.98668992      -0.05821602
H        2.27288985       0.69250785       0.28491439
H       -0.01930449       1.93193414       0.37216188
H       -2.79418328      -1.05010074      -0.13931953
10
Frame=8 idx=004061 GeodesicLength=0.24293117884983945 rxn_smarts="[N:1]([c:2]1[c:3]([H:9])[n:4][c:5]([H:10])[o:6]1)([H:7])[H:8]>>[N:1]([C:2](=[C:3]([N+:4]#[C:5][H:10])[H:9])[O-:6])([H:7])[H:8]"
N        1.81927479      -0.20297033       0.27352673
C        0.46900225      -0.25224071       0.09848820
C       -0.35398638       0.91922248       0.21461892
N       -1.59799646       0.64584606      -0.12936110
C       -2.02577152      -0.42012086      -0.56736763
O       -0.11535436      -1.28020559      -0.32919511
H        2.34901477      -0.98582736      -0.06623382
H        2.27503061       0.69074793       0.28545051
H       -0.01980395       1.93339831       0.36505162
H       -2.79940974      -1.04784994      -0.14497831
10
Frame=9 idx=004061 GeodesicLength=0.2733111258271244 rxn_smarts="[N:1]([c:2]1[c:3]([H:9])[n:4][c:5]([H:10])[o:6]1)([H:7])[H:8]>>[N:1]([C:2](=[C:3]([N+:4]#[C:5][H:10])[H:9])[O-:6])([H:7])[H:8]"
N        1.82096171      -0.20469101       0.27789964
C        0.46957481      -0.24919937       0.10531796
C       -0.35425550       0.91884333       0.21907689
N       -1.59958152       0.64520291      -0.12893112
C       -2.01662259      -0.42841706      -0.56185690
O       -0.11931542      -1.27477115      -0.33104774
H        2.34686681      -0.98494577      -0.07398702
H        2.27722424       0.68892914       0.28636239
H       -0.02030451       1.93474663       0.35791744
H       -2.80454802      -1.04569765      -0.15075155
10
Frame=10 idx=004061 GeodesicLength=0.3036834896532009 rxn_smarts="[N:1]([c:2]1[c:3]([H:9])[n:4][c:5]([H:10])[o:6]1)([H:7])[H:8]>>[N:1]([C:2](=[C:3]([N+:4]#[C:5][H:10])[H:9])[O-:6])([H:7])[H:8]"
N        1.82268174      -0.20641903       0.28208331
C        0.47020369      -0.24613318       0.11187895
C       -0.35449470       0.91845029       0.22347457
N       -1.60115031       0.64452648      -0.12845866
C       -2.00765243      -0.43663755      -0.55593725
O       -0.12326312      -1.26948401      -0.33251062
H        2.34471189      -0.98392007      -0.08183805
H        2.27942911       0.68710458       0.28753565
H       -0.02078152       1.93601751       0.35070650
H       -2.80968435      -1.04350503      -0.15693442
10
Frame=11 idx=004061 GeodesicLength=0.3340768439119712 rxn_smarts="[N:1]([c:2]1[c:3]([H:9])[n:4][c:5]([H:10])[o:6]1)([H:7])[H:8]>>[N:1]([C:2](=[C:3]([N+:4]#[C:5][H:10])[H:9])[O-:6])([H:7])[H:8]"
N        1.82447407      -0.20814024       0.28603530
C        0.47088451      -0.24305819       0.11844025
C       -0.35467570       0.91807667       0.22784255
N       -1.60270128       0.64377617      -0.12781900
C       -1.99880594      -0.44477096      -0.54965631
O       -0.12723923      -1.26442930      -0.33320034
H        2.34255512      -0.98268813      -0.09001676
H        2.28165579       0.68530585       0.28884842
H       -0.02122710       1.93716295       0.34338926
H       -2.81492022      -1.04123483      -0.16386338
10
Frame=12 idx=004061 GeodesicLength=0.36447824344776447 rxn_smarts="[N:1]([c:2]1[c:3]([H:9])[n:4][c:5]([H:10])[o:6]1)([H:7])[H:8]>>[N:1]([C:2](=[C:3]([N+:4]#[C:5][H:10])[H:9])[O-:6])([H:7])[H:8]"
N        1.82633763      -0.20986162       0.28979116
C        0.47162421      -0.23999452       0.12499544
C       -0.35480629       0.91769991       0.23216316
N       -1.60424808       0.64299024      -0.12708390
C       -1.99010497      -0.45286653      -0.54294647
O       -0.13117630      -1.25960197      -0.33335518
H        2.34038545      -0.98124237      -0.09843831
H        2.28391783       0.68351559       0.29032371
H       -0.02165302       1.93822201       0.33596840
H       -2.82027648      -1.03886074      -0.17141801
10
Frame=13 idx=004061 GeodesicLength=0.3948794890900072 rxn_smarts="[N:1]([c:2]1[c:3]([H:9])[n:4][c:5]([H:10])[o:6]1)([H:7])[H:8]>>[N:1]([C:2](=[C:3]([N+:4]#[C:5][H:10])[H:9])[O-:6])([H:7])[H:8]"
N        1.82800556      -0.21207982       0.29400213
C        0.47231352      -0.23687619       0.13072280
C       -0.35477539       0.91753974       0.23564393
N       -1.60598161       0.64208650      -0.12560386
C       -1.98200688      -0.46085595      -0.53509763
O       -0.13499869      -1.25423717      -0.33540114
H        2.33826699      -0.97919097      -0.10780626
H        2.28609282       0.68116864       0.29519452
H       -0.02169800       1.93939839       0.32632559
H       -2.82521833      -1.03695316      -0.17798008
10
Frame=14 idx=004061 GeodesicLength=0.42530234983694865 rxn_smarts="[N:1]([c:2]1[c:3]([H:9])[n:4][c:5]([H:10])[o:6]1)([H:7])[H:8]>>[N:1]([C:2](=[C:3]([N+:4]#[C:5][H:10])[H:9])[O-:6])([H:7])[H:8]"
N        1.82975617      -0.21411438       0.29784764
C        0.47310592      -0.23374997       0.13653421
C       -0.35468499       0.91732702       0.23924070
N       -1.60765751       0.64114579      -0.12408579
C       -1.97391604      -0.46881267      -0.52696299
O       -0.13879316      -1.24919276      -0.33648906
H        2.33608821      -0.97720440      -0.11673771
H        2.28828405       0.67902912       0.29892159
H       -0.02185671       1.94037597       0.31736300
H       -2.83032593      -1.03480370      -0.18563159
10
Frame=15 idx=004061 GeodesicLength=0.4557267916427866 rxn_smarts="[N:1]([c:2]1[c:3]([H:9])[n:4][c:5]([H:10])[o:6]1)([H:7])[H:8]>>[N:1]([C:2](=[C:3]([N+:4]#[C:5][H:10])[H:9])[O-:6])([H:7])[H:8]"
N        1.83146029      -0.21639638       0.30181681
C        0.47389856      -0.23058841       0.14194116
C       -0.35448504       0.91723850       0.24241679
N       -1.60947816       0.64012185      -0.12199398
C       -1.96619620      -0.47668157      -0.51802386
O       -0.14251521      -1.24395256      -0.33831771
H        2.33395064      -0.97483009      -0.12608645
H        2.29050163       0.67659978       0.30421911
H       -0.02183818       1.94135045       0.30724592
H       -2.83529833      -1.03286156      -0.19321779
10
Frame=16 idx=004061 GeodesicLength=0.48615709775394356 rxn_smarts="[N:1]([c:2]1[c:3]([H:9])[n:4][c:5]([H:10])[o:6]1)([H:7])[H:8]>>[N:1]([C:2](=[C:3]([N+:4]#[C:5][H:10])[H:9])[O-:6])([H:7])[H:8]"
N        1.83312715      -0.21880443       0.30578261
C        0.47471269      -0.22740004       0.14700223
C       -0.35420578       0.91722845       0.24523868
N       -1.61133209       0.63908924      -0.11982001
C       -1.95875196      -0.48455009      -0.50837208
O       -0.14616322      -1.23863247      -0.34057522
H        2.33183632      -0.97223915      -0.13549017
H        2.29271829       0.67402563       0.31027838
H       -0.02177640       1.94224239       0.29676480
H       -2.84016500      -1.03095952      -0.20080923
