13
Frame=0 idx=003975 GeodesicLength=0.0 rxn_smarts="[C:1]([C@@:2]1([H:9])[C:3]([H:10])([H:11])[C@:4]1([O:5][H:13])[H:12])([H:6])([H:7])[H:8]>>[C:1]([C:2]1([H:9])[C:3]([H:11])=[C:4]1[H:12])([H:6])([H:7])[H:8].[O:5]([H:10])[H:13]"
C        1.22828025       0.54109892      -0.71211514
C       -0.12294107      -0.13725494      -0.78652052
C       -0.49252028      -1.31520050       0.08032495
C       -1.15685365      -0.08485466       0.27707936
O       -0.54601972       0.35511275       1.77275962
H        1.70816636       0.38263295       0.25706697
H        1.16111314       1.61682540      -0.90471302
H        1.90019624       0.11459654      -1.45955224
H       -0.56638497      -0.05002125      -1.78209372
H       -0.06465809      -0.58661888       1.55391369
H       -0.96335266      -2.22511813      -0.26362518
H       -2.16546903       0.30168812       0.27969621
H        0.08044353       1.08711368       1.68777900
13
Frame=1 idx=003975 GeodesicLength=0.08182740723315005 rxn_smarts="[C:1]([C@@:2]1([H:9])[C:3]([H:10])([H:11])[C@:4]1([O:5][H:13])[H:12])([H:6])([H:7])[H:8]>>[C:1]([C:2]1([H:9])[C:3]([H:11])=[C:4]1[H:12])([H:6])([H:7])[H:8].[O:5]([H:10])[H:13]"
C        1.22832324       0.54185785      -0.71810482
C       -0.12369550      -0.13394074      -0.79368960
C       -0.49489928      -1.30733784       0.07796248
C       -1.15673825      -0.07619515       0.27165733
O       -0.54280248       0.35000846       1.79162690
H        1.70260455       0.39147145       0.25497012
H        1.16368884       1.61596200      -0.91979149
H        1.90379310       0.10847429      -1.45842501
H       -0.56393874      -0.05584568      -1.79107216
H       -0.06181183      -0.60664760       1.55320944
H       -0.95992672      -2.22404046      -0.25489725
H       -2.16727104       0.30507418       0.27405395
H        0.07267411       1.09115923       1.71250012
13
Frame=2 idx=003975 GeodesicLength=0.16359281329435615 rxn_smarts="[C:1]([C@@:2]1([H:9])[C:3]([H:10])([H:11])[C@:4]1([O:5][H:13])[H:12])([H:6])([H:7])[H:8]>>[C:1]([C:2]1([H:9])[C:3]([H:11])=[C:4]1[H:12])([H:6])([H:7])[H:8].[O:5]([H:10])[H:13]"
C        1.22837936       0.54259890      -0.72421395
C       -0.12445598      -0.13061701      -0.80095352
C       -0.49731426      -1.29937832       0.07557158
C       -1.15649779      -0.06737514       0.26625576
O       -0.53936549       0.34463675       1.81079893
H        1.69680956       0.40075718       0.25282799
H        1.16638079       1.61492292      -0.93538706
H        1.90746795       0.10209024      -1.45705899
H       -0.56153120      -0.06171119      -1.80003692
H       -0.05881766      -0.62704807       1.55221792
H       -0.95645606      -2.22274143      -0.24610593
H       -2.16892886       0.30861131       0.26839619
H        0.06432964       1.09525385       1.73768800
13
Frame=3 idx=003975 GeodesicLength=0.24532523817459273 rxn_smarts="[C:1]([C@@:2]1([H:9])[C:3]([H:10])([H:11])[C@:4]1([O:5][H:13])[H:12])([H:6])([H:7])[H:8]>>[C:1]([C:2]1([H:9])[C:3]([H:11])=[C:4]1[H:12])([H:6])([H:7])[H:8].[O:5]([H:10])[H:13]"
C        1.22844947       0.54331785      -0.73044419
C       -0.12522281      -0.12728623      -0.80831116
C       -0.49976680      -1.29131840       0.07315839
C       -1.15613056      -0.05839085       0.26087486
O       -0.53568300       0.33900001       1.83027683
H        1.69077678       0.41049635       0.25062648
H        1.16919601       1.61369151      -0.95150394
H        1.91121524       0.09544265      -1.45544346
H       -0.55916429      -0.06762059      -1.80898558
H       -0.05566396      -0.64784372       1.55091815
H       -0.95292981      -2.22121174      -0.23725230
H       -2.17043598       0.31231608       0.26273034
H        0.05535971       1.09940708       1.76335558
13
Frame=4 idx=003975 GeodesicLength=0.327058183720799 rxn_smarts="[C:1]([C@@:2]1([H:9])[C:3]([H:10])([H:11])[C@:4]1([O:5][H:13])[H:12])([H:6])([H:7])[H:8]>>[C:1]([C:2]1([H:9])[C:3]([H:11])=[C:4]1[H:12])([H:6])([H:7])[H:8].[O:5]([H:10])[H:13]"
C        1.22853458       0.54401121      -0.73679742
C       -0.12599602      -0.12395165      -0.81576130
C       -0.50225709      -1.28315430       0.07073205
C       -1.15563464      -0.04923724       0.25551403
O       -0.53172402       0.33310156       1.85006039
H        1.68450112       0.42069992       0.24834881
H        1.17213939       1.61225097      -0.96814751
H        1.91503012       0.08852640      -1.45356158
H       -0.55683938      -0.07358041      -1.81791612
H       -0.05233285      -0.66906041       1.54928600
H       -0.94934251      -2.21943863      -0.22834126
H       -2.17178587       0.31620631       0.25706520
H        0.04570718       1.10362628       1.78951872
13
Frame=5 idx=003975 GeodesicLength=0.4087866083002927 rxn_smarts="[C:1]([C@@:2]1([H:9])[C:3]([H:10])([H:11])[C@:4]1([O:5][H:13])[H:12])([H:6])([H:7])[H:8]>>[C:1]([C:2]1([H:9])[C:3]([H:11])=[C:4]1[H:12])([H:6])([H:7])[H:8].[O:5]([H:10])[H:13]"
C        1.22863623       0.54467471      -0.74327431
C       -0.12677514      -0.12061681      -0.82329989
C       -0.50478464      -1.27488431       0.06829929
C       -1.15500681      -0.03991361       0.25017668
O       -0.52746255       0.32693717       1.87015553
H        1.67797940       0.43137405       0.24598035
H        1.17521840       1.61058252      -0.98532010
H        1.91890729       0.08134020      -1.45140128
H       -0.55455886      -0.07959450      -1.82682258
H       -0.04880823      -0.69071598       1.54730274
H       -0.94569295      -2.21741297      -0.21938797
H       -2.17297093       0.32029587       0.25141165
H        0.03531880       1.10793364       1.81617987
13
Frame=6 idx=003975 GeodesicLength=0.49055035070936964 rxn_smarts="[C:1]([C@@:2]1([H:9])[C:3]([H:10])([H:11])[C@:4]1([O:5][H:13])[H:12])([H:6])([H:7])[H:8]>>[C:1]([C:2]1([H:9])[C:3]([H:11])=[C:4]1[H:12])([H:6])([H:7])[H:8].[O:5]([H:10])[H:13]"
C        1.22875603       0.54530328      -0.74987586
C       -0.12755929      -0.11728618      -0.83092501
C       -0.50734878      -1.26650476       0.06587223
C       -1.15424468      -0.03041481       0.24486174
O       -0.52285838       0.32052185       1.89056068
H        1.67120938       0.44252761       0.24350009
H        1.17843670       1.60866818      -1.00302526
H        1.92284146       0.07388209      -1.44894666
H       -0.55232319      -0.08567178      -1.83570219
H       -0.04507076      -0.71283513       1.54493931
H       -0.94197944      -2.21512088      -0.21039933
H       -2.17398458       0.32460235       0.24577898
H        0.02412553       1.11232819       1.84336129
13
Frame=7 idx=003975 GeodesicLength=0.5723466570851107 rxn_smarts="[C:1]([C@@:2]1([H:9])[C:3]([H:10])([H:11])[C@:4]1([O:5][H:13])[H:12])([H:6])([H:7])[H:8]>>[C:1]([C:2]1([H:9])[C:3]([H:11])=[C:4]1[H:12])([H:6])([H:7])[H:8].[O:5]([H:10])[H:13]"
C        1.22889498       0.54589120      -0.75660437
C       -0.12834854      -0.11396426      -0.83863383
C       -0.50995011      -1.25801119       0.06346116
C       -1.15334744      -0.02073650       0.23956775
O       -0.51787758       0.31386429       1.91127610
H        1.66418934       0.45416123       0.24088797
H        1.18180168       1.60648811      -1.02125951
H        1.92682447       0.06615662      -1.44618941
H       -0.55013339      -0.09182058      -1.84455086
H       -0.04110565      -0.73543201       1.54217143
H       -0.93819307      -2.21255014      -0.20137978
H       -2.17482211       0.32914309       0.24017376
H        0.01206744       1.11681013       1.87107959
13
Frame=8 idx=003975 GeodesicLength=0.654186569414554 rxn_smarts="[C:1]([C@@:2]1([H:9])[C:3]([H:10])([H:11])[C@:4]1([O:5][H:13])[H:12])([H:6])([H:7])[H:8]>>[C:1]([C:2]1([H:9])[C:3]([H:11])=[C:4]1[H:12])([H:6])([H:7])[H:8].[O:5]([H:10])[H:13]"
C        1.22905529       0.54643493      -0.76346077
C       -0.12914108      -0.11065697      -0.84642279
C       -0.51258448      -1.24940017       0.06108289
C       -1.15231169      -0.01087409       0.23429475
O       -0.51247204       0.30698484       1.93230071
H        1.65691997       0.46628359       0.23811977
H        1.18531744       1.60402155      -1.04002596
H        1.93085179       0.05816488      -1.44311409
H       -0.54798955      -0.09805462      -1.85336336
H       -0.03688922      -0.75851986       1.53897108
H       -0.93434353      -2.20968603      -0.19234611
H       -2.17547696       0.33393430       0.23460600
H       -0.00093593       1.12136764       1.89935788
13
Frame=9 idx=003975 GeodesicLength=0.7360446165518204 rxn_smarts="[C:1]([C@@:2]1([H:9])[C:3]([H:10])([H:11])[C@:4]1([O:5][H:13])[H:12])([H:6])([H:7])[H:8]>>[C:1]([C:2]1([H:9])[C:3]([H:11])=[C:4]1[H:12])([H:6])([H:7])[H:8].[O:5]([H:10])[H:13]"
C        1.22923864       0.54692811      -0.77044372
C       -0.12993506      -0.10736889      -0.85428511
C       -0.51524987      -1.24066686       0.05874818
C       -1.15113392      -0.00082692       0.22904606
O       -0.50661971       0.29988475       1.95364269
H        1.64940242       0.47889411       0.23517684
H        1.18898565       1.60125306      -1.05931846
H        1.93491320       0.04990627      -1.43971261
H       -0.54589184      -0.10437981      -1.86213077
H       -0.03240668      -0.78211156       1.53531349
H       -0.93042906      -2.20651926      -0.18331636
H       -2.17594259       0.33898806       0.22908352
H       -0.01493119       1.12601894       1.92819626
13
Frame=10 idx=003975 GeodesicLength=0.8179292994567408 rxn_smarts="[C:1]([C@@:2]1([H:9])[C:3]([H:10])([H:11])[C@:4]1([O:5][H:13])[H:12])([H:6])([H:7])[H:8]>>[C:1]([C:2]1([H:9])[C:3]([H:11])=[C:4]1[H:12])([H:6])([H:7])[H:8].[O:5]([H:10])[H:13]"
C        1.22944762       0.54736846      -0.77755868
C       -0.13072796      -0.10410856      -0.86221994
C       -0.51793895      -1.23180525       0.05648230
C       -1.14981312       0.00941528       0.22381340
O       -0.50025684       0.29260812       1.97529421
H        1.64164200       0.49200045       0.23202549
H        1.19281278       1.59815724      -1.07913945
H        1.93900636       0.04139738      -1.43597495
H       -0.54383722      -0.11082388      -1.87085116
H       -0.02763037      -0.80620402       1.53117370
H       -0.92647114      -2.20303206      -0.17429955
H       -2.17621619       0.34432320       0.22360980
H       -0.03001696       1.13070364       1.95764484
13
Frame=11 idx=003975 GeodesicLength=0.8998495837486493 rxn_smarts="[C:1]([C@@:2]1([H:9])[C:3]([H:10])([H:11])[C@:4]1([O:5][H:13])[H:12])([H:6])([H:7])[H:8]>>[C:1]([C:2]1([H:9])[C:3]([H:11])=[C:4]1[H:12])([H:6])([H:7])[H:8].[O:5]([H:10])[H:13]"
C        1.22968365       0.54775306      -0.78480688
C       -0.13151643      -0.10088192      -0.87022153
C       -0.52064705      -1.22280635       0.05430551
C       -1.14834799       0.01985903       0.21859372
O       -0.49334628       0.28518984       1.99725673
H        1.63364525       0.50559784       0.22863826
H        1.19680054       1.59471706      -1.09947946
H        1.94311859       0.03264431      -1.43189658
H       -0.54182234      -0.11740316      -1.87951655
H       -0.02253922      -0.83080451       1.52652129
H       -0.92247334      -2.19921046      -0.16530523
H       -2.17629501       0.34995331       0.21818630
H       -0.04626037       1.13539195       1.98772444
13
Frame=12 idx=003975 GeodesicLength=0.9817815344846074 rxn_smarts="[C:1]([C@@:2]1([H:9])[C:3]([H:10])([H:11])[C@:4]1([O:5][H:13])[H:12])([H:6])([H:7])[H:8]>>[C:1]([C:2]1([H:9])[C:3]([H:11])=[C:4]1[H:12])([H:6])([H:7])[H:8].[O:5]([H:10])[H:13]"
C        1.22995029       0.54807731      -0.79219087
C       -0.13229771      -0.09769700      -0.87828508
C       -0.52336653      -1.21366279       0.05224240
C       -1.14673574       0.03051240       0.21338342
O       -0.48583043       0.27766303       2.01952892
H        1.62541988       0.51969053       0.22498379
H        1.20095356       1.59090854      -1.12033898
H        1.94724662       0.02366319      -1.42746916
H       -0.53984505      -0.12414200      -1.88811919
H       -0.01710851      -0.85591221       1.52132954
H       -0.91845917      -2.19503857      -0.15634931
H       -2.17617493       0.35589503       0.21281780
H       -0.06375227       1.14004253       2.01846671
13
Frame=13 idx=003975 GeodesicLength=1.0637012134681032 rxn_smarts="[C:1]([C@@:2]1([H:9])[C:3]([H:10])([H:11])[C@:4]1([O:5][H:13])[H:12])([H:6])([H:7])[H:8]>>[C:1]([C:2]1([H:9])[C:3]([H:11])=[C:4]1[H:12])([H:6])([H:7])[H:8].[O:5]([H:10])[H:13]"
C        1.23024911       0.54833850      -0.79971346
C       -0.13306585      -0.09456236      -0.88640435
C       -0.52608748      -1.20436280       0.05031827
C       -1.14497426       0.04138336       0.20817675
O       -0.47766347       0.27007733       2.04211088
H        1.61697598       0.53427376       0.22103135
H        1.20527408       1.58671216      -1.14171021
H        1.95137973       0.01447639      -1.42269741
H       -0.53789717      -0.13106739      -1.89664950
H       -0.01132305      -0.88151765       1.51557777
H       -0.91445041      -2.19050434      -0.14744256
H       -2.17585312       0.36216062       0.20750090
H       -0.08256410       1.14459241       2.04990157
13
Frame=14 idx=003975 GeodesicLength=1.145598358160681 rxn_smarts="[C:1]([C@@:2]1([H:9])[C:3]([H:10])([H:11])[C@:4]1([O:5][H:13])[H:12])([H:6])([H:7])[H:8]>>[C:1]([C:2]1([H:9])[C:3]([H:11])=[C:4]1[H:12])([H:6])([H:7])[H:8].[O:5]([H:10])[H:13]"
C        1.23058369       0.54853402      -0.80738006
C       -0.13381692      -0.09148614      -0.89457589
C       -0.52880080      -1.19489356       0.04856405
C       -1.14306150       0.05248567       0.20296457
O       -0.46878331       0.26249161       2.06499916
H        1.60832641       0.54934891       0.21674258
H        1.20976287       1.58210549      -1.16359282
H        1.95551240       0.00509805      -1.41757509
H       -0.53597517      -0.13820991      -1.90510005
H       -0.00515697      -0.90761171       1.50923676
H       -0.91046848      -2.18558466      -0.13859076
H       -2.17532727       0.36876833       0.20223287
H       -0.10279495       1.14895389       2.08207468
13
Frame=15 idx=003975 GeodesicLength=1.2274455059191534 rxn_smarts="[C:1]([C@@:2]1([H:9])[C:3]([H:10])([H:11])[C@:4]1([O:5][H:13])[H:12])([H:6])([H:7])[H:8]>>[C:1]([C:2]1([H:9])[C:3]([H:11])=[C:4]1[H:12])([H:6])([H:7])[H:8].[O:5]([H:10])[H:13]"
C        1.23095593       0.54866049      -0.81519523
C       -0.13454482      -0.08847690      -0.90279389
C       -0.53149463      -1.18523898       0.04701131
C       -1.14099453       0.06383129       0.19773770
O       -0.45912988       0.25497517       2.08819217
H        1.59948639       0.56490445       0.21208089
H        1.21441936       1.57706815      -1.18597585
H        1.95963289      -0.00444759      -1.41211042
H       -0.53407073      -0.14560048      -1.91345940
H        0.00140559      -0.93417792       1.50228549
H       -0.90653613      -2.18025825      -0.12979757
H       -2.17459302       0.37573250       0.19700576
H       -0.12453641       1.15302806       2.11501904
13
Frame=16 idx=003975 GeodesicLength=1.3092240334095058 rxn_smarts="[C:1]([C@@:2]1([H:9])[C:3]([H:10])([H:11])[C@:4]1([O:5][H:13])[H:12])([H:6])([H:7])[H:8]>>[C:1]([C:2]1([H:9])[C:3]([H:11])=[C:4]1[H:12])([H:6])([H:7])[H:8].[O:5]([H:10])[H:13]"
C        1.23137216       0.54871227      -0.82316828
C       -0.13524490      -0.08554461      -0.91105342
C       -0.53415711      -1.17538218       0.04569332
C       -1.13876992       0.07543796       0.19248609
O       -0.44861852       0.24761049       2.11168296
H        1.59047399       0.58094160       0.20700432
H        1.21924788       1.57157302      -1.20886368
H        1.96374244      -0.01414103      -1.40631180
H       -0.53217839      -0.15327656      -1.92171569
H        0.00840236      -0.96119415       1.49469635
H       -0.90269210      -2.17449811      -0.12106274
H       -2.17364738       0.38307791       0.19181429
H       -0.14793050       1.15668339       2.14879829
