14
Frame=0 idx=005743 GeodesicLength=0.0 rxn_smarts="[C:1]([O:2][C@@:3]([C:4]([H:11])([H:12])[H:13])([C:5](=[O:6])[H:14])[H:10])([H:7])([H:8])[H:9]>>[C:1]([O:2][C@@:3]([C:4]([H:11])([H:12])[H:13])([C:5][O:6][H:14])[H:10])([H:7])([H:8])[H:9]"
C        2.01149306      -0.01656962      -0.46190515
O        0.86040892      -0.79199302      -0.23137817
C       -0.31533797      -0.03506716      -0.18206658
C       -1.49968870      -0.98881117      -0.11189468
C       -0.36669129       0.88681111       1.00767869
O       -1.30974770       1.77885217       1.00246423
H        2.86113762      -0.69682924      -0.48386807
H        1.94905169       0.50831408      -1.42440494
H        2.16674549       0.72181093       0.33324060
H       -0.40688872       0.60665839      -1.07742250
H       -1.48027583      -1.64536689      -0.98083273
H       -1.43727804      -1.60050554       0.78905501
H       -2.43602240      -0.43171520      -0.10272910
H       -0.59690607       1.70441110       1.92406334
14
Frame=1 idx=005743 GeodesicLength=0.03297604438350264 rxn_smarts="[C:1]([O:2][C@@:3]([C:4]([H:11])([H:12])[H:13])([C:5](=[O:6])[H:14])[H:10])([H:7])([H:8])[H:9]>>[C:1]([O:2][C@@:3]([C:4]([H:11])([H:12])[H:13])([C:5][O:6][H:14])[H:10])([H:7])([H:8])[H:9]"
C        2.01282796      -0.01752795      -0.46490170
O        0.86110750      -0.78984370      -0.22732731
C       -0.31466457      -0.03190977      -0.18465150
C       -1.49870972      -0.98565444      -0.11068347
C       -0.36282759       0.89581309       1.00014929
O       -1.30591575       1.78290227       0.99976062
H        2.86169674      -0.69888414      -0.48243075
H        1.95018426       0.50068425      -1.43097180
H        2.16932313       0.72629628       0.32498530
H       -0.40490234       0.60512598      -1.08320901
H       -1.47690823      -1.64834160      -0.97491163
H       -1.43846395      -1.59092282       0.79478009
H       -2.43540650      -0.42909653      -0.10772295
H       -0.61734094       1.68135908       1.94713481
14
Frame=2 idx=005743 GeodesicLength=0.06597604098338411 rxn_smarts="[C:1]([O:2][C@@:3]([C:4]([H:11])([H:12])[H:13])([C:5](=[O:6])[H:14])[H:10])([H:7])([H:8])[H:9]>>[C:1]([O:2][C@@:3]([C:4]([H:11])([H:12])[H:13])([C:5][O:6][H:14])[H:10])([H:7])([H:8])[H:9]"
C        2.01406181      -0.01838399      -0.46768544
O        0.86172122      -0.78764206      -0.22332001
C       -0.31408764      -0.02878218      -0.18708564
C       -1.49780335      -0.98258250      -0.10949953
C       -0.35909817       0.90454365       0.99296380
O       -1.30219422       1.78668499       0.99761396
H        2.86216698      -0.70078736      -0.48096955
H        1.95120858       0.49342138      -1.43714141
H        2.17178631       0.73062661       0.31713146
H       -0.40303921       0.60370786      -1.08872148
H       -1.47362180      -1.65119245      -0.96911773
H       -1.43968910      -1.58158305       0.80031471
H       -2.43486973      -0.42664257      -0.11259922
H       -0.63654169       1.65861167       1.96811606
14
Frame=3 idx=005743 GeodesicLength=0.09868508228931511 rxn_smarts="[C:1]([O:2][C@@:3]([C:4]([H:11])([H:12])[H:13])([C:5](=[O:6])[H:14])[H:10])([H:7])([H:8])[H:9]>>[C:1]([O:2][C@@:3]([C:4]([H:11])([H:12])[H:13])([C:5][O:6][H:14])[H:10])([H:7])([H:8])[H:9]"
C        2.01516660      -0.01914074      -0.47022673
O        0.86224228      -0.78539682      -0.21939313
C       -0.31363318      -0.02572188      -0.18937642
C       -1.49696101      -0.97961416      -0.10836681
C       -0.35557891       0.91290934       0.98610130
O       -1.29867573       1.79007737       0.99599416
H        2.86252848      -0.70253118      -0.47953429
H        1.95209652       0.48661578      -1.44280574
H        2.17408399       0.73470512       0.30977505
H       -0.40133140       0.60236752      -1.09392355
H       -1.47039349      -1.65389192      -0.96347974
H       -1.44092320      -1.57252904       0.80558108
H       -2.43442107      -0.42439985      -0.11735100
H       -0.65419989       1.63655046       1.98700583
14
Frame=4 idx=005743 GeodesicLength=0.13153808491875663 rxn_smarts="[C:1]([O:2][C@@:3]([C:4]([H:11])([H:12])[H:13])([C:5](=[O:6])[H:14])[H:10])([H:7])([H:8])[H:9]>>[C:1]([O:2][C@@:3]([C:4]([H:11])([H:12])[H:13])([C:5][O:6][H:14])[H:10])([H:7])([H:8])[H:9]"
C        2.01617653      -0.01981387      -0.47258730
O        0.86268921      -0.78311289      -0.21550636
C       -0.31327078      -0.02270102      -0.19156329
C       -1.49618099      -0.97673499      -0.10727590
C       -0.35221199       0.92103269       0.97949098
O       -1.29526707       1.79324956       0.99475701
H        2.86281407      -0.70414258      -0.47805344
H        1.95289012       0.48009896      -1.44814021
H        2.17625455       0.73866260       0.30274622
H       -0.39973564       0.60109783      -1.09892067
H       -1.46722732      -1.65650142      -0.95796373
H       -1.44218510      -1.56370061       0.81065945
H       -2.43404603      -0.42232393      -0.12202556
H       -0.67069957       1.61488967       2.00438280
14
Frame=5 idx=005743 GeodesicLength=0.16432826245433374 rxn_smarts="[C:1]([O:2][C@@:3]([C:4]([H:11])([H:12])[H:13])([C:5](=[O:6])[H:14])[H:10])([H:7])([H:8])[H:9]>>[C:1]([O:2][C@@:3]([C:4]([H:11])([H:12])[H:13])([C:5][O:6][H:14])[H:10])([H:7])([H:8])[H:9]"
C        2.01710141      -0.02041304      -0.47479757
O        0.86307146      -0.78078749      -0.21163377
C       -0.31298816      -0.01971062      -0.19364781
C       -1.49545715      -0.97392717      -0.10623163
C       -0.34898569       0.92893106       0.97312361
O       -1.29196710       1.79620213       0.99389364
H        2.86303709      -0.70562856      -0.47647628
H        1.95360318       0.47376224      -1.45323276
H        2.17830121       0.74257455       0.29594254
H       -0.39823050       0.59990205      -1.10371832
H       -1.46409862      -1.65902853      -0.95255652
H       -1.44349926      -1.55505200       0.81556661
H       -2.43373256      -0.42038674      -0.12666708
H       -0.68615531       1.59356212       2.02043534
14
Frame=6 idx=005743 GeodesicLength=0.19744380807841194 rxn_smarts="[C:1]([O:2][C@@:3]([C:4]([H:11])([H:12])[H:13])([C:5](=[O:6])[H:14])[H:10])([H:7])([H:8])[H:9]>>[C:1]([O:2][C@@:3]([C:4]([H:11])([H:12])[H:13])([C:5][O:6][H:14])[H:10])([H:7])([H:8])[H:9]"
C        2.01798444      -0.02095371      -0.47692226
O        0.86341761      -0.77840056      -0.20773938
C       -0.31275156      -0.01671604      -0.19564740
C       -1.49478389      -0.97114775      -0.10521115
C       -0.34584675       0.93670338       0.96694606
O       -1.28869967       1.79905716       0.99330535
H        2.86324241      -0.70700402      -0.47476613
H        1.95428104       0.46743447      -1.45822457
H        2.18026800       0.74653636       0.28918613
H       -0.39676697       0.59877238      -1.10837329
H       -1.46099158      -1.66149789      -0.94719271
H       -1.44489325      -1.54647123       0.82038079
H       -2.43346681      -0.41852818      -0.13129978
H       -0.70099301       1.57221563       2.03555834
14
Frame=7 idx=005743 GeodesicLength=0.22956937682770467 rxn_smarts="[C:1]([O:2][C@@:3]([C:4]([H:11])([H:12])[H:13])([C:5](=[O:6])[H:14])[H:10])([H:7])([H:8])[H:9]>>[C:1]([O:2][C@@:3]([C:4]([H:11])([H:12])[H:13])([C:5][O:6][H:14])[H:10])([H:7])([H:8])[H:9]"
C        2.01874560      -0.02140947      -0.47886224
O        0.86366237      -0.77600189      -0.20386967
C       -0.31263505      -0.01378644      -0.19754616
C       -1.49418996      -0.96850329      -0.10430531
C       -0.34292994       0.94415770       0.96107184
O       -1.28569110       1.80151722       0.99322829
H        2.86334693      -0.70824478      -0.47290803
H        1.95488047       0.46133158      -1.46295463
H        2.18205125       0.75047445       0.28273575
H       -0.39541580       0.59774598      -1.11279899
H       -1.45789177      -1.66394021      -0.94202443
H       -1.44640301      -1.53816796       0.82495110
H       -2.43328978      -0.41688282      -0.13600697
H       -0.71424019       1.55170993       2.04928943
14
Frame=8 idx=005743 GeodesicLength=0.2624187045122642 rxn_smarts="[C:1]([O:2][C@@:3]([C:4]([H:11])([H:12])[H:13])([C:5](=[O:6])[H:14])[H:10])([H:7])([H:8])[H:9]>>[C:1]([O:2][C@@:3]([C:4]([H:11])([H:12])[H:13])([C:5][O:6][H:14])[H:10])([H:7])([H:8])[H:9]"
C        2.01943464      -0.02185517      -0.48073925
O        0.86390489      -0.77352440      -0.19997973
C       -0.31253101      -0.01083322      -0.19938270
C       -1.49354576      -0.96578991      -0.10337330
C       -0.34007282       0.95152787       0.95522514
O       -1.28264777       1.80396463       0.99317205
H        2.86341059      -0.70941560      -0.47096829
H        1.95535637       0.45517196      -1.46753627
H        2.18371589       0.75437163       0.27623212
H       -0.39412117       0.59672978      -1.11708237
H       -1.45473724      -1.66621517      -0.93678190
H       -1.44781596      -1.52979603       0.82942987
H       -2.43305467      -0.41520870      -0.14062883
H       -0.72729597       1.53087234       2.06241346
14
Frame=9 idx=005743 GeodesicLength=0.2951180440111821 rxn_smarts="[C:1]([O:2][C@@:3]([C:4]([H:11])([H:12])[H:13])([C:5](=[O:6])[H:14])[H:10])([H:7])([H:8])[H:9]>>[C:1]([O:2][C@@:3]([C:4]([H:11])([H:12])[H:13])([C:5][O:6][H:14])[H:10])([H:7])([H:8])[H:9]"
C        2.02007156      -0.02222609      -0.48248497
O        0.86407561      -0.77103400      -0.19611960
C       -0.31251413      -0.00793036      -0.20117285
C       -1.49300077      -0.96319824      -0.10251507
C       -0.33736593       0.95872101       0.94956917
O       -1.27973961       1.80621507       0.99340602
H        2.86343622      -0.71047276      -0.46893943
H        1.95581934       0.44920745      -1.47193253
H        2.18529828       0.75825502       0.26996996
H       -0.39289232       0.59575315      -1.12127507
H       -1.45165752      -1.66851486      -0.93167873
H       -1.44935538      -1.52163706       0.83376762
H       -2.43292483      -0.41372156      -0.14529355
H       -0.73925052       1.51058323       2.07469902
14
Frame=10 idx=005743 GeodesicLength=0.3278032751267428 rxn_smarts="[C:1]([O:2][C@@:3]([C:4]([H:11])([H:12])[H:13])([C:5](=[O:6])[H:14])[H:10])([H:7])([H:8])[H:9]>>[C:1]([O:2][C@@:3]([C:4]([H:11])([H:12])[H:13])([C:5][O:6][H:14])[H:10])([H:7])([H:8])[H:9]"
C        2.02064754      -0.02255180      -0.48414025
O        0.86420266      -0.76850357      -0.19225218
C       -0.31255230      -0.00504328      -0.20291008
C       -1.49249367      -0.96064828      -0.10170452
C       -0.33477273       0.96577608       0.94404569
O       -1.27692034       1.80831584       0.99385595
H        2.86342309      -0.71143488      -0.46678248
H        1.95623137       0.44327059      -1.47620956
H        2.18677438       0.76216602       0.26377443
H       -0.39171638       0.59481831      -1.12535414
H       -1.44857335      -1.67078221      -0.92662556
H       -1.45096453      -1.51355263       0.83798901
H       -2.43282898      -0.41232710      -0.15000789
H       -0.75045676       1.49049691       2.08632158
14
Frame=11 idx=005743 GeodesicLength=0.36042064366798265 rxn_smarts="[C:1]([O:2][C@@:3]([C:4]([H:11])([H:12])[H:13])([C:5](=[O:6])[H:14])[H:10])([H:7])([H:8])[H:9]>>[C:1]([O:2][C@@:3]([C:4]([H:11])([H:12])[H:13])([C:5][O:6][H:14])[H:10])([H:7])([H:8])[H:9]"
C        2.02117020      -0.02283620      -0.48572089
O        0.86429120      -0.76592570      -0.18836252
C       -0.31263796      -0.00215981      -0.20459471
C       -1.49202078      -0.95812484      -0.10093743
C       -0.33228398       0.97271588       0.93864876
O       -1.27417961       1.81028944       0.99451123
H        2.86337994      -0.71230151      -0.46447630
H        1.95660418       0.43730042      -1.48040714
H        2.18814895       0.76613746       0.25758874
H       -0.39058144       0.59393061      -1.12932515
H       -1.44547427      -1.67301988      -0.92160271
H       -1.45265232      -1.50551048       0.84210934
H       -2.43275988      -0.41100623      -0.15478353
H       -0.76100424       1.47051082       2.09735231
14
Frame=12 idx=005743 GeodesicLength=0.39327800958947384 rxn_smarts="[C:1]([O:2][C@@:3]([C:4]([H:11])([H:12])[H:13])([C:5](=[O:6])[H:14])[H:10])([H:7])([H:8])[H:9]>>[C:1]([O:2][C@@:3]([C:4]([H:11])([H:12])[H:13])([C:5][O:6][H:14])[H:10])([H:7])([H:8])[H:9]"
C        2.02168401      -0.02308299      -0.48727425
O        0.86436169      -0.76329092      -0.18442240
C       -0.31274564       0.00074382      -0.20622702
C       -1.49159861      -0.95561390      -0.10020093
C       -0.32985188       0.97960773       0.93338772
O       -1.27144737       1.81222829       0.99535368
H        2.86335864      -0.71307061      -0.46199455
H        1.95698272       0.43117085      -1.48464294
H        2.18946827       0.77025744       0.25128868
H       -0.38944065       0.59309899      -1.13322277
H       -1.44237260      -1.67525794      -0.91659212
H       -1.45447116      -1.49746268       0.84618741
H       -2.43272877      -0.40973325      -0.15963332
H       -0.77119863       1.45040515       2.10799280
14
Frame=13 idx=005743 GeodesicLength=0.42581566853985814 rxn_smarts="[C:1]([O:2][C@@:3]([C:4]([H:11])([H:12])[H:13])([C:5](=[O:6])[H:14])[H:10])([H:7])([H:8])[H:9]>>[C:1]([O:2][C@@:3]([C:4]([H:11])([H:12])[H:13])([C:5][O:6][H:14])[H:10])([H:7])([H:8])[H:9]"
C        2.02210196      -0.02329189      -0.48872940
O        0.86436845      -0.76061975      -0.18045651
C       -0.31292256       0.00363035      -0.20781391
C       -1.49119491      -0.95314241      -0.09955120
C       -0.32757840       0.98633500       0.92824994
O       -1.26890870       1.81390912       0.99646010
H        2.86325168      -0.71375414      -0.45931439
H        1.95730643       0.42499838      -1.48879036
H        2.19062475       0.77445321       0.24501816
H       -0.38836044       0.59232915      -1.13699295
H       -1.43919618      -1.67747328      -0.91163687
H       -1.45637598      -1.48947331       0.85010888
H       -2.43270424      -0.40855573      -0.16463122
H       -0.78041185       1.43065530       2.11807973
14
Frame=14 idx=005743 GeodesicLength=0.45863258264753254 rxn_smarts="[C:1]([O:2][C@@:3]([C:4]([H:11])([H:12])[H:13])([C:5](=[O:6])[H:14])[H:10])([H:7])([H:8])[H:9]>>[C:1]([O:2][C@@:3]([C:4]([H:11])([H:12])[H:13])([C:5][O:6][H:14])[H:10])([H:7])([H:8])[H:9]"
C        2.02246211      -0.02349659      -0.49015586
O        0.86437887      -0.75786825      -0.17644132
C       -0.31310167       0.00655327      -0.20934647
C       -1.49075299      -0.95060484      -0.09888950
C       -0.32534073       0.99301234       0.92314898
O       -1.26631874       1.81559633       0.99759235
H        2.86312588      -0.71435701      -0.45649326
H        1.95752459       0.41865548      -1.49287986
H        2.19167240       0.77868691       0.23859655
H       -0.38730812       0.59158985      -1.14064973
H       -1.43595835      -1.67956372      -0.90660593
H       -1.45823549      -1.48139486       0.85396429
H       -2.43262828      -0.40734764      -0.16960831
H       -0.78951948       1.41053871       2.12776806
14
Frame=15 idx=005743 GeodesicLength=0.49165542083731084 rxn_smarts="[C:1]([O:2][C@@:3]([C:4]([H:11])([H:12])[H:13])([C:5](=[O:6])[H:14])[H:10])([H:7])([H:8])[H:9]>>[C:1]([O:2][C@@:3]([C:4]([H:11])([H:12])[H:13])([C:5][O:6][H:14])[H:10])([H:7])([H:8])[H:9]"
C        2.02289030      -0.02362349      -0.49154560
O        0.86434980      -0.75508800      -0.17240120
C       -0.31332913       0.00946675      -0.21086662
C       -1.49048216      -0.94818102      -0.09828143
C       -0.32315787       0.99967762       0.91822090
O       -1.26374014       1.81727867       0.99892874
H        2.86308755      -0.71483072      -0.45351533
H        1.95787927       0.41227859      -1.49704196
H        2.19278096       0.78309553       0.23218694
H       -0.38623097       0.59088414      -1.14435774
H       -1.43287803      -1.68177917      -0.90168316
H       -1.46036818      -1.47344298       0.85782215
H       -2.43271928      -0.40629859      -0.17467733
H       -0.79808211       1.39056268       2.13721164
14
Frame=16 idx=005743 GeodesicLength=0.5241566892612473 rxn_smarts="[C:1]([O:2][C@@:3]([C:4]([H:11])([H:12])[H:13])([C:5](=[O:6])[H:14])[H:10])([H:7])([H:8])[H:9]>>[C:1]([O:2][C@@:3]([C:4]([H:11])([H:12])[H:13])([C:5][O:6][H:14])[H:10])([H:7])([H:8])[H:9]"
C        2.02310220      -0.02378649      -0.49284551
O        0.86428331      -0.75224602      -0.16834005
C       -0.31358906       0.01239512      -0.21231502
C       -1.49003596      -0.94564807      -0.09771891
C       -0.32114267       1.00615729       0.91328598
O       -1.26134016       1.81870236       1.00039013
H        2.86285201      -0.71527483      -0.45035381
H        1.95798344       0.40573352      -1.50099551
H        2.19355261       0.78745741       0.22567161
H       -0.38524737       0.59023497      -1.14779258
H       -1.42950714      -1.68377692      -0.89667131
H       -1.46231840      -1.46537404       0.86143684
H       -2.43260862      -0.40518516      -0.17980345
H       -0.80598418       1.37061087       2.14605159
