14
Frame=0 idx=004083 GeodesicLength=0.0 rxn_smarts="[O:1]([C:2]([C:3]([C:4]([C:5](=[O:6])[H:14])([H:12])[H:13])([H:10])[H:11])([H:8])[H:9])[H:7]>>[O:1]([C:2]([C:3](/[C:4](=[C:5](\[O:6][H:7])[H:14])[H:12])([H:10])[H:11])([H:8])[H:9])[H:13]"
O        1.17935891       0.99018218       0.15788542
C        1.42051308      -0.37978508      -0.23024511
C        0.04712116      -1.08413419      -0.16874477
C       -0.91302614      -0.21575740       0.63518627
C       -1.48550620       0.89473868       0.00654259
O       -0.92508450       1.52760167      -0.93495265
H        0.45548036       1.35540418      -0.54361721
H        2.13639764      -0.77923998       0.48781343
H        1.86174002      -0.38623356      -1.22456075
H        0.14392548      -2.06986307       0.28489662
H       -0.33250421      -1.22025412      -1.18415004
H       -1.45767635      -0.66434886       1.45513596
H        0.29132128       0.72675736       0.84965494
H       -2.42206047       1.30493216       0.40915532
14
Frame=1 idx=004083 GeodesicLength=0.09137489452198269 rxn_smarts="[O:1]([C:2]([C:3]([C:4]([C:5](=[O:6])[H:14])([H:12])[H:13])([H:10])[H:11])([H:8])[H:9])[H:7]>>[O:1]([C:2]([C:3](/[C:4](=[C:5](\[O:6][H:7])[H:14])[H:12])([H:10])[H:11])([H:8])[H:9])[H:13]"
O        1.19662239       0.98561285       0.17796018
C        1.41903548      -0.37809515      -0.23997885
C        0.05036827      -1.08536944      -0.15571569
C       -0.91938656      -0.21373873       0.63218071
C       -1.49032768       0.89471739      -0.00447118
O       -0.91858873       1.53483767      -0.93517602
H        0.47439890       1.37828022      -0.52730629
H        2.15659628      -0.79577597       0.44517579
H        1.82686326      -0.36640070      -1.24883034
H        0.15900082      -2.05826425       0.32342040
H       -0.33157347      -1.25064894      -1.16571186
H       -1.48930597      -0.67127940       1.43031118
H        0.29760651       0.72301306       0.87893455
H       -2.43130949       1.30311139       0.38920744
14
Frame=2 idx=004083 GeodesicLength=0.18276068513797128 rxn_smarts="[O:1]([C:2]([C:3]([C:4]([C:5](=[O:6])[H:14])([H:12])[H:13])([H:10])[H:11])([H:8])[H:9])[H:7]>>[O:1]([C:2]([C:3](/[C:4](=[C:5](\[O:6][H:7])[H:14])[H:12])([H:10])[H:11])([H:8])[H:9])[H:13]"
O        1.21397325       0.98033279       0.19793964
C        1.41715781      -0.37632569      -0.24978616
C        0.05363069      -1.08672451      -0.14253995
C       -0.92573373      -0.21177103       0.62895306
C       -1.49506410       0.89440586      -0.01614061
O       -0.91179846       1.54239578      -0.93518767
H        0.49362778       1.40115063      -0.51040590
H        2.17561188      -0.81183366       0.40075766
H        1.79073804      -0.34595854      -1.27184385
H        0.17443411      -2.04554234       0.36246242
H       -0.33026373      -1.28181878      -1.14625806
H       -1.52016257      -0.67815492       1.40440614
H        0.30391716       0.71847236       0.90867252
H       -2.44006814       1.30137204       0.36897076
14
Frame=3 idx=004083 GeodesicLength=0.27412789426203554 rxn_smarts="[O:1]([C:2]([C:3]([C:4]([C:5](=[O:6])[H:14])([H:12])[H:13])([H:10])[H:11])([H:8])[H:9])[H:7]>>[O:1]([C:2]([C:3](/[C:4](=[C:5](\[O:6][H:7])[H:14])[H:12])([H:10])[H:11])([H:8])[H:9])[H:13]"
O        1.23140343       0.97433654       0.21768627
C        1.41487763      -0.37449539      -0.25962557
C        0.05689616      -1.08817888      -0.12927864
C       -0.93203035      -0.20984913       0.62549382
C       -1.49973092       0.89378312      -0.02846458
O       -0.90479890       1.55032464      -0.93492444
H        0.51315665       1.42390880      -0.49305394
H        2.19325051      -0.82734333       0.35477082
H        1.75348763      -0.32504285      -1.29346648
H        0.19016690      -2.03164816       0.40186201
H       -0.32851199      -1.31362852      -1.12582998
H       -1.55008802      -0.68496730       1.37751038
H        0.31026876       0.71313738       0.93879797
H       -2.44834749       1.29966308       0.34852235
14
Frame=4 idx=004083 GeodesicLength=0.36546906301175475 rxn_smarts="[O:1]([C:2]([C:3]([C:4]([C:5](=[O:6])[H:14])([H:12])[H:13])([H:10])[H:11])([H:8])[H:9])[H:7]>>[O:1]([C:2]([C:3](/[C:4](=[C:5](\[O:6][H:7])[H:14])[H:12])([H:10])[H:11])([H:8])[H:9])[H:13]"
O        1.24892217       0.96762738       0.23706829
C        1.41220371      -0.37262836      -0.26944703
C        0.06015015      -1.08970708      -0.11599127
C       -0.93823797      -0.20795761       0.62180602
C       -1.50434121       0.89283459      -0.04143498
O       -0.89768468       1.55866999      -0.93431672
H        0.53298673       1.44645144      -0.47540319
H        2.20932680      -0.84225831       0.30743415
H        1.71523946      -0.30377956      -1.31357460
H        0.20613305      -2.01654281       0.44144732
H       -0.32626465      -1.34592524      -1.10447269
H       -1.57893969      -0.69171166       1.34972949
H        0.31669137       0.70701837       0.96924256
H       -2.45618523       1.29790885       0.32791265
14
Frame=5 idx=004083 GeodesicLength=0.45677253487474756 rxn_smarts="[O:1]([C:2]([C:3]([C:4]([C:5](=[O:6])[H:14])([H:12])[H:13])([H:10])[H:11])([H:8])[H:9])[H:7]>>[O:1]([C:2]([C:3](/[C:4](=[C:5](\[O:6][H:7])[H:14])[H:12])([H:10])[H:11])([H:8])[H:9])[H:13]"
O        1.26656534       0.96020632       0.25597219
C        1.40913462      -0.37073920      -0.27919527
C        0.06337912      -1.09128212      -0.10272069
C       -0.94431045      -0.20606538       0.61790980
C       -1.50889991       0.89155153      -0.05504628
O       -0.89054752       1.56747682      -0.93329282
H        0.55313309       1.46869355      -0.45758602
H        2.22366283      -0.85654011       0.25891718
H        1.67610976      -0.28229654      -1.33203286
H        0.22227582      -2.00018580       0.48103833
H       -0.32348123      -1.37855762      -1.08221516
H       -1.60661357      -0.69839179       1.32117001
H        0.32323896       0.70012245       0.99993151
H       -2.46364686       1.29600790       0.30715008
14
Frame=6 idx=004083 GeodesicLength=0.5480763043688219 rxn_smarts="[O:1]([C:2]([C:3]([C:4]([C:5](=[O:6])[H:14])([H:12])[H:13])([H:10])[H:11])([H:8])[H:9])[H:7]>>[O:1]([C:2]([C:3](/[C:4](=[C:5](\[O:6][H:7])[H:14])[H:12])([H:10])[H:11])([H:8])[H:9])[H:13]"
O        1.28431267       0.95215964       0.27430168
C        1.40572750      -0.36886458      -0.28884466
C        0.06656205      -1.09287126      -0.08952437
C       -0.95023104      -0.20416513       0.61381641
C       -1.51344406       0.88992481      -0.06925494
O       -0.88351690       1.57673609      -0.93182547
H        0.57360385       1.49057845      -0.43980643
H        2.23615238      -0.87021432       0.20955058
H        1.63637093      -0.26073535      -1.34880014
H        0.23844954      -1.98264402       0.52035984
H       -0.32014464      -1.41132653      -1.05914885
H       -1.63294534      -0.70494933       1.29204322
H        0.32991720       0.69249891       1.03083866
H       -2.47081412       1.29387260       0.28629447
14
Frame=7 idx=004083 GeodesicLength=0.6393932730712873 rxn_smarts="[O:1]([C:2]([C:3]([C:4]([C:5](=[O:6])[H:14])([H:12])[H:13])([H:10])[H:11])([H:8])[H:9])[H:7]>>[O:1]([C:2]([C:3](/[C:4](=[C:5](\[O:6][H:7])[H:14])[H:12])([H:10])[H:11])([H:8])[H:9])[H:13]"
O        1.30219076       0.94352179       0.29197139
C        1.40200230      -0.36701972      -0.29836160
C        0.06968560      -1.09444254      -0.07643824
C       -0.95597515      -0.20223180       0.60955182
C       -1.51798339       0.88795711      -0.08402914
O       -0.87669044       1.58646085      -0.92985845
H        0.59442896       1.51205386      -0.42221739
H        2.24667636      -0.88328233       0.15954688
H        1.59618599      -0.23920617      -1.36380382
H        0.25457348      -1.96394431       0.55920764
H       -0.31624171      -1.44406624      -1.03532313
H       -1.65785407      -0.71137218       1.26249106
H        0.33677189       0.68417502       1.06192963
H       -2.47777060       1.29139667       0.26533336
14
Frame=8 idx=004083 GeodesicLength=0.7307217289561019 rxn_smarts="[O:1]([C:2]([C:3]([C:4]([C:5](=[O:6])[H:14])([H:12])[H:13])([H:10])[H:11])([H:8])[H:9])[H:7]>>[O:1]([C:2]([C:3](/[C:4](=[C:5](\[O:6][H:7])[H:14])[H:12])([H:10])[H:11])([H:8])[H:9])[H:13]"
O        1.32021738       0.93433404       0.30891629
C        1.39798605      -0.36522215      -0.30771250
C        0.07273374      -1.09596403      -0.06349741
C       -0.96152134      -0.20024148       0.60514827
C       -1.52252876       0.88565192      -0.09933226
O       -0.87016347       1.59664858      -0.92734822
H        0.61564455       1.53307927      -0.40497050
H        2.25514539      -0.89574938       0.10911999
H        1.55572892      -0.21780577      -1.37699519
H        0.27055705      -1.94414268       0.59737548
H       -0.31177152      -1.47660808      -1.01079736
H       -1.68126361      -0.71763275       1.23266468
H        0.34384113       0.67517636       1.09318150
H       -2.48460551       1.28847615       0.24424724
14
Frame=9 idx=004083 GeodesicLength=0.8220765583464217 rxn_smarts="[O:1]([C:2]([C:3]([C:4]([C:5](=[O:6])[H:14])([H:12])[H:13])([H:10])[H:11])([H:8])[H:9])[H:7]>>[O:1]([C:2]([C:3](/[C:4](=[C:5](\[O:6][H:7])[H:14])[H:12])([H:10])[H:11])([H:8])[H:9])[H:13]"
O        1.33841797       0.92467540       0.32509025
C        1.39371017      -0.36345105      -0.31687710
C        0.07570508      -1.09738119      -0.05070326
C       -0.96685080      -0.19814633       0.60065173
C       -1.52708298       0.88303052      -0.11511631
O       -0.86402285       1.60732005      -0.92417769
H        0.63728739       1.55364594      -0.38822557
H        2.26156047      -0.90775084       0.05844278
H        1.51513774      -0.19665150      -1.38840187
H        0.28636524      -1.92328447       0.63474486
H       -0.30674740      -1.50879343      -0.98562776
H       -1.70320916      -0.72375218       1.20262978
H        0.35116279       0.66555941       1.12459516
H       -2.49143367       1.28497968       0.22297501
14
Frame=10 idx=004083 GeodesicLength=0.913465086909403 rxn_smarts="[O:1]([C:2]([C:3]([C:4]([C:5](=[O:6])[H:14])([H:12])[H:13])([H:10])[H:11])([H:8])[H:9])[H:7]>>[O:1]([C:2]([C:3](/[C:4](=[C:5](\[O:6][H:7])[H:14])[H:12])([H:10])[H:11])([H:8])[H:9])[H:13]"
O        1.35680762       0.91455247       0.34045251
C        1.38919579      -0.36174085      -0.32582061
C        0.07857320      -1.09868274      -0.03810437
C       -0.97195667      -0.19594436       0.59608369
C       -1.53165801       0.88008855      -0.13135212
O       -0.85835295       1.61842317      -0.92037854
H        0.65940211       1.57373204      -0.37211087
H        2.26587415      -0.91920222       0.00776191
H        1.47457629      -0.17574691      -1.39800534
H        0.30187393      -1.90149369       0.67110941
H       -0.30120355      -1.54046625      -0.95988932
H       -1.72360076      -0.72967020       1.17259149
H        0.35877221       0.65530143       1.15616215
H       -2.49830338       1.28084957       0.20150003
14
Frame=11 idx=004083 GeodesicLength=1.0048860592960387 rxn_smarts="[O:1]([C:2]([C:3]([C:4]([C:5](=[O:6])[H:14])([H:12])[H:13])([H:10])[H:11])([H:8])[H:9])[H:7]>>[O:1]([C:2]([C:3](/[C:4](=[C:5](\[O:6][H:7])[H:14])[H:12])([H:10])[H:11])([H:8])[H:9])[H:13]"
O        1.37540373       0.90401295       0.35497418
C        1.38446668      -0.36009063      -0.33452608
C        0.08132521      -1.09983983      -0.02571913
C       -0.97683182      -0.19360826       0.59147917
C       -1.53625200       0.87683709      -0.14800541
O       -0.85323047       1.62993055      -0.91590975
H        0.68203771       1.59334430      -0.35675648
H        2.26810694      -0.93011916      -0.04273016
H        1.43417991      -0.15512699      -1.40583765
H        0.31701349      -1.87888629       0.70633405
H       -0.29518212      -1.57149058      -0.93364776
H       -1.74246569      -0.73537592       1.14268595
H        0.36670697       0.64440767       1.18789078
H       -2.50527854       1.27600511       0.17976828
14
Frame=12 idx=004083 GeodesicLength=1.0963532093639363 rxn_smarts="[O:1]([C:2]([C:3]([C:4]([C:5](=[O:6])[H:14])([H:12])[H:13])([H:10])[H:11])([H:8])[H:9])[H:7]>>[O:1]([C:2]([C:3](/[C:4](=[C:5](\[O:6][H:7])[H:14])[H:12])([H:10])[H:11])([H:8])[H:9])[H:13]"
O        1.39421413       0.89310257       0.36864587
C        1.37954688      -0.35849749      -0.34297355
C        0.08394978      -1.10082600      -0.01356137
C       -0.98147927      -0.19111986       0.58687122
C       -1.54086614       0.87328611      -0.16504092
O       -0.84872461       1.64179423      -0.91076162
H        0.70523751       1.61249515      -0.34228638
H        2.26829069      -0.94052262      -0.09287741
H        1.39408421      -0.13480802      -1.41192678
H        0.33171958      -1.85558825       0.74029880
H       -0.28872330      -1.60173970      -0.90697255
H       -1.75981806      -0.74084400       1.11303847
H        0.37498608       0.63287708       1.21980926
H       -2.51241748       1.27039082       0.15773696
14
Frame=13 idx=004083 GeodesicLength=1.1878756263360148 rxn_smarts="[O:1]([C:2]([C:3]([C:4]([C:5](=[O:6])[H:14])([H:12])[H:13])([H:10])[H:11])([H:8])[H:9])[H:7]>>[O:1]([C:2]([C:3](/[C:4](=[C:5](\[O:6][H:7])[H:14])[H:12])([H:10])[H:11])([H:8])[H:9])[H:13]"
O        1.41325804       0.88187815       0.38145800
C        1.37445607      -0.35693625      -0.35115665
C        0.08644078      -1.10160754      -0.00162522
C       -0.98590192      -0.18844527       0.58229908
C       -1.54548734       0.86945208      -0.18243112
O       -0.84489572       1.65398984      -0.90486155
H        0.72904626       1.63122226      -0.32880771
H        2.26648600      -0.95048840      -0.14257050
H        1.35438765      -0.11479864      -1.41633001
H        0.34596755      -1.83170670       0.77295073
H       -0.28187495      -1.63112282      -0.87992105
H       -1.77574809      -0.74608126       1.08372523
H        0.38363611       0.62071224       1.25194935
H       -2.51977045       1.26393230       0.13532142
14
Frame=14 idx=004083 GeodesicLength=1.2794645636741135 rxn_smarts="[O:1]([C:2]([C:3]([C:4]([C:5](=[O:6])[H:14])([H:12])[H:13])([H:10])[H:11])([H:8])[H:9])[H:7]>>[O:1]([C:2]([C:3](/[C:4](=[C:5](\[O:6][H:7])[H:14])[H:12])([H:10])[H:11])([H:8])[H:9])[H:13]"
O        1.43253284       0.87035911       0.39342127
C        1.36921138      -0.35541419      -0.35905829
C        0.08878622      -1.10217763       0.01007372
C       -0.99011935      -0.18558779       0.57777723
C       -1.55011261       0.86534150      -0.20014715
O       -0.84179244       1.66643382      -0.89827037
H        0.75350826       1.64954139      -0.31641372
H        2.26273825      -0.95994970      -0.19168150
H        1.31519631      -0.09506414      -1.41907899
H        0.35969378      -1.80738757       0.80420828
H       -0.27468441      -1.65954929      -0.85255027
H       -1.79027849      -0.75106236       1.05486146
H        0.39266749       0.60787981       1.28434606
H       -2.52734722       1.25663704       0.11251227
14
Frame=15 idx=004083 GeodesicLength=1.3711326935106898 rxn_smarts="[O:1]([C:2]([C:3]([C:4]([C:5](=[O:6])[H:14])([H:12])[H:13])([H:10])[H:11])([H:8])[H:9])[H:7]>>[O:1]([C:2]([C:3](/[C:4](=[C:5](\[O:6][H:7])[H:14])[H:12])([H:10])[H:11])([H:8])[H:9])[H:13]"
O        1.45204320       0.85858027       0.40454873
C        1.36382642      -0.35391456      -0.36667125
C        0.09097992      -1.10251775       0.02153954
C       -0.99414826      -0.18253423       0.57332948
C       -1.55472699       0.86097044      -0.21816172
O       -0.83945825       1.67907063      -0.89098298
H        0.77866385       1.66748715      -0.30519209
H        2.25712494      -0.96891416      -0.24013036
H        1.27658499      -0.07557583      -1.42023183
H        0.37287483      -1.78274956       0.83405106
H       -0.26720204      -1.68695546      -0.82491206
H       -1.80349306      -0.75578530       1.02651263
H        0.40208744       0.59435398       1.31704093
H       -2.53515698       1.24848438       0.08925991
14
Frame=16 idx=004083 GeodesicLength=1.4628949228229198 rxn_smarts="[O:1]([C:2]([C:3]([C:4]([C:5](=[O:6])[H:14])([H:12])[H:13])([H:10])[H:11])([H:8])[H:9])[H:7]>>[O:1]([C:2]([C:3](/[C:4](=[C:5](\[O:6][H:7])[H:14])[H:12])([H:10])[H:11])([H:8])[H:9])[H:13]"
O        1.47178506       0.84657892       0.41485218
C        1.35831659      -0.35241877      -0.37398806
C        0.09301947      -1.10261229       0.03277737
C       -0.99801049      -0.17927880       0.56897374
C       -1.55931637       0.85635630      -0.23644509
O       -0.83793396       1.69182875      -0.88302161
H        0.80454531       1.68509197      -0.29523301
H        2.24971764      -0.97738061      -0.28784692
H        1.23863129      -0.05630325      -1.41983943
H        0.38549596      -1.75790483       0.86247339
H       -0.25946776      -1.71328918      -0.79705938
H       -1.81548608      -0.76026590       0.99872147
H        0.41189410       0.58010530       1.35008334
H       -2.54319076       1.23949239       0.06555201
