17
Frame=0 idx=009808 GeodesicLength=0.0 rxn_smarts="[C:1]1([H:8])([H:9])[C:2]([H:10])([H:11])[O:3][C:4]([H:12])([H:13])[C:5]([H:14])=[C:6]([H:15])[C:7]1([H:16])[H:17]>>[C:1]([C:2](=[O:3])[H:11])([C:7]([C:6]1([H:15])[C:4]([H:12])([H:13])[C:5]1([H:10])[H:14])([H:16])[H:17])([H:8])[H:9]"
C       -1.53355220      -0.19288402      -0.06040968
C       -0.69381205      -1.39394456       0.27181803
O        0.16324307      -1.84754106      -0.54047023
C        1.64855559      -0.47671073      -0.39406547
C        1.08283299       0.21208638       0.79389555
C        0.44391354       1.34108901       0.22085608
C       -0.69849251       1.00251707      -0.66290093
H       -2.08186681       0.12292778       0.83212654
H       -2.26985974      -0.45207603      -0.82435563
H        0.24999831      -0.54091657       1.23299905
H       -1.01235643      -2.00941318       1.12419059
H        2.65267162      -0.89155977      -0.31906759
H        1.37545299      -0.15483265      -1.38116519
H        1.81253394       0.41497378       1.57566581
H        0.57765575       2.34215967       0.61208869
H       -0.37165834       0.66029330      -1.64822429
H       -1.34525979       1.86383150      -0.83298132
17
Frame=1 idx=009808 GeodesicLength=0.10594506442266019 rxn_smarts="[C:1]1([H:8])([H:9])[C:2]([H:10])([H:11])[O:3][C:4]([H:12])([H:13])[C:5]([H:14])=[C:6]([H:15])[C:7]1([H:16])[H:17]>>[C:1]([C:2](=[O:3])[H:11])([C:7]([C:6]1([H:15])[C:4]([H:12])([H:13])[C:5]1([H:10])[H:14])([H:16])[H:17])([H:8])[H:9]"
C       -1.53544881      -0.19130712      -0.05279840
C       -0.69880563      -1.40023521       0.26222967
O        0.16680257      -1.83635718      -0.55427644
C        1.65110068      -0.46516427      -0.38312188
C        1.08637618       0.22136686       0.80641132
C        0.45255389       1.33690781       0.20430895
C       -0.70506716       0.99894327      -0.66343222
H       -2.05960597       0.12829588       0.85298661
H       -2.29244260      -0.44542754      -0.79797056
H        0.24284398      -0.56323815       1.24213036
H       -1.04227548      -2.04782814       1.07997133
H        2.65422858      -0.87971169      -0.28935365
H        1.40496417      -0.16506002      -1.38436801
H        1.81551315       0.44092295       1.58385478
H        0.60102729       2.34569862       0.56946665
H       -0.39053353       0.65933759      -1.65370972
H       -1.35123133       1.86285633      -0.82232877
17
Frame=2 idx=009808 GeodesicLength=0.21174530020858606 rxn_smarts="[C:1]1([H:8])([H:9])[C:2]([H:10])([H:11])[O:3][C:4]([H:12])([H:13])[C:5]([H:14])=[C:6]([H:15])[C:7]1([H:16])[H:17]>>[C:1]([C:2](=[O:3])[H:11])([C:7]([C:6]1([H:15])[C:4]([H:12])([H:13])[C:5]1([H:10])[H:14])([H:16])[H:17])([H:8])[H:9]"
C       -1.53714264      -0.18978290      -0.04485485
C       -0.70373809      -1.40644318       0.25292800
O        0.17031175      -1.82498344      -0.56754678
C        1.65351266      -0.45374199      -0.37207919
C        1.09003235       0.23155182       0.81869224
C        0.46110584       1.33267577       0.18750369
C       -0.71178291       0.99547065      -0.66371358
H       -2.03677885       0.13311490       0.87371542
H       -2.31447058      -0.43872601      -0.77056931
H        0.23610682      -0.58609769       1.25114033
H       -1.07276133      -2.08528433       1.03289056
H        2.65505540      -0.86860137      -0.25919576
H        1.43556232      -0.17636699      -1.38665543
H        1.81861703       0.46822792       1.59129479
H        0.62368704       2.34839349       0.52646694
H       -0.41007283       0.65862188      -1.65897000
H       -1.35724398       1.86197147      -0.81104707
17
Frame=3 idx=009808 GeodesicLength=0.31741123986666253 rxn_smarts="[C:1]1([H:8])([H:9])[C:2]([H:10])([H:11])[O:3][C:4]([H:12])([H:13])[C:5]([H:14])=[C:6]([H:15])[C:7]1([H:16])[H:17]>>[C:1]([C:2](=[O:3])[H:11])([C:7]([C:6]1([H:15])[C:4]([H:12])([H:13])[C:5]1([H:10])[H:14])([H:16])[H:17])([H:8])[H:9]"
C       -1.53862523      -0.18832876      -0.03655931
C       -0.70862097      -1.41260545       0.24392387
O        0.17374869      -1.81342582      -0.58030394
C        1.65580461      -0.44246820      -0.36094026
C        1.09380877       0.24267900       0.83069529
C        0.46956196       1.32837584       0.17040609
C       -0.71865560       0.99208465      -0.66372899
H       -2.01337847       0.13738862       0.89431809
H       -2.33592933      -0.43198046      -0.74211158
H        0.22978892      -0.60952548       1.26002419
H       -1.10371724      -2.12156798       0.98278115
H        2.65513739      -0.85824345      -0.22854088
H        1.46728110      -0.18884000      -1.38790939
H        1.82183412       0.49691564       1.59792406
H        0.64558225       2.35025333       0.48310393
H       -0.43032346       0.65812857      -1.66397465
H       -1.36329750       1.86115994      -0.79910768
17
Frame=4 idx=009808 GeodesicLength=0.4229316960345812 rxn_smarts="[C:1]1([H:8])([H:9])[C:2]([H:10])([H:11])[O:3][C:4]([H:12])([H:13])[C:5]([H:14])=[C:6]([H:15])[C:7]1([H:16])[H:17]>>[C:1]([C:2](=[O:3])[H:11])([C:7]([C:6]1([H:15])[C:4]([H:12])([H:13])[C:5]1([H:10])[H:14])([H:16])[H:17])([H:8])[H:9]"
C       -1.53988835      -0.18696962      -0.02789374
C       -0.71347162      -1.41876556       0.23521655
O        0.17709022      -1.80168456      -0.59258043
C        1.65798491      -0.43136285      -0.34970384
C        1.09770275       0.25478284       0.84238159
C        0.47790560       1.32398461       0.15299063
C       -0.72570645       0.98877023      -0.66345609
H       -1.98939230       0.14110265       0.91479942
H       -2.35679692      -0.42520726      -0.71255362
H        0.22388787      -0.63355914       1.26877036
H       -1.13502789      -2.15642234       0.92947616
H        2.65445190      -0.84865829      -0.19732551
H        1.50016510      -0.20255865      -1.38799223
H        1.82514441       0.52700932       1.60367399
H        0.66668907       2.35128970       0.43934361
H       -0.45134024       0.65784535      -1.66868243
H       -1.36939804       1.86040358      -0.78646442
17
Frame=5 idx=009808 GeodesicLength=0.5284202593950693 rxn_smarts="[C:1]1([H:8])([H:9])[C:2]([H:10])([H:11])[O:3][C:4]([H:12])([H:13])[C:5]([H:14])=[C:6]([H:15])[C:7]1([H:16])[H:17]>>[C:1]([C:2](=[O:3])[H:11])([C:7]([C:6]1([H:15])[C:4]([H:12])([H:13])[C:5]1([H:10])[H:14])([H:16])[H:17])([H:8])[H:9]"
C       -1.54094044      -0.18572631      -0.01886619
C       -0.71828189      -1.42497331       0.22672845
O        0.18035590      -1.78975407      -0.60447054
C        1.66008674      -0.42044950      -0.33834099
C        1.10175958       0.26786623       0.85368513
C        0.48615149       1.31948084       0.13519920
C       -0.73295173       0.98553138      -0.66289326
H       -1.96481461       0.14418268       0.93517733
H       -2.37709814      -0.41838479      -0.68189176
H        0.21833913      -0.65826165       1.27735580
H       -1.16661896      -2.18970168       0.87306742
H        2.65295984      -0.83977881      -0.16542254
H        1.53419513      -0.21757721      -1.38676535
H        1.82856277       0.55850305       1.60846960
H        0.68701969       2.35151090       0.39514862
H       -0.47318629       0.65781753      -1.67309107
H       -1.37553821       1.85971471      -0.77308983
17
Frame=6 idx=009808 GeodesicLength=0.6338098606070476 rxn_smarts="[C:1]1([H:8])([H:9])[C:2]([H:10])([H:11])[O:3][C:4]([H:12])([H:13])[C:5]([H:14])=[C:6]([H:15])[C:7]1([H:16])[H:17]>>[C:1]([C:2](=[O:3])[H:11])([C:7]([C:6]1([H:15])[C:4]([H:12])([H:13])[C:5]1([H:10])[H:14])([H:16])[H:17])([H:8])[H:9]"
C       -1.54176551      -0.18463157      -0.00945341
C       -0.72309870      -1.43127661       0.21847063
O        0.18350184      -1.77763329      -0.61598496
C        1.66209635      -0.40974869      -0.32686292
C        1.10594672       0.28198654       0.86458896
C        0.49426022       1.31482661       0.11702934
C       -0.74041301       0.98234320      -0.66200373
H       -1.93963375       0.14664641       0.95543650
H       -2.39678207      -0.41155491      -0.65007082
H        0.21314946      -0.68369781       1.28575974
H       -1.19824633      -2.22101863       0.81330103
H        2.65061101      -0.83167280      -0.13280635
H        1.56940033      -0.23399227      -1.38406034
H        1.83205274       0.59144162       1.61225210
H        0.70654246       2.35091389       0.35046296
H       -0.49590351       0.65800839      -1.67713555
H       -1.38171824       1.85905992      -0.75892317
17
Frame=7 idx=009808 GeodesicLength=0.7390971915665014 rxn_smarts="[C:1]1([H:8])([H:9])[C:2]([H:10])([H:11])[O:3][C:4]([H:12])([H:13])[C:5]([H:14])=[C:6]([H:15])[C:7]1([H:16])[H:17]>>[C:1]([C:2](=[O:3])[H:11])([C:7]([C:6]1([H:15])[C:4]([H:12])([H:13])[C:5]1([H:10])[H:14])([H:16])[H:17])([H:8])[H:9]"
C       -1.54236209      -0.18370884       0.00033456
C       -0.72795543      -1.43772961       0.21038622
O        0.18650979      -1.76532303      -0.62717554
C        1.66401259      -0.39928302      -0.31527023
C        1.11026138       0.29716753       0.87504713
C        0.50221218       1.30998405       0.09845934
C       -0.74810529       0.97919817      -0.66077287
H       -1.91384773       0.14846968       0.97555759
H       -2.41582991      -0.40472465      -0.61708384
H        0.20827883      -0.70994961       1.29394570
H       -1.22965944      -2.25004975       0.75018540
H        2.64734434      -0.82433803      -0.09941418
H        1.60576082      -0.25188971      -1.37970550
H        1.83560919       0.62582967       1.61493381
H        0.72522194       2.34948563       0.30527938
H       -0.51952695       0.65842910      -1.68078318
H       -1.38792423       1.85843242      -0.74392379
17
Frame=8 idx=009808 GeodesicLength=0.844260992291756 rxn_smarts="[C:1]1([H:8])([H:9])[C:2]([H:10])([H:11])[O:3][C:4]([H:12])([H:13])[C:5]([H:14])=[C:6]([H:15])[C:7]1([H:16])[H:17]>>[C:1]([C:2](=[O:3])[H:11])([C:7]([C:6]1([H:15])[C:4]([H:12])([H:13])[C:5]1([H:10])[H:14])([H:16])[H:17])([H:8])[H:9]"
C       -1.54272894      -0.18299052       0.01048050
C       -0.73288500      -1.44438812       0.20237790
O        0.18937500      -1.75281472      -0.63812553
C        1.66583979      -0.38906892      -0.30355631
C        1.11468568       0.31343372       0.88502121
C        0.50998037       1.30490976       0.07947484
C       -0.75604655       0.97608930      -0.65917794
H       -1.88743747       0.14960353       0.99552119
H       -2.43421800      -0.39791678      -0.58291706
H        0.20369105      -0.73712471       1.30185132
H       -1.26063503      -2.27642746       0.68380053
H        2.64310455      -0.81777837      -0.06518214
H        1.64326257      -0.27132456      -1.37351625
H        1.83920159       0.66167452       1.61644183
H        0.74305685       2.34720005       0.25953154
H       -0.54410221       0.65909918      -1.68399389
H       -1.39414427       1.85782411      -0.72803172
17
Frame=9 idx=009808 GeodesicLength=0.9495338785848081 rxn_smarts="[C:1]1([H:8])([H:9])[C:2]([H:10])([H:11])[O:3][C:4]([H:12])([H:13])[C:5]([H:14])=[C:6]([H:15])[C:7]1([H:16])[H:17]>>[C:1]([C:2](=[O:3])[H:11])([C:7]([C:6]1([H:15])[C:4]([H:12])([H:13])[C:5]1([H:10])[H:14])([H:16])[H:17])([H:8])[H:9]"
C       -1.54286241      -0.18248864       0.02095758
C       -0.73787791      -1.45129939       0.19429248
O        0.19214888      -1.74011907      -0.64892971
C        1.66759863      -0.37911495      -0.29167407
C        1.11930193       0.33079479       0.89441602
C        0.51758415       1.29958670       0.06002578
C       -0.76423319       0.97303750      -0.65722213
H       -1.86037632       0.14996105       1.01532105
H       -2.45194674      -0.39109057      -0.54758557
H        0.19924434      -0.76536967       1.30945745
H       -1.29113248      -2.30015542       0.61438964
H        2.63780080      -0.81183932      -0.02994943
H        1.68175663      -0.29231660      -1.36530002
H        1.84291662       0.69898929       1.61662382
H        0.76007764       2.34405754       0.21316198
H       -0.56965951       0.66010062      -1.68675035
H       -1.40034106       1.85726612      -0.71123452
17
Frame=10 idx=009808 GeodesicLength=1.0547116729935553 rxn_smarts="[C:1]1([H:8])([H:9])[C:2]([H:10])([H:11])[O:3][C:4]([H:12])([H:13])[C:5]([H:14])=[C:6]([H:15])[C:7]1([H:16])[H:17]>>[C:1]([C:2](=[O:3])[H:11])([C:7]([C:6]1([H:15])[C:4]([H:12])([H:13])[C:5]1([H:10])[H:14])([H:16])[H:17])([H:8])[H:9]"
C       -1.54275361      -0.18224834       0.03174625
C       -0.74301459      -1.45850961       0.18603500
O        0.19478791      -1.72721463      -0.65964998
C        1.66925473      -0.36943920      -0.27964817
C        1.12402186       0.34930155       0.90323819
C        0.52495989       1.29395078       0.04013545
C       -0.77269096       0.97002470      -0.65486892
H       -1.83264425       0.14952044       1.03490968
H       -2.46895501      -0.38433061      -0.51106096
H        0.19494667      -0.79481546       1.31663830
H       -1.32071282      -2.32059386       0.54198442
H        2.63134638      -0.80663297       0.00626532
H        1.72126804      -0.31495856      -1.35482228
H        1.84666939       0.73779182       1.61543666
H        0.77625412       2.34000342       0.16608804
H       -0.59623476       0.66142433      -1.68899213
H       -1.40650298       1.85672621      -0.69343488
17
Frame=11 idx=009808 GeodesicLength=1.1597985938391935 rxn_smarts="[C:1]1([H:8])([H:9])[C:2]([H:10])([H:11])[O:3][C:4]([H:12])([H:13])[C:5]([H:14])=[C:6]([H:15])[C:7]1([H:16])[H:17]>>[C:1]([C:2](=[O:3])[H:11])([C:7]([C:6]1([H:15])[C:4]([H:12])([H:13])[C:5]1([H:10])[H:14])([H:16])[H:17])([H:8])[H:9]"
C       -1.54239796      -0.18228576       0.04280191
C       -0.74833239      -1.46605151       0.17744079
O        0.19730095      -1.71409882      -0.67036989
C        1.67079729      -0.36005136      -0.26747020
C        1.12884615       0.36898067       0.91143134
C        0.53208832       1.28796472       0.01979311
C       -0.78142007       0.96706606      -0.65210839
H       -1.80422155       0.14822140       1.05423643
H       -2.48520209      -0.37765648      -0.47336167
H        0.19071318      -0.82561731       1.32330227
H       -1.34911495      -2.33750010       0.46687107
H        2.62362838      -0.80211829       0.04353649
H        1.76168539      -0.33928643      -1.34185855
H        1.85048244       0.77808126       1.61275181
H        0.79157491       2.33500281       0.11827613
H       -0.62384339       0.66313078      -1.69068356
H       -1.41258460       1.85621837      -0.67458910
17
Frame=12 idx=009808 GeodesicLength=1.2647932798072774 rxn_smarts="[C:1]1([H:8])([H:9])[C:2]([H:10])([H:11])[O:3][C:4]([H:12])([H:13])[C:5]([H:14])=[C:6]([H:15])[C:7]1([H:16])[H:17]>>[C:1]([C:2](=[O:3])[H:11])([C:7]([C:6]1([H:15])[C:4]([H:12])([H:13])[C:5]1([H:10])[H:14])([H:16])[H:17])([H:8])[H:9]"
C       -1.54177892      -0.18262704       0.05408171
C       -0.75386678      -1.47394602       0.16831891
O        0.19970414      -1.70075339      -0.68119748
C        1.67221681      -0.35095784      -0.25511490
C        1.13375504       0.38988328       0.91894879
C        0.53894674       1.28158845      -0.00100510
C       -0.79042391       0.96417463      -0.64891947
H       -1.77505707       0.14598388       1.07325540
H       -2.50063373      -0.37111322      -0.43449383
H        0.18647794      -0.85797635       1.32931763
H       -1.37612808      -2.35058267       0.38935594
H        2.61454292      -0.79827026       0.08194751
H        1.80289556      -0.36531308      -1.32616317
H        1.85435023       0.81988240       1.60844670
H        0.80605348       2.32900023       0.06962715
H       -0.65251038       0.66528096      -1.69177928
H       -1.41854400       1.85574606      -0.65462652
17
Frame=13 idx=009808 GeodesicLength=1.3698989475056054 rxn_smarts="[C:1]1([H:8])([H:9])[C:2]([H:10])([H:11])[O:3][C:4]([H:12])([H:13])[C:5]([H:14])=[C:6]([H:15])[C:7]1([H:16])[H:17]>>[C:1]([C:2](=[O:3])[H:11])([C:7]([C:6]1([H:15])[C:4]([H:12])([H:13])[C:5]1([H:10])[H:14])([H:16])[H:17])([H:8])[H:9]"
C       -1.54086009      -0.18328557       0.06556296
C       -0.75958820      -1.48221759       0.15848998
O        0.20208140      -1.68720820      -0.69220381
C        1.67352312      -0.34213859      -0.24251773
C        1.13885460       0.41206616       0.92568560
C        0.54555921       1.27482133      -0.02230164
C       -0.79967403       0.96138400      -0.64529258
H       -1.74508345       0.14270386       1.09194779
H       -2.51516224      -0.36473110      -0.39447356
H        0.18207516      -0.89210475       1.33464563
H       -1.40191790      -2.35995761       0.30967966
H        2.60395540      -0.79487025       0.12165712
H        1.84464173      -0.39301860      -1.30748655
H        1.85842935       0.86325476       1.60229096
H        0.81970240       2.32198188       0.02006442
H       -0.68222439       0.66797875      -1.69223066
H       -1.42431208       1.85534151      -0.63351761
17
Frame=14 idx=009808 GeodesicLength=1.47487542260107 rxn_smarts="[C:1]1([H:8])([H:9])[C:2]([H:10])([H:11])[O:3][C:4]([H:12])([H:13])[C:5]([H:14])=[C:6]([H:15])[C:7]1([H:16])[H:17]>>[C:1]([C:2](=[O:3])[H:11])([C:7]([C:6]1([H:15])[C:4]([H:12])([H:13])[C:5]1([H:10])[H:14])([H:16])[H:17])([H:8])[H:9]"
C       -1.53962986      -0.18428926       0.07719065
C       -0.76556956      -1.49086308       0.14775846
O        0.20441150      -1.67342066      -0.70347650
C        1.67467218      -0.33360792      -0.22968533
C        1.14405631       0.43560774       0.93163584
C        0.55187308       1.26760659      -0.04406569
C       -0.80918020       0.95869884      -0.64120204
H       -1.71424915       0.13831889       1.11023847
H       -2.52872543      -0.35860848      -0.35329511
H        0.17750612      -0.92819093       1.33906903
H       -1.42605254      -2.36511889       0.22816375
H        2.59172477      -0.79200677       0.16266116
H        1.88684214      -0.42244505      -1.28553519
H        1.86265153       0.90821911       1.59420853
H        0.83252036       2.31385889      -0.03050915
H       -0.71300720       0.67125558      -1.69198702
H       -1.42984404       1.85498538      -0.61116987
17
Frame=15 idx=009808 GeodesicLength=1.5797260077238608 rxn_smarts="[C:1]1([H:8])([H:9])[C:2]([H:10])([H:11])[O:3][C:4]([H:12])([H:13])[C:5]([H:14])=[C:6]([H:15])[C:7]1([H:16])[H:17]>>[C:1]([C:2](=[O:3])[H:11])([C:7]([C:6]1([H:15])[C:4]([H:12])([H:13])[C:5]1([H:10])[H:14])([H:16])[H:17])([H:8])[H:9]"
C       -1.53805038      -0.18565114       0.08893053
C       -0.77182086      -1.49987281       0.13593974
O        0.20673399      -1.65938899      -0.71508278
C        1.67564189      -0.32535554      -0.21656131
C        1.14939112       0.46059599       0.93672808
C        0.55788225       1.25992429      -0.06630091
C       -0.81891910       0.95614564      -0.63662624
H       -1.68247132       0.13273757       1.12807923
H       -2.54122707      -0.35281202      -0.31097279
H        0.17267346      -0.96645640       1.34246638
H       -1.44848321      -2.36600711       0.14507200
H        2.57769329      -0.78956968       0.20506826
H        1.92924454      -0.45356230      -1.26002567
H        1.86710372       0.95482566       1.58399662
H        0.84451710       2.30457139      -0.08219262
H       -0.74484624       0.67519043      -1.69098781
H       -1.43506318       1.85468503      -0.58753071
17
Frame=16 idx=009808 GeodesicLength=1.684468024802801 rxn_smarts="[C:1]1([H:8])([H:9])[C:2]([H:10])([H:11])[O:3][C:4]([H:12])([H:13])[C:5]([H:14])=[C:6]([H:15])[C:7]1([H:16])[H:17]>>[C:1]([C:2](=[O:3])[H:11])([C:7]([C:6]1([H:15])[C:4]([H:12])([H:13])[C:5]1([H:10])[H:14])([H:16])[H:17])([H:8])[H:9]"
C       -1.53606943      -0.18739210       0.10076676
C       -0.77834049      -1.50924505       0.12284845
O        0.20910382      -1.64511824      -0.72708242
C        1.67640900      -0.31736025      -0.20307192
C        1.15490099       0.48714667       0.94088322
C        0.56358649       1.25176022      -0.08901500
C       -0.82886487       0.95374791      -0.63153148
H       -1.64964700       0.12585775       1.14543801
H       -2.55255150      -0.34743453      -0.26750404
H        0.16747956      -1.00714912       1.34471691
H       -1.46924477      -2.36255775       0.06057630
H        2.56167807      -0.78742673       0.24901899
H        1.97157537      -0.48632314      -1.23064104
H        1.87189589       1.00315244       1.57141587
H        0.85571271       2.29404117      -0.13513307
H       -0.77773192       0.67985685      -1.68915558
H       -1.43989193       1.85444390      -0.56252997
