15
Frame=0 idx=006400 GeodesicLength=0.0 rxn_smarts="[C:1]([C@@:2]1([H:11])[O:3]/[C:4](=[N:5]\[H:12])[C@:6]1([N:7]([H:14])[H:15])[H:13])([H:8])([H:9])[H:10]>>[C:1](/[C:2](=[C:6](\[N:7]([H:14])[H:15])[H:13])[H:11])([H:8])([H:9])[H:10].[O:3]=[C:4]=[N:5][H:12]"
C        1.75477338       0.15092428       0.50422887
C        0.88405713      -0.04187079      -0.65602240
O       -0.20963146      -2.00161524      -0.67014981
C       -0.91622868      -1.11131657      -0.14440570
N       -1.83316117      -1.00546383       0.71702098
C       -0.45598305       0.43298500      -0.70281782
N       -0.83795645       1.45389431       0.22220321
H        1.18860505       0.43290044       1.38870921
H        2.41240694       0.99218426       0.24536360
H        2.38884851      -0.71850742       0.67045277
H        1.30106282      -0.52849264      -1.52716384
H       -2.05372607      -1.90462926       1.13415612
H       -0.87879318       0.47608457      -1.70748173
H       -1.14219157       2.28739404      -0.25834280
H       -1.60208214       1.08552885       0.78424939
15
Frame=1 idx=006400 GeodesicLength=0.1219146546237022 rxn_smarts="[C:1]([C@@:2]1([H:11])[O:3]/[C:4](=[N:5]\[H:12])[C@:6]1([N:7]([H:14])[H:15])[H:13])([H:8])([H:9])[H:10]>>[C:1](/[C:2](=[C:6](\[N:7]([H:14])[H:15])[H:13])[H:11])([H:8])([H:9])[H:10].[O:3]=[C:4]=[N:5][H:12]"
C        1.78699170       0.17498417       0.48425628
C        0.88803654      -0.05229089      -0.65065171
O       -0.17870240      -2.02728285      -0.56100015
C       -0.91600711      -1.12898369      -0.09279996
N       -1.91045954      -1.02089934       0.67414584
C       -0.45267424       0.42369676      -0.68730373
N       -0.81748129       1.46139323       0.22286042
H        1.23634411       0.44393355       1.38308325
H        2.41736902       1.03092104       0.20722249
H        2.44532013      -0.67865562       0.64053941
H        1.29972402      -0.52950685      -1.53015595
H       -2.21601260      -1.93219770       1.00316334
H       -0.87957696       0.46760332      -1.69013148
H       -1.17934553       2.26962359      -0.26078172
H       -1.52352583       1.09766130       0.85755366
15
Frame=2 idx=006400 GeodesicLength=0.23809978091299366 rxn_smarts="[C:1]([C@@:2]1([H:11])[O:3]/[C:4](=[N:5]\[H:12])[C@:6]1([N:7]([H:14])[H:15])[H:13])([H:8])([H:9])[H:10]>>[C:1](/[C:2](=[C:6](\[N:7]([H:14])[H:15])[H:13])[H:11])([H:8])([H:9])[H:10].[O:3]=[C:4]=[N:5][H:12]"
C        1.81733669       0.19819686       0.46353907
C        0.89013169      -0.06536273      -0.64354682
O       -0.15144762      -2.04812282      -0.44068601
C       -0.91921150      -1.14401999      -0.03561473
N       -1.97957535      -1.03467095       0.63314310
C       -0.44990644       0.41448518      -0.67071420
N       -0.79907635       1.46723787       0.22496503
H        1.28513197       0.45705151       1.37649445
H        2.41998233       1.06661735       0.16673558
H        2.49879429      -0.63891227       0.61012703
H        1.29393845      -0.53677492      -1.53023702
H       -2.36243675      -1.95091142       0.84938416
H       -0.88113218       0.45926631      -1.67158216
H       -1.22043491       2.24696800      -0.25675981
H       -1.44209431       1.10895202       0.92475236
15
Frame=3 idx=006400 GeodesicLength=0.3548710798602335 rxn_smarts="[C:1]([C@@:2]1([H:11])[O:3]/[C:4](=[N:5]\[H:12])[C@:6]1([N:7]([H:14])[H:15])[H:13])([H:8])([H:9])[H:10]>>[C:1](/[C:2](=[C:6](\[N:7]([H:14])[H:15])[H:13])[H:11])([H:8])([H:9])[H:10].[O:3]=[C:4]=[N:5][H:12]"
C        1.84514852       0.21892779       0.44277716
C        0.89032302      -0.08008167      -0.63501577
O       -0.12908415      -2.06381222      -0.31353423
C       -0.92890186      -1.15710597       0.02152907
N       -2.04568853      -1.05069027       0.58950719
C       -0.44860206       0.40669499      -0.65468734
N       -0.78480327       1.47330906       0.22803552
H        1.33213867       0.47185005       1.36892268
H        2.42340100       1.09739824       0.12559047
H        2.54710686      -0.60454266       0.58052768
H        1.28573192      -0.54852859      -1.52770944
H       -2.47818631      -1.96562557       0.69131501
H       -0.88246517       0.45371401      -1.65419761
H       -1.26039554       2.22692340      -0.24612009
H       -1.36572310       1.12156942       0.98305970
15
Frame=4 idx=006400 GeodesicLength=0.4654770182045255 rxn_smarts="[C:1]([C@@:2]1([H:11])[O:3]/[C:4](=[N:5]\[H:12])[C@:6]1([N:7]([H:14])[H:15])[H:13])([H:8])([H:9])[H:10]>>[C:1](/[C:2](=[C:6](\[N:7]([H:14])[H:15])[H:13])[H:11])([H:8])([H:9])[H:10].[O:3]=[C:4]=[N:5][H:12]"
C        1.86868052       0.23764666       0.42164440
C        0.88738859      -0.09754365      -0.62494153
O       -0.11156298      -2.07204790      -0.17778993
C       -0.94164424      -1.16710115       0.08218578
N       -2.10263716      -1.06801312       0.54887902
C       -0.44822381       0.39906563      -0.63792398
N       -0.77094993       1.47785988       0.23189042
H        1.37810172       0.48732680       1.36082996
H        2.42142482       1.12338775       0.08296818
H        2.58912276      -0.57062685       0.55071207
H        1.27219234      -0.56539594      -1.52322838
H       -2.56974202      -1.97112081       0.51597293
H       -0.88460349       0.44967969      -1.63624761
H       -1.30102913       2.20122333      -0.23079021
H       -1.28651800       1.13565969       1.03583889
15
Frame=5 idx=006400 GeodesicLength=0.5775629084787369 rxn_smarts="[C:1]([C@@:2]1([H:11])[O:3]/[C:4](=[N:5]\[H:12])[C@:6]1([N:7]([H:14])[H:15])[H:13])([H:8])([H:9])[H:10]>>[C:1](/[C:2](=[C:6](\[N:7]([H:14])[H:15])[H:13])[H:11])([H:8])([H:9])[H:10].[O:3]=[C:4]=[N:5][H:12]"
C        1.88994800       0.25328494       0.40028041
C        0.88220958      -0.11644004      -0.61315086
O       -0.10058468      -2.07246778      -0.03666307
C       -0.96108528      -1.17464021       0.14170872
N       -2.15881222      -1.08999347       0.50232722
C       -0.44959532       0.39325314      -0.62162869
N       -0.75996194       1.48372471       0.23635980
H        1.42247767       0.50313260       1.35145223
H        2.42010262       1.14439809       0.03984312
H        2.62696123      -0.54252522       0.52077364
H        1.25600970      -0.58562531      -1.51597887
H       -2.63001910      -1.97837242       0.34291054
H       -0.88654725       0.44939497      -1.61936141
H       -1.33883193       2.17984183      -0.21050054
H       -1.21227108       1.15303416       1.08162777
15
Frame=6 idx=006400 GeodesicLength=0.6877411595058004 rxn_smarts="[C:1]([C@@:2]1([H:11])[O:3]/[C:4](=[N:5]\[H:12])[C@:6]1([N:7]([H:14])[H:15])[H:13])([H:8])([H:9])[H:10]>>[C:1](/[C:2](=[C:6](\[N:7]([H:14])[H:15])[H:13])[H:11])([H:8])([H:9])[H:10].[O:3]=[C:4]=[N:5][H:12]"
C        1.90698343       0.26582732       0.37848522
C        0.87416672      -0.13726614      -0.59986401
O       -0.09669678      -2.06318199       0.11027458
C       -0.98522673      -1.17878083       0.20229936
N       -2.21006261      -1.11609968       0.45214660
C       -0.45197825       0.38888100      -0.60533628
N       -0.74969542       1.48992299       0.24118762
H        1.46446838       0.51882374       1.34115274
H        2.41521448       1.15959685      -0.00437033
H        2.65801111      -0.51769829       0.49027998
H        1.23607801      -0.60940216      -1.50696399
H       -2.66094575      -1.98356431       0.16650478
H       -0.88793727       0.45265135      -1.60305361
H       -1.37582206       2.15656548      -0.18578316
H       -1.13655725       1.17372467       1.12304050
15
Frame=7 idx=006400 GeodesicLength=0.7981645345874478 rxn_smarts="[C:1]([C@@:2]1([H:11])[O:3]/[C:4](=[N:5]\[H:12])[C@:6]1([N:7]([H:14])[H:15])[H:13])([H:8])([H:9])[H:10]>>[C:1](/[C:2](=[C:6](\[N:7]([H:14])[H:15])[H:13])[H:11])([H:8])([H:9])[H:10].[O:3]=[C:4]=[N:5][H:12]"
C        1.92154758       0.27467601       0.35654696
C        0.86308531      -0.15904042      -0.58490559
O       -0.10132789      -2.04298881       0.26080883
C       -1.01588398      -1.17936029       0.26181448
N       -2.25834884      -1.14810841       0.39409812
C       -0.45626664       0.38687352      -0.58943402
N       -0.74100793       1.49811132       0.24629273
H        1.50526374       0.53356801       1.32960436
H        2.41036987       1.16931393      -0.04865268
H        2.68460509      -0.49908577       0.45943803
H        1.21211845      -0.63522838      -1.49560651
H       -2.66187732      -1.99496716      -0.00457819
H       -0.88955029       0.46029150      -1.58760664
H       -1.41038810       2.13729536      -0.15706083
H       -1.06233904       1.19864958       1.15924093
15
Frame=8 idx=006400 GeodesicLength=0.9077025924926074 rxn_smarts="[C:1]([C@@:2]1([H:11])[O:3]/[C:4](=[N:5]\[H:12])[C@:6]1([N:7]([H:14])[H:15])[H:13])([H:8])([H:9])[H:10]>>[C:1](/[C:2](=[C:6](\[N:7]([H:14])[H:15])[H:13])[H:11])([H:8])([H:9])[H:10].[O:3]=[C:4]=[N:5][H:12]"
C        1.93204836       0.27949509       0.33431578
C        0.84878616      -0.18167567      -0.56860212
O       -0.11525884      -2.01021109       0.41415550
C       -1.05244205      -1.17590583       0.32058060
N       -2.30004495      -1.18655630       0.32999773
C       -0.46187138       0.38730493      -0.57390967
N       -0.73300176       1.50777879       0.25147562
H        1.54329318       0.54669442       1.31686873
H        2.40326180       1.17252758      -0.09311850
H        2.70433587      -0.48587678       0.42784922
H        1.18433153      -0.66255036      -1.48270824
H       -2.63297580      -2.00975553      -0.17120084
H       -0.89064531       0.47250072      -1.57296688
H       -1.44352467       2.11834141      -0.12386713
H       -0.98629214       1.22788863       1.19113019
15
Frame=9 idx=006400 GeodesicLength=1.017139159777959 rxn_smarts="[C:1]([C@@:2]1([H:11])[O:3]/[C:4](=[N:5]\[H:12])[C@:6]1([N:7]([H:14])[H:15])[H:13])([H:8])([H:9])[H:10]>>[C:1](/[C:2](=[C:6](\[N:7]([H:14])[H:15])[H:13])[H:11])([H:8])([H:9])[H:10].[O:3]=[C:4]=[N:5][H:12]"
C        1.93903365       0.27977436       0.31237251
C        0.83105543      -0.20430420      -0.55150241
O       -0.13923699      -1.96451961       0.56683384
C       -1.09542117      -1.16861486       0.37684741
N       -2.33368359      -1.23265700       0.25989510
C       -0.46926203       0.39072485      -0.55928007
N       -0.72592443       1.51974264       0.25651346
H        1.57867321       0.55660590       1.30340430
H        2.39524802       1.16970006      -0.13602111
H        2.71799995      -0.47966800       0.39593524
H        1.15251795      -0.68953939      -1.46909533
H       -2.57491840      -2.03076445      -0.32758064
H       -0.89212711       0.48951448      -1.55943785
H       -1.47453066       2.10235800      -0.08676063
H       -0.90942382       1.26164720       1.21787616
15
Frame=10 idx=006400 GeodesicLength=1.1267386911907402 rxn_smarts="[C:1]([C@@:2]1([H:11])[O:3]/[C:4](=[N:5]\[H:12])[C@:6]1([N:7]([H:14])[H:15])[H:13])([H:8])([H:9])[H:10]>>[C:1](/[C:2](=[C:6](\[N:7]([H:14])[H:15])[H:13])[H:11])([H:8])([H:9])[H:10].[O:3]=[C:4]=[N:5][H:12]"
C        1.94221202       0.27524773       0.29109288
C        0.80997009      -0.22631073      -0.53429719
O       -0.17346526      -1.90566537       0.71581970
C       -1.14459143      -1.15788813       0.42918771
N       -2.35674651      -1.28700968       0.18578884
C       -0.47832155       0.39728764      -0.54598812
N       -0.71969071       1.53392199       0.26119391
H        1.61062044       0.56195316       1.28965654
H        2.38618078       1.16098777      -0.17607081
H        2.72521782      -0.48074600       0.36380471
H        1.11718439      -0.71463701      -1.45582419
H       -2.48933212      -2.05673739      -0.47028434
H       -0.89426402       0.51109373      -1.54723938
H       -1.50337094       2.08906155      -0.04577237
H       -0.83160300       1.29944073       1.23893210
15
Frame=11 idx=006400 GeodesicLength=1.2370344555350212 rxn_smarts="[C:1]([C@@:2]1([H:11])[O:3]/[C:4](=[N:5]\[H:12])[C@:6]1([N:7]([H:14])[H:15])[H:13])([H:8])([H:9])[H:10]>>[C:1](/[C:2](=[C:6](\[N:7]([H:14])[H:15])[H:13])[H:11])([H:8])([H:9])[H:10].[O:3]=[C:4]=[N:5][H:12]"
C        1.94169590       0.26593789       0.27126279
C        0.78591034      -0.24703773      -0.51813638
O       -0.21727429      -1.83537979       0.85675218
C       -1.19913145      -1.14484732       0.47592166
N       -2.36731686      -1.34934047       0.11082588
C       -0.48893080       0.40694246      -0.53477657
N       -0.71425492       1.55029113       0.26509165
H        1.63851312       0.56099694       1.27674746
H        2.37621940       1.14768295      -0.21101898
H        2.72643552      -0.48911310       0.33195602
H        1.07925110      -0.73587377      -1.44474199
H       -2.38011973      -2.08605558      -0.59463811
H       -0.89776463       0.53653095      -1.53690636
H       -1.52979666       2.07877567      -0.00182821
H       -0.75343603       1.34048978       1.25348897
15
Frame=12 idx=006400 GeodesicLength=1.3483482981025527 rxn_smarts="[C:1]([C@@:2]1([H:11])[O:3]/[C:4](=[N:5]\[H:12])[C@:6]1([N:7]([H:14])[H:15])[H:13])([H:8])([H:9])[H:10]>>[C:1](/[C:2](=[C:6](\[N:7]([H:14])[H:15])[H:13])[H:11])([H:8])([H:9])[H:10].[O:3]=[C:4]=[N:5][H:12]"
C        1.93759791       0.25224014       0.25321877
C        0.75969575      -0.26593626      -0.50373464
O       -0.26974171      -1.75469878       0.98658228
C       -1.25781412      -1.13085902       0.51547580
N       -2.36422014      -1.41899619       0.03884806
C       -0.50054645       0.41916662      -0.52611246
N       -0.70970186       1.56793490       0.26777297
H        1.66155119       0.55273687       1.26511041
H        2.36530014       1.13071645      -0.23960052
H        2.72210872      -0.50380853       0.30039993
H        1.04045398      -0.75161414      -1.43656542
H       -2.25273371      -2.11485763      -0.69850479
H       -0.90263401       0.56455478      -1.52856432
H       -1.55402806       2.07002163       0.04492554
H       -0.67528763       1.38339918       1.26074838
15
Frame=13 idx=006400 GeodesicLength=1.4610723570234099 rxn_smarts="[C:1]([C@@:2]1([H:11])[O:3]/[C:4](=[N:5]\[H:12])[C@:6]1([N:7]([H:14])[H:15])[H:13])([H:8])([H:9])[H:10]>>[C:1](/[C:2](=[C:6](\[N:7]([H:14])[H:15])[H:13])[H:11])([H:8])([H:9])[H:10].[O:3]=[C:4]=[N:5][H:12]"
C        1.93048811       0.23500239       0.23772816
C        0.73231271      -0.28270187      -0.49239830
O       -0.32891688      -1.66776243       1.10194811
C       -1.31885257      -1.11764830       0.54712447
N       -2.34799449      -1.49356876      -0.02669572
C       -0.51264777       0.43342887      -0.52071323
N       -0.70575045       1.58651437       0.26872867
H        1.67940263       0.53618277       1.25620052
H        2.35365174       1.11256989      -0.25974200
H        2.71348557      -0.52338538       0.26967527
H        1.00250238      -0.76045778      -1.43336974
H       -2.11493355      -2.14156707      -0.77908667
H       -0.90923258       0.59405736      -1.52288327
H       -1.57580924       2.06210623       0.09321833
H       -0.59770561       1.42722970       1.26026539
15
Frame=14 idx=006400 GeodesicLength=1.575045117626102 rxn_smarts="[C:1]([C@@:2]1([H:11])[O:3]/[C:4](=[N:5]\[H:12])[C@:6]1([N:7]([H:14])[H:15])[H:13])([H:8])([H:9])[H:10]>>[C:1](/[C:2](=[C:6](\[N:7]([H:14])[H:15])[H:13])[H:11])([H:8])([H:9])[H:10].[O:3]=[C:4]=[N:5][H:12]"
C        1.92094574       0.21515189       0.22482051
C        0.70485057      -0.29718965      -0.48443244
O       -0.39312707      -1.57615237       1.20199446
C       -1.38045606      -1.10668510       0.57070586
N       -2.31986328      -1.57156769      -0.08258800
C       -0.52463671       0.44881293      -0.51866769
N       -0.70258547       1.60486581       0.26768394
H        1.69182334       0.51162549       1.25006090
H        2.34145675       1.09429335      -0.27116558
H        2.70171133      -0.54609028       0.23980307
H        0.96732344      -0.76183671      -1.43499473
H       -1.97388379      -2.16284427      -0.83815133
H       -0.91733187       0.62361245      -1.51974407
H       -1.59536638       2.05310354       0.14307888
H       -0.52086053       1.47090061       1.25159620
15
Frame=15 idx=006400 GeodesicLength=1.6901384616036843 rxn_smarts="[C:1]([C@@:2]1([H:11])[O:3]/[C:4](=[N:5]\[H:12])[C@:6]1([N:7]([H:14])[H:15])[H:13])([H:8])([H:9])[H:10]>>[C:1](/[C:2](=[C:6](\[N:7]([H:14])[H:15])[H:13])[H:11])([H:8])([H:9])[H:10].[O:3]=[C:4]=[N:5][H:12]"
C        1.90958981       0.19364495       0.21456689
C        0.67813709      -0.30950493      -0.48030425
O       -0.46072502      -1.48249071       1.28666001
C       -1.44113338      -1.09903636       0.58701159
N       -2.28185236      -1.65086386      -0.12728776
C       -0.53608321       0.46475012      -0.52004913
N       -0.70005761       1.62255815       0.26459700
H        1.69884389       0.47965204       1.24697993
H        2.32896670       1.07722935      -0.27365355
H        2.68791614      -0.57029135       0.21101304
H        0.93621084      -0.75580597      -1.44183311
H       -1.83576408      -2.17829769      -0.87761194
H       -0.92678907       0.65257135      -1.51925920
H       -1.61246652       2.04178758       0.19445633
H       -0.44479321       1.51409733       1.23471416
15
Frame=16 idx=006400 GeodesicLength=1.8060555395165578 rxn_smarts="[C:1]([C@@:2]1([H:11])[O:3]/[C:4](=[N:5]\[H:12])[C@:6]1([N:7]([H:14])[H:15])[H:13])([H:8])([H:9])[H:10]>>[C:1](/[C:2](=[C:6](\[N:7]([H:14])[H:15])[H:13])[H:11])([H:8])([H:9])[H:10].[O:3]=[C:4]=[N:5][H:12]"
C        1.89688114       0.17119847       0.20678780
C        0.65268875      -0.31977121      -0.48009731
O       -0.53046325      -1.38811101       1.35680272
C       -1.49977597      -1.09532501       0.59719963
N       -2.23575688      -1.73018415      -0.16002834
C       -0.54677846       0.48082118      -0.52466181
N       -0.69809872       1.63921793       0.25965852
H        1.70053655       0.44129775       1.24662843
H        2.31641143       1.06179807      -0.26771805
H        2.67288683      -0.59482492       0.18355797
H        0.90989887      -0.74274394      -1.45348855
H       -1.70464591      -2.18784901      -0.90075872
H       -0.93748144       0.68060983      -1.52122123
H       -1.62666499       2.02725824       0.24768043
H       -0.36963794       1.55660779       1.20965850
