13
Frame=0 idx=002275 GeodesicLength=0.0 rxn_smarts="[C:1]1([H:7])([H:8])[C:2]([H:9])=[C:3]([H:10])[C@@:4]2([H:11])[N:5]([H:12])[C@@:6]12[H:13]>>[C:1]1([H:7])([H:8])[C+:2]([H:9])[C:3]([H:10])=[C-:4][N:5]([H:12])[C:6]1([H:11])[H:13]"
C        0.48662444      -1.00409735       0.19934242
C        1.06403520       0.03944358      -0.71554259
C        0.46070839       1.22616622      -0.67295462
C       -0.73450887       1.38997120       0.21342403
N       -1.67408268       0.30534098      -0.05488820
C       -0.72509724      -0.35563301       0.84497328
H        1.21384410      -1.29514158       0.96429526
H        0.21719351      -1.92134380      -0.33604976
H        1.94825373      -0.16648802      -1.30822800
H        0.81910011       2.09771853      -1.20821704
H       -0.33396963       0.62976738       1.40347622
H       -1.52080927      -0.06717962      -0.99047898
H       -1.22129179      -0.87852450       1.66084795
13
Frame=1 idx=002275 GeodesicLength=0.054945969441035816 rxn_smarts="[C:1]1([H:7])([H:8])[C:2]([H:9])=[C:3]([H:10])[C@@:4]2([H:11])[N:5]([H:12])[C@@:6]12[H:13]>>[C:1]1([H:7])([H:8])[C+:2]([H:9])[C:3]([H:10])=[C-:4][N:5]([H:12])[C:6]1([H:11])[H:13]"
C        0.48661761      -1.00331117       0.19927251
C        1.06121458       0.03856396      -0.72021910
C        0.46033965       1.22737063      -0.67960617
C       -0.72889911       1.38399175       0.21185885
N       -1.67169849       0.30500988      -0.05449926
C       -0.72500002      -0.35494825       0.84817560
H        1.21725522      -1.29304421       0.96142081
H        0.21700072      -1.92137274      -0.33449449
H        1.94646505      -0.16810899      -1.31108042
H        0.82649463       2.10037337      -1.20699733
H       -0.34281774       0.64366917       1.42053281
H       -1.52173584      -0.07063152      -0.98929611
H       -1.22523624      -0.88756189       1.65493230
13
Frame=2 idx=002275 GeodesicLength=0.10988692720316603 rxn_smarts="[C:1]1([H:7])([H:8])[C:2]([H:9])=[C:3]([H:10])[C@@:4]2([H:11])[N:5]([H:12])[C@@:6]12[H:13]>>[C:1]1([H:7])([H:8])[C+:2]([H:9])[C:3]([H:10])=[C-:4][N:5]([H:12])[C:6]1([H:11])[H:13]"
C        0.48665555      -1.00257837       0.19914528
C        1.05839651       0.03764025      -0.72494407
C        0.45995781       1.22852479      -0.68628427
C       -0.72312477       1.37791900       0.21045492
N       -1.66924859       0.30469817      -0.05405808
C       -0.72485550      -0.35435787       0.85137632
H        1.22070634      -1.29097921       0.95847246
H        0.21684473      -1.92144218      -0.33300632
H        1.94467799      -0.16973996      -1.31398354
H        0.83390821       2.10290521      -1.20567211
H       -0.35228860       0.65793630       1.43755930
H       -1.52265575      -0.07401900      -0.98806340
H       -1.22897395      -0.89650713       1.64900350
13
Frame=3 idx=002275 GeodesicLength=0.16482525707130952 rxn_smarts="[C:1]1([H:7])([H:8])[C:2]([H:9])=[C:3]([H:10])[C@@:4]2([H:11])[N:5]([H:12])[C@@:6]12[H:13]>>[C:1]1([H:7])([H:8])[C+:2]([H:9])[C:3]([H:10])=[C-:4][N:5]([H:12])[C:6]1([H:11])[H:13]"
C        0.48674183      -1.00190669       0.19895785
C        1.05558643       0.03667202      -0.72971832
C        0.45956941       1.22963373      -0.69297822
C       -0.71718365       1.37175565       0.20921889
N       -1.66673021       0.30440936      -0.05355923
C       -0.72465914      -0.35386478       0.85458106
H        1.22420208      -1.28896349       0.95544546
H        0.21672531      -1.92155683      -0.33159280
H        1.94289911      -0.17138062      -1.31694296
H        0.84133295       2.10531192      -1.20425330
H       -0.36241430       0.67258784       1.45454449
H       -1.52356570      -0.07733376      -0.98677932
H       -1.23250410      -0.90536434       1.64307639
13
Frame=4 idx=002275 GeodesicLength=0.21975729113567383 rxn_smarts="[C:1]1([H:7])([H:8])[C:2]([H:9])=[C:3]([H:10])[C@@:4]2([H:11])[N:5]([H:12])[C@@:6]12[H:13]>>[C:1]1([H:7])([H:8])[C+:2]([H:9])[C:3]([H:10])=[C-:4][N:5]([H:12])[C:6]1([H:11])[H:13]"
C        0.48687747      -1.00129940       0.19870708
C        1.05278511       0.03565955      -0.73453837
C        0.45918021       1.23069882      -0.69967196
C       -0.71106826       1.36549924       0.20815845
N       -1.66413490       0.30414266      -0.05299809
C       -0.72440323      -0.35347087       0.85779196
H        1.22774346      -1.28700533       0.95233268
H        0.21663822      -1.92171594      -0.33026103
H        1.94112361      -0.17303018      -1.31996088
H        0.84876065       2.10758435      -1.20274502
H       -0.37322178       0.68764388       1.47146858
H       -1.52445943      -0.08057218      -0.98544029
H       -1.23582112      -0.91413460       1.63715690
13
Frame=5 idx=002275 GeodesicLength=0.27468077158757365 rxn_smarts="[C:1]1([H:7])([H:8])[C:2]([H:9])=[C:3]([H:10])[C@@:4]2([H:11])[N:5]([H:12])[C@@:6]12[H:13]>>[C:1]1([H:7])([H:8])[C+:2]([H:9])[C:3]([H:10])=[C-:4][N:5]([H:12])[C:6]1([H:11])[H:13]"
C        0.48706063      -1.00076772       0.19838287
C        1.05000675       0.03460658      -0.73938795
C        0.45881420       1.23172724      -0.70632535
C       -0.70475982       1.35915155       0.20729947
N       -1.66144973       0.30391146      -0.05236415
C       -0.72407926      -0.35318182       0.86101146
H        1.23132131      -1.28514457       0.94912050
H        0.21656913      -1.92191421      -0.32904238
H        1.93939029      -0.17466728      -1.32298914
H        0.85611404       2.10969219      -1.20125062
H       -0.38473761       0.70310798       1.48833084
H       -1.52532510      -0.08370387      -0.98404196
H       -1.23892484      -0.92281752       1.63125641
13
Frame=6 idx=002275 GeodesicLength=0.3295951828926591 rxn_smarts="[C:1]1([H:7])([H:8])[C:2]([H:9])=[C:3]([H:10])[C@@:4]2([H:11])[N:5]([H:12])[C@@:6]12[H:13]>>[C:1]1([H:7])([H:8])[C+:2]([H:9])[C:3]([H:10])=[C-:4][N:5]([H:12])[C:6]1([H:11])[H:13]"
C        0.48729339      -1.00031891       0.19798293
C        1.04725489       0.03351283      -0.74426502
C        0.45847737       1.23272250      -0.71292280
C       -0.69825475       1.35271286       0.20665063
N       -1.65866897       0.30371615      -0.05165090
C       -0.72368099      -0.35300088       0.86424535
H        1.23493830      -1.28339689       0.94580332
H        0.21651519      -1.92215551      -0.32794411
H        1.93769902      -0.17629228      -1.32603369
H        0.86338733       2.11163726      -1.19977776
H       -0.39699128       0.71900376       1.50510664
H       -1.52615741      -0.08672369      -0.98258116
H       -1.24181210      -0.93141722       1.62538655
13
Frame=7 idx=002275 GeodesicLength=0.384499372281071 rxn_smarts="[C:1]1([H:7])([H:8])[C:2]([H:9])=[C:3]([H:10])[C@@:4]2([H:11])[N:5]([H:12])[C@@:6]12[H:13]>>[C:1]1([H:7])([H:8])[C+:2]([H:9])[C:3]([H:10])=[C-:4][N:5]([H:12])[C:6]1([H:11])[H:13]"
C        0.48757802      -0.99995885       0.19750453
C        1.04453438       0.03237932      -0.74916362
C        0.45817955       1.23368740      -0.71944255
C       -0.69154558       1.34618141       0.20622252
N       -1.65578372       0.30355708      -0.05085235
C       -0.72319965      -0.35293095       0.86749807
H        1.23859676      -1.28177785       0.94237436
H        0.21647211      -1.92244017      -0.32697526
H        1.93604597      -0.17790529      -1.32910021
H        0.87056805       2.11341667      -1.19834211
H       -0.41001703       0.73535173       1.52177454
H       -1.52694866      -0.08962505      -0.98105418
H       -1.24448019      -0.93993546       1.61955627
13
Frame=8 idx=002275 GeodesicLength=0.43939399363571435 rxn_smarts="[C:1]1([H:7])([H:8])[C:2]([H:9])=[C:3]([H:10])[C@@:4]2([H:11])[N:5]([H:12])[C@@:6]12[H:13]>>[C:1]1([H:7])([H:8])[C+:2]([H:9])[C:3]([H:10])=[C-:4][N:5]([H:12])[C:6]1([H:11])[H:13]"
C        0.48791596      -0.99969489       0.19694395
C        1.04184984       0.03120649      -0.75407868
C        0.45792979       1.23462458      -0.72586340
C       -0.68462554       1.33955567       0.20602647
N       -1.65278588       0.30343486      -0.04996078
C       -0.72262655      -0.35297520       0.87077503
H        1.24229828      -1.28030642       0.93882514
H        0.21643385      -1.92276937      -0.32614676
H        1.93443314      -0.17950409      -1.33218833
H        0.87764237       2.11502940      -1.19696230
H       -0.42384718       0.75217438       1.53830913
H       -1.52769244      -0.09240079      -0.97945614
H       -1.24692565      -0.94837464       1.61377669
13
Frame=9 idx=002275 GeodesicLength=0.49427863841556674 rxn_smarts="[C:1]1([H:7])([H:8])[C:2]([H:9])=[C:3]([H:10])[C@@:4]2([H:11])[N:5]([H:12])[C@@:6]12[H:13]>>[C:1]1([H:7])([H:8])[C+:2]([H:9])[C:3]([H:10])=[C-:4][N:5]([H:12])[C:6]1([H:11])[H:13]"
C        0.48830863      -0.99953466       0.19629750
C        1.03920537       0.02999474      -0.75900554
C        0.45773625       1.23553647      -0.73216460
C       -0.67748848       1.33283389       0.20607362
N       -1.64966751       0.30334924      -0.04896785
C       -0.72195251      -0.35313692       0.87408231
H        1.24604494      -1.27900182       0.93514685
H        0.21639405      -1.92314472      -0.32546916
H        1.93286144      -0.18108675      -1.33529884
H        0.88459930       2.11647657      -1.19565249
H       -0.43851416       0.76949585       1.55468013
H       -1.52838294      -0.09504494      -0.97778155
H       -1.24914438      -0.95673696       1.60805962
13
Frame=10 idx=002275 GeodesicLength=0.5491533463931255 rxn_smarts="[C:1]1([H:7])([H:8])[C:2]([H:9])=[C:3]([H:10])[C@@:4]2([H:11])[N:5]([H:12])[C@@:6]12[H:13]>>[C:1]1([H:7])([H:8])[C+:2]([H:9])[C:3]([H:10])=[C-:4][N:5]([H:12])[C:6]1([H:11])[H:13]"
C        0.48875719      -0.99948613       0.19556132
C        1.03660451       0.02874435      -0.76393975
C        0.45760622       1.23642512      -0.73832572
C       -0.67012892       1.32601388       0.20637512
N       -1.64642095       0.30329915      -0.04786452
C       -0.72116808      -0.35341960       0.87742644
H        1.24983885      -1.27788398       0.93132993
H        0.21634575      -1.92356813      -0.32495318
H        1.93133177      -0.18265109      -1.33843223
H        0.89142975       2.11776109      -1.19442351
H       -0.45404938       0.78734226       1.57085241
H       -1.52901503      -0.09755237      -0.97602424
H       -1.25113166      -0.96502454       1.60241792
13
Frame=11 idx=002275 GeodesicLength=0.6040190553838878 rxn_smarts="[C:1]1([H:7])([H:8])[C:2]([H:9])=[C:3]([H:10])[C@@:4]2([H:11])[N:5]([H:12])[C@@:6]12[H:13]>>[C:1]1([H:7])([H:8])[C+:2]([H:9])[C:3]([H:10])=[C-:4][N:5]([H:12])[C:6]1([H:11])[H:13]"
C        0.48926277      -0.99955759       0.19473153
C        1.03405063       0.02745568      -0.76887679
C        0.45754648       1.23729246      -0.74432627
C       -0.66254182       1.31909313       0.20694234
N       -1.64303871       0.30328287      -0.04664125
C       -0.72026351      -0.35382704       0.88081441
H        1.25368235      -1.27697340       0.92736450
H        0.21628171      -1.92404170      -0.32460961
H        1.92984418      -0.18419509      -1.34158984
H        0.89812600       2.11888734      -1.19328304
H       -0.47048371       0.80574156       1.58678649
H       -1.52958391      -0.09991863      -0.97417756
H       -1.25288247      -0.97323959       1.59686511
13
Frame=12 idx=002275 GeodesicLength=0.6588827663855747 rxn_smarts="[C:1]1([H:7])([H:8])[C:2]([H:9])=[C:3]([H:10])[C@@:4]2([H:11])[N:5]([H:12])[C@@:6]12[H:13]>>[C:1]1([H:7])([H:8])[C+:2]([H:9])[C:3]([H:10])=[C-:4][N:5]([H:12])[C:6]1([H:11])[H:13]"
C        0.48982727      -0.99975952       0.19380347
C        1.03154889       0.02612846      -0.77381392
C        0.45756380       1.23814092      -0.75014699
C       -0.65472363       1.31207023       0.20778828
N       -1.63951590       0.30330109      -0.04528730
C       -0.71922975      -0.35436368       0.88425531
H        1.25757964      -1.27629613       0.92324057
H        0.21619499      -1.92456874      -0.32445207
H        1.92840689      -0.18571527      -1.34476964
H        0.90467734       2.11986118      -1.19224481
H       -0.48784871       0.82472282       1.60244440
H       -1.53008747      -0.10213596      -0.97223586
H       -1.25439336      -0.98138541       1.59141857
13
Frame=13 idx=002275 GeodesicLength=0.7137065467435005 rxn_smarts="[C:1]1([H:7])([H:8])[C:2]([H:9])=[C:3]([H:10])[C@@:4]2([H:11])[N:5]([H:12])[C@@:6]12[H:13]>>[C:1]1([H:7])([H:8])[C+:2]([H:9])[C:3]([H:10])=[C-:4][N:5]([H:12])[C:6]1([H:11])[H:13]"
C        0.49044559      -1.00009740       0.19277214
C        1.02909224       0.02476431      -0.77874505
C        0.45765571       1.23897010      -0.75576847
C       -0.64667056       1.30493950       0.20892052
N       -1.63584184       0.30334380      -0.04378833
C       -0.71805416      -0.35503217       0.88775461
H        1.26152571      -1.27586671       0.91894127
H        0.21606995      -1.92514910      -0.32448917
H        1.92701648      -0.18720149      -1.34795544
H        0.91108602       2.12068709      -1.19129424
H       -0.50615062       0.84431460       1.61774723
H       -1.53052207      -0.10421029      -0.97018294
H       -1.25565245      -0.98946224       1.58608787
13
Frame=14 idx=002275 GeodesicLength=0.7685409089797831 rxn_smarts="[C:1]1([H:7])([H:8])[C:2]([H:9])=[C:3]([H:10])[C@@:4]2([H:11])[N:5]([H:12])[C@@:6]12[H:13]>>[C:1]1([H:7])([H:8])[C+:2]([H:9])[C:3]([H:10])=[C-:4][N:5]([H:12])[C:6]1([H:11])[H:13]"
C        0.49112779      -1.00057600       0.19164019
C        1.02668481       0.02336306      -0.78367000
C        0.45783147       1.23978197      -0.76117308
C       -0.63838068       1.29769491       0.21034830
N       -1.63201006       0.30340426      -0.04214243
C       -0.71672775      -0.35583837       0.89131967
H        1.26553755      -1.27568639       0.91446584
H        0.21591674      -1.92578907      -0.32471517
H        1.92562709      -0.18867864      -1.35121696
H        0.91738164       2.12138232      -1.19038275
H       -0.52544985       0.86456470       1.63266065
H       -1.53087875      -0.10614536      -0.96801879
H       -1.25666000      -0.99747740       1.58088455
13
Frame=15 idx=002275 GeodesicLength=0.8233736258394446 rxn_smarts="[C:1]1([H:7])([H:8])[C:2]([H:9])=[C:3]([H:10])[C@@:4]2([H:11])[N:5]([H:12])[C@@:6]12[H:13]>>[C:1]1([H:7])([H:8])[C+:2]([H:9])[C:3]([H:10])=[C-:4][N:5]([H:12])[C:6]1([H:11])[H:13]"
C        0.49187526      -1.00120839       0.19040457
C        1.02433413       0.02192640      -0.78858200
C        0.45809412       1.24058196      -0.76633975
C       -0.62985655       1.29033748       0.21208717
N       -1.62801972       0.30348361      -0.04033477
C       -0.71524291      -0.35678725       0.89496520
H        1.26961956      -1.27579271       0.90980507
H        0.21572736      -1.92649178      -0.32514848
H        1.92425446      -0.19014021      -1.35454707
H        0.92355032       2.12195560      -1.18952478
H       -0.54576322       0.88550525       1.64712196
H       -1.53115889      -0.10793157      -0.96573680
H       -1.25741392      -1.00543838       1.57582968
13
Frame=16 idx=002275 GeodesicLength=0.8781912127062044 rxn_smarts="[C:1]1([H:7])([H:8])[C:2]([H:9])=[C:3]([H:10])[C@@:4]2([H:11])[N:5]([H:12])[C@@:6]12[H:13]>>[C:1]1([H:7])([H:8])[C+:2]([H:9])[C:3]([H:10])=[C-:4][N:5]([H:12])[C:6]1([H:11])[H:13]"
C        0.49268026      -1.00200005       0.18906015
C        1.02203733       0.02046013      -0.79346321
C        0.45844798       1.24136947      -0.77123787
C       -0.62108708       1.28285814       0.21415137
N       -1.62385369       0.30357073      -0.03834914
C       -0.71358569      -0.35788525       0.89869468
H        1.27375913      -1.27620697       0.90493883
H        0.21548073      -1.92725183      -0.32580274
H        1.92289399      -0.19157171      -1.35792257
H        0.92957402       2.12240786      -1.18872531
H       -0.56709091       0.90717246       1.66104654
H       -1.53135287      -0.10957183      -0.96331690
H       -1.25790319      -1.01335115       1.57092617
