14
Frame=0 idx=006924 GeodesicLength=0.0 rxn_smarts="[N:1]([c:2]1[c:3]([H:10])[c:4]([N:5]([H:11])[H:12])[c:6]([H:13])[n:7]1[H:14])([H:8])[H:9]>>[N+:1]([c-:2]1[c:3]([H:10])[c:4]([N:5]([H:11])[H:12])[c:6]([H:13])[n:7]1)([H:8])([H:9])[H:14]"
N       -2.43215149      -0.04610170      -0.10853641
C       -0.98797521      -0.12105138      -0.01089680
C        0.07453007      -0.97612014       0.16572829
C        1.19416376      -0.10229362       0.13235231
N        2.53238507      -0.51057023       0.33148866
C        0.73013420       1.19311484      -0.05582421
N       -0.63303678       1.16105673      -0.13601763
H       -2.84687986      -0.48370455      -0.92398220
H       -2.94772063      -0.30028805       0.72678484
H        0.07644594      -2.04381786       0.31647264
H        3.18070580       0.24413115       0.16605081
H        2.78231483      -1.28715321      -0.26272668
H        1.29123740       2.11199612      -0.12577235
H       -2.01415306       1.16080194      -0.21512131
14
Frame=1 idx=006924 GeodesicLength=0.03736523458443891 rxn_smarts="[N:1]([c:2]1[c:3]([H:10])[c:4]([N:5]([H:11])[H:12])[c:6]([H:13])[n:7]1[H:14])([H:8])[H:9]>>[N+:1]([c-:2]1[c:3]([H:10])[c:4]([N:5]([H:11])[H:12])[c:6]([H:13])[n:7]1)([H:8])([H:9])[H:14]"
N       -2.43265939      -0.04599541      -0.10761466
C       -0.98688265      -0.12227785      -0.03719338
C        0.07364520      -0.97449614       0.16118675
C        1.19390445      -0.10162337       0.13487427
N        2.53155522      -0.51150477       0.33353603
C        0.73015278       1.19426925      -0.04790334
N       -0.63153078       1.16164333      -0.15203141
H       -2.85551609      -0.48702782      -0.91709893
H       -2.93081524      -0.31372811       0.73405946
H        0.07142023      -2.04066403       0.32274954
H        3.18094858       0.24230952       0.16831624
H        2.78051484      -1.28846386      -0.26056611
H        1.29146845       2.11281383      -0.12090512
H       -2.01620559       1.17474544      -0.21140934
14
Frame=2 idx=006924 GeodesicLength=0.07470794134076233 rxn_smarts="[N:1]([c:2]1[c:3]([H:10])[c:4]([N:5]([H:11])[H:12])[c:6]([H:13])[n:7]1[H:14])([H:8])[H:9]>>[N+:1]([c-:2]1[c:3]([H:10])[c:4]([N:5]([H:11])[H:12])[c:6]([H:13])[n:7]1)([H:8])([H:9])[H:14]"
N       -2.43274685      -0.04621273      -0.10703251
C       -0.98583210      -0.12317347      -0.06146819
C        0.07251149      -0.97259709       0.15774823
C        1.19349717      -0.10089380       0.13726096
N        2.53061187      -0.51234221       0.33526143
C        0.73000497       1.19529285      -0.04135205
N       -0.63014982       1.16256134      -0.16559817
H       -2.86232693      -0.49028054      -0.91138659
H       -2.91467331      -0.32765314       0.73965015
H        0.06611637      -2.03725344       0.32923294
H        3.18106323       0.24042443       0.16948193
H        2.77832047      -1.29011928      -0.25826381
H        1.29154877       2.11353570      -0.11681793
H       -2.01794534       1.18871140      -0.20671638
14
Frame=3 idx=006924 GeodesicLength=0.1120357268804073 rxn_smarts="[N:1]([c:2]1[c:3]([H:10])[c:4]([N:5]([H:11])[H:12])[c:6]([H:13])[n:7]1[H:14])([H:8])[H:9]>>[N+:1]([c-:2]1[c:3]([H:10])[c:4]([N:5]([H:11])[H:12])[c:6]([H:13])[n:7]1)([H:8])([H:9])[H:14]"
N       -2.43254896      -0.04667548      -0.10647337
C       -0.98485037      -0.12379186      -0.08386122
C        0.07119374      -0.97051668       0.15486921
C        1.19298872      -0.10014453       0.13928993
N        2.52955312      -0.51308459       0.33685785
C        0.72979003       1.19615747      -0.03650468
N       -0.62885424       1.16363885      -0.17801405
H       -2.86782789      -0.49389666      -0.90609244
H       -2.89913130      -0.34139230       0.74432895
H        0.06064596      -2.03372631       0.33524966
H        3.18107737       0.23850283       0.16998972
H        2.77594741      -1.29208634      -0.25558078
H        1.29142757       2.11435370      -0.11233553
H       -2.01941117       1.20266189      -0.20172323
14
Frame=4 idx=006924 GeodesicLength=0.14932245657974885 rxn_smarts="[N:1]([c:2]1[c:3]([H:10])[c:4]([N:5]([H:11])[H:12])[c:6]([H:13])[n:7]1[H:14])([H:8])[H:9]>>[N+:1]([c-:2]1[c:3]([H:10])[c:4]([N:5]([H:11])[H:12])[c:6]([H:13])[n:7]1)([H:8])([H:9])[H:14]"
N       -2.43211280      -0.04741985      -0.10633522
C       -0.98392560      -0.12412465      -0.10403559
C        0.06970307      -0.96817119       0.15335892
C        1.19242397      -0.09933396       0.14140317
N        2.52851822      -0.51381293       0.33786875
C        0.72953136       1.19698132      -0.03233647
N       -0.62767117       1.16492420      -0.18869346
H       -2.87164735      -0.49790484      -0.90186840
H       -2.88465584      -0.35507666       0.74751118
H        0.05506049      -2.03001885       0.34166883
H        3.18107300       0.23646175       0.16918741
H        2.77314286      -1.29430843      -0.25330712
H        1.29121245       2.11521610      -0.10787729
H       -2.02065266       1.21658798      -0.19654472
14
Frame=5 idx=006924 GeodesicLength=0.186620850326168 rxn_smarts="[N:1]([c:2]1[c:3]([H:10])[c:4]([N:5]([H:11])[H:12])[c:6]([H:13])[n:7]1[H:14])([H:8])[H:9]>>[N+:1]([c-:2]1[c:3]([H:10])[c:4]([N:5]([H:11])[H:12])[c:6]([H:13])[n:7]1)([H:8])([H:9])[H:14]"
N       -2.43156470      -0.04829318      -0.10589969
C       -0.98310028      -0.12431907      -0.12302827
C        0.06815253      -0.96585464       0.15120794
C        1.19179864      -0.09856583       0.14292125
N        2.52733218      -0.51444710       0.33918205
C        0.72925061       1.19766443      -0.02953422
N       -0.62656676       1.16623189      -0.19907726
H       -2.87494976      -0.50208940      -0.89749517
H       -2.87039737      -0.36850563       0.75053757
H        0.04940658      -2.02630750       0.34717281
H        3.18096854       0.23446441       0.16869202
H        2.77051777      -1.29668004      -0.25025861
H        1.29084881       2.11612040      -0.10344707
H       -2.02169679       1.23058126      -0.19097335
14
Frame=6 idx=006924 GeodesicLength=0.22389957497665247 rxn_smarts="[N:1]([c:2]1[c:3]([H:10])[c:4]([N:5]([H:11])[H:12])[c:6]([H:13])[n:7]1[H:14])([H:8])[H:9]>>[N+:1]([c-:2]1[c:3]([H:10])[c:4]([N:5]([H:11])[H:12])[c:6]([H:13])[n:7]1)([H:8])([H:9])[H:14]"
N       -2.43089967      -0.04935929      -0.10570109
C       -0.98233259      -0.12434692      -0.14032719
C        0.06650387      -0.96340871       0.14993393
C        1.19113038      -0.09776511       0.14466859
N        2.52616563      -0.51508990       0.34018141
C        0.72892784       1.19832905      -0.02690966
N       -0.62554734       1.16764169      -0.20831745
H       -2.87711402      -0.50657202      -0.89382387
H       -2.85696850      -0.38175287       0.75259281
H        0.04374822      -2.02259014       0.35257100
H        3.18083728       0.23242476       0.16760095
H        2.76763664      -1.29908074      -0.24759522
H        1.29046818       2.11695507      -0.09961603
H       -2.02255592       1.24461514      -0.18525819
14
Frame=7 idx=006924 GeodesicLength=0.26118058015168033 rxn_smarts="[N:1]([c:2]1[c:3]([H:10])[c:4]([N:5]([H:11])[H:12])[c:6]([H:13])[n:7]1[H:14])([H:8])[H:9]>>[N+:1]([c-:2]1[c:3]([H:10])[c:4]([N:5]([H:11])[H:12])[c:6]([H:13])[n:7]1)([H:8])([H:9])[H:14]"
N       -2.43017856      -0.05053251      -0.10529942
C       -0.98165627      -0.12429556      -0.15666914
C        0.06482435      -0.96101042       0.14823479
C        1.19041135      -0.09699952       0.14611714
N        2.52489481      -0.51569243       0.34140941
C        0.72856020       1.19892483      -0.02485557
N       -0.62459907       1.16904842      -0.21724958
H       -2.87887641      -0.51118496      -0.89009449
H       -2.84377990      -0.39476267       0.75448341
H        0.03808224      -2.01893728       0.35715987
H        3.18062651       0.23043391       0.16690570
H        2.76488701      -1.30148114      -0.24454185
H        1.29003127       2.11774445      -0.09637367
H       -2.02322754       1.25874487      -0.17922661
14
Frame=8 idx=006924 GeodesicLength=0.29847376574493895 rxn_smarts="[N:1]([c:2]1[c:3]([H:10])[c:4]([N:5]([H:11])[H:12])[c:6]([H:13])[n:7]1[H:14])([H:8])[H:9]>>[N+:1]([c-:2]1[c:3]([H:10])[c:4]([N:5]([H:11])[H:12])[c:6]([H:13])[n:7]1)([H:8])([H:9])[H:14]"
N       -2.42940408      -0.05178860      -0.10464303
C       -0.98107440      -0.12423166      -0.17243684
C        0.06314841      -0.95869473       0.14592036
C        1.18966136      -0.09628936       0.14699920
N        2.52352938      -0.51621315       0.34279552
C        0.72817462       1.19939078      -0.02389544
N       -0.62368854       1.17037935      -0.22651543
H       -2.88048450      -0.51604045      -0.88604050
H       -2.83060198      -0.40733544       0.75647325
H        0.03240113      -2.01527489       0.36133692
H        3.18035171       0.22848392       0.16635099
H        2.76231127      -1.30400613      -0.24092314
H        1.28934045       2.11864680      -0.09225644
H       -2.02366486       1.27297356      -0.17316540
14
Frame=9 idx=006924 GeodesicLength=0.33576101392857804 rxn_smarts="[N:1]([c:2]1[c:3]([H:10])[c:4]([N:5]([H:11])[H:12])[c:6]([H:13])[n:7]1[H:14])([H:8])[H:9]>>[N+:1]([c-:2]1[c:3]([H:10])[c:4]([N:5]([H:11])[H:12])[c:6]([H:13])[n:7]1)([H:8])([H:9])[H:14]"
N       -2.42857261      -0.05319534      -0.10416738
C       -0.98053653      -0.12411123      -0.18714482
C        0.06143307      -0.95633528       0.14409257
C        1.18888695      -0.09556870       0.14803418
N        2.52218805      -0.51674535       0.34394042
C        0.72773963       1.19985551      -0.02282509
N       -0.62284874       1.17173515      -0.23506355
H       -2.88138443      -0.52108687      -0.88248042
H       -2.81797404      -0.41975259       0.75780708
H        0.02672760      -2.01158734       0.36563730
H        3.18005722       0.22651420       0.16539924
H        2.75957974      -1.30651986      -0.23763453
H        1.28862420       2.11950165      -0.08858425
H       -2.02392010       1.28729606      -0.16701073
14
Frame=10 idx=006924 GeodesicLength=0.37305779183365617 rxn_smarts="[N:1]([c:2]1[c:3]([H:10])[c:4]([N:5]([H:11])[H:12])[c:6]([H:13])[n:7]1[H:14])([H:8])[H:9]>>[N+:1]([c-:2]1[c:3]([H:10])[c:4]([N:5]([H:11])[H:12])[c:6]([H:13])[n:7]1)([H:8])([H:9])[H:14]"
N       -2.42768986      -0.05471197      -0.10370517
C       -0.98004285      -0.12401836      -0.20126903
C        0.05971348      -0.95401207       0.14224719
C        1.18809451      -0.09487760       0.14891665
N        2.52084533      -0.51726416       0.34490152
C        0.72726002       1.20025593      -0.02208628
N       -0.62202308       1.17300801      -0.24375073
H       -2.88196303      -0.52644706      -0.87893891
H       -2.80554245      -0.43174884       0.75895391
H        0.02103010      -2.00782965       0.37018642
H        3.17973378       0.22454248       0.16413929
H        2.75681576      -1.30907860      -0.23444424
H        1.28770425       2.12046179      -0.08406746
H       -2.02393598       1.30172011      -0.16108316
14
Frame=11 idx=006924 GeodesicLength=0.41034933932848117 rxn_smarts="[N:1]([c:2]1[c:3]([H:10])[c:4]([N:5]([H:11])[H:12])[c:6]([H:13])[n:7]1[H:14])([H:8])[H:9]>>[N+:1]([c-:2]1[c:3]([H:10])[c:4]([N:5]([H:11])[H:12])[c:6]([H:13])[n:7]1)([H:8])([H:9])[H:14]"
N       -2.42678258      -0.05635979      -0.10334896
C       -0.97959054      -0.12390567      -0.21459759
C        0.05797697      -0.95167409       0.14067647
C        1.18728839      -0.09418509       0.14983135
N        2.51951520      -0.51776914       0.34573707
C        0.72675731       1.20063037      -0.02149450
N       -0.62126560       1.17428302      -0.25187033
H       -2.88204776      -0.53191797      -0.87575643
H       -2.79352662      -0.44362725       0.75963637
H        0.01535544      -2.00405695       0.37476137
H        3.17939455       0.22256778       0.16262761
H        2.75398217      -1.31164771      -0.23136056
H        1.28672127       2.12138836      -0.07985300
H       -2.02377819       1.31627414      -0.15498887
14
Frame=12 idx=006924 GeodesicLength=0.4476565927397105 rxn_smarts="[N:1]([c:2]1[c:3]([H:10])[c:4]([N:5]([H:11])[H:12])[c:6]([H:13])[n:7]1[H:14])([H:8])[H:9]>>[N+:1]([c-:2]1[c:3]([H:10])[c:4]([N:5]([H:11])[H:12])[c:6]([H:13])[n:7]1)([H:8])([H:9])[H:14]"
N       -2.42585313      -0.05813254      -0.10304899
C       -0.97917964      -0.12380274      -0.22741256
C        0.05624617      -0.94935603       0.13909788
C        1.18648032      -0.09351052       0.15056253
N        2.51818907      -0.51824228       0.34645038
C        0.72623550       1.20096427      -0.02120312
N       -0.62056711       1.17552960      -0.25980543
H       -2.88182342      -0.53752862      -0.87276695
H       -2.78174611      -0.45535385       0.76002500
H        0.00966281      -2.00018872       0.37960715
H        3.17904156       0.22058334       0.16081089
H        2.75113554      -1.31430076      -0.22822609
H        1.28559997       2.12236995      -0.07530066
H       -2.02342153       1.33096890      -0.14879003
14
Frame=13 idx=006924 GeodesicLength=0.48497131059818543 rxn_smarts="[N:1]([c:2]1[c:3]([H:10])[c:4]([N:5]([H:11])[H:12])[c:6]([H:13])[n:7]1[H:14])([H:8])[H:9]>>[N+:1]([c-:2]1[c:3]([H:10])[c:4]([N:5]([H:11])[H:12])[c:6]([H:13])[n:7]1)([H:8])([H:9])[H:14]"
N       -2.42490601      -0.06000561      -0.10267302
C       -0.97884138      -0.12371712      -0.23991603
C        0.05454125      -0.94710962       0.13710125
C        1.18566753      -0.09287710       0.15085453
N        2.51681822      -0.51864699       0.34723009
C        0.72570019       1.20122231      -0.02154140
N       -0.61994255       1.17674039      -0.26769054
H       -2.88146949      -0.54318834      -0.86976489
H       -2.77001204      -0.46697168       0.76030862
H        0.00393921      -1.99622537       0.38450035
H        3.17866080       0.21861326       0.15895820
H        2.74840437      -1.31707369      -0.22467367
H        1.28429033       2.12341096      -0.07039070
H       -2.02285043       1.34582860      -0.14230279
14
Frame=14 idx=006924 GeodesicLength=0.5222969347641032 rxn_smarts="[N:1]([c:2]1[c:3]([H:10])[c:4]([N:5]([H:11])[H:12])[c:6]([H:13])[n:7]1[H:14])([H:8])[H:9]>>[N+:1]([c-:2]1[c:3]([H:10])[c:4]([N:5]([H:11])[H:12])[c:6]([H:13])[n:7]1)([H:8])([H:9])[H:14]"
N       -2.42394998      -0.06202357      -0.10244999
C       -0.97852369      -0.12363254      -0.25187432
C        0.05283554      -0.94485439       0.13533294
C        1.18485301      -0.09223832       0.15119335
N        2.51547778      -0.51904514       0.34783436
C        0.72515125       1.20147106      -0.02191714
N       -0.61938769       1.17794970      -0.27512927
H       -2.88073483      -0.54893753      -0.86715062
H       -2.75861673      -0.47856177       0.76014733
H       -0.00179576      -1.99215932       0.38974833
H        3.17827713       0.21662262       0.15676361
H        2.74558906      -1.31986822      -0.22127748
H        1.28291905       2.12443453      -0.06560356
H       -2.02209414       1.36084291      -0.13561756
14
Frame=15 idx=006924 GeodesicLength=0.5596329423717258 rxn_smarts="[N:1]([c:2]1[c:3]([H:10])[c:4]([N:5]([H:11])[H:12])[c:6]([H:13])[n:7]1[H:14])([H:8])[H:9]>>[N+:1]([c-:2]1[c:3]([H:10])[c:4]([N:5]([H:11])[H:12])[c:6]([H:13])[n:7]1)([H:8])([H:9])[H:14]"
N       -2.42298010      -0.06416831      -0.10230314
C       -0.97824107      -0.12357993      -0.26347339
C        0.05114632      -0.94262118       0.13354467
C        1.18404734      -0.09161515       0.15131541
N        2.51415275      -0.51939585       0.34830923
C        0.72459738       1.20167541      -0.02266805
N       -0.61889408       1.17912072      -0.28243251
H       -2.87976088      -0.55480334      -0.86472672
H       -2.74739886      -0.49004508       0.75972012
H       -0.00755769      -1.98794676       0.39538295
H        3.17789017       0.21460977       0.15416890
H        2.74276196      -1.32278686      -0.21775031
H        1.28135521       2.12553097      -0.06028992
H       -2.02111844       1.37602559      -0.12879725
14
Frame=16 idx=006924 GeodesicLength=0.5969751693299333 rxn_smarts="[N:1]([c:2]1[c:3]([H:10])[c:4]([N:5]([H:11])[H:12])[c:6]([H:13])[n:7]1[H:14])([H:8])[H:9]>>[N+:1]([c-:2]1[c:3]([H:10])[c:4]([N:5]([H:11])[H:12])[c:6]([H:13])[n:7]1)([H:8])([H:9])[H:14]"
N       -2.42201125      -0.06645823      -0.10231033
C       -0.97797371      -0.12354488      -0.27459652
C        0.04945774      -0.94036901       0.13202397
C        1.18324975      -0.09098259       0.15144706
N        2.51286799      -0.51971872       0.34861006
C        0.72404308       1.20186599      -0.02355396
N       -0.61846975       1.18027905      -0.28936656
H       -2.87844990      -0.56078185      -0.86265797
H       -2.73649624      -0.50147681       0.75890189
H       -0.01331461      -1.98362810       0.40134558
H        3.17750736       0.21256664       0.15112728
H        2.73985168      -1.32577473      -0.21427565
H        1.27968717       2.12664102      -0.05487534
H       -2.01994930       1.39138222      -0.12181951
