19
Frame=0 idx=008676 GeodesicLength=0.0 rxn_smarts="[C:1]([C:2]1([O:3][H:11])[C:4]([H:12])([H:13])[C:5]([H:14])([H:15])[C:6]([H:16])([H:17])[C:7]1([H:18])[H:19])([H:8])([H:9])[H:10]>>[C:1]([H:8])([H:9])([H:10])[H:11].[C:2]1(=[O:3])[C:4]([H:12])([H:13])[C:5]([H:14])([H:15])[C:6]([H:16])([H:17])[C:7]1([H:18])[H:19]"
C        1.57734406      -0.50062095      -0.94822763
C        0.63089814      -0.19192446       0.76560506
O        1.56869180      -0.47944541       1.65429789
C        0.13167922       1.23088290       0.60266404
C       -1.10279658       1.16072620      -0.29814029
C       -1.58499002      -0.31734415      -0.26454306
C       -0.59168764      -1.07891305       0.61885570
H        2.38159563       0.20127128      -1.17891151
H        0.71375158      -0.25448582      -1.55840745
H        1.86746240      -1.53297765      -1.15776658
H        1.86516950      -0.58289101       0.38183887
H       -0.12731901       1.52475916       1.62543521
H        0.91071869       1.91336485       0.26657261
H       -1.88104180       1.84544619       0.03794664
H       -0.85300612       1.45717266      -1.31847025
H       -1.60981950      -0.73546075      -1.27226077
H       -2.59958054      -0.39667096       0.12536039
H       -0.34131768      -2.08032126       0.27203949
H       -0.95575207      -1.18256775       1.64611166
19
Frame=1 idx=008676 GeodesicLength=0.14527007361289407 rxn_smarts="[C:1]([C:2]1([O:3][H:11])[C:4]([H:12])([H:13])[C:5]([H:14])([H:15])[C:6]([H:16])([H:17])[C:7]1([H:18])[H:19])([H:8])([H:9])[H:10]>>[C:1]([H:8])([H:9])([H:10])[H:11].[C:2]1(=[O:3])[C:4]([H:12])([H:13])[C:5]([H:14])([H:15])[C:6]([H:16])([H:17])[C:7]1([H:18])[H:19]"
C        1.61806892      -0.51389765      -0.94603037
C        0.61971364      -0.19366139       0.75645169
O        1.53981109      -0.48254163       1.66242072
C        0.13152752       1.23099051       0.58378742
C       -1.13058394       1.16707404      -0.27616314
C       -1.60114463      -0.31282932      -0.26237380
C       -0.60550358      -1.07793358       0.61441425
H        2.42509534       0.18932489      -1.16436973
H        0.76917934      -0.26823982      -1.57814801
H        1.91495072      -1.54520230      -1.15145298
H        1.89551331      -0.58594621       0.39880949
H       -0.08338336       1.56039088       1.60569019
H        0.90019604       1.90115723       0.20133550
H       -1.90319805       1.83471235       0.10507357
H       -0.92046809       1.49082009      -1.29722091
H       -1.62093057      -0.71911462      -1.27514862
H       -2.61692043      -0.40474811       0.12203024
H       -0.36241191      -2.07870937       0.26032400
H       -0.96951137      -1.19164599       1.64057050
19
Frame=2 idx=008676 GeodesicLength=0.2907944768393339 rxn_smarts="[C:1]([C:2]1([O:3][H:11])[C:4]([H:12])([H:13])[C:5]([H:14])([H:15])[C:6]([H:16])([H:17])[C:7]1([H:18])[H:19])([H:8])([H:9])[H:10]>>[C:1]([H:8])([H:9])([H:10])[H:11].[C:2]1(=[O:3])[C:4]([H:12])([H:13])[C:5]([H:14])([H:15])[C:6]([H:16])([H:17])[C:7]1([H:18])[H:19]"
C        1.66137388      -0.52826479      -0.94210519
C        0.60784405      -0.19543138       0.74570926
O        1.50965975      -0.48464250       1.66926854
C        0.13106359       1.23094329       0.56224446
C       -1.15997236       1.17404133      -0.25196964
C       -1.61884499      -0.30742007      -0.26010807
C       -0.62006152      -1.07692031       0.60840051
H        2.47017643       0.17726079      -1.14794689
H        0.82853035      -0.28535638      -1.59764055
H        1.96680033      -1.55824668      -1.14183856
H        1.92687662      -0.58804120       0.41794681
H       -0.03604307       1.59682674       1.58044288
H        0.88690325       1.88658064       0.13129092
H       -1.92396823       1.82241581       0.17754275
H       -0.99319123       1.52710934      -1.27138063
H       -1.63408640      -0.70021476      -1.27838505
H       -2.63541333      -0.41237733       0.11920946
H       -0.38426520      -2.07653311       0.24585716
H       -0.98338194      -1.20172944       1.63346182
19
Frame=3 idx=008676 GeodesicLength=0.43645998828097843 rxn_smarts="[C:1]([C:2]1([O:3][H:11])[C:4]([H:12])([H:13])[C:5]([H:14])([H:15])[C:6]([H:16])([H:17])[C:7]1([H:18])[H:19])([H:8])([H:9])[H:10]>>[C:1]([H:8])([H:9])([H:10])[H:11].[C:2]1(=[O:3])[C:4]([H:12])([H:13])[C:5]([H:14])([H:15])[C:6]([H:16])([H:17])[C:7]1([H:18])[H:19]"
C        1.70747355      -0.54371196      -0.93612082
C        0.59521423      -0.19726927       0.73313219
O        1.47807601      -0.48559523       1.67468241
C        0.13018709       1.23065722       0.53759526
C       -1.19091950       1.18164092      -0.22524313
C       -1.63830736      -0.30094080      -0.25764889
C       -0.63542674      -1.07591563       0.60048666
H        2.51677785       0.16536500      -1.12940479
H        0.89219953      -0.30637799      -1.61668606
H        2.02355080      -1.57199314      -1.12824996
H        1.95922397      -0.58882586       0.43955229
H        0.01487167       1.63393397       1.54863880
H        0.87025078       1.86911861       0.05572626
H       -1.94260773       1.80829288       0.25575004
H       -1.07133493       1.56609443      -1.23998482
H       -1.64981640      -0.67835756      -1.28188650
H       -2.65519270      -0.41928536       0.11721275
H       -0.40693275      -2.07368586       0.22801325
H       -0.99728738      -1.21314438       1.62443506
19
Frame=4 idx=008676 GeodesicLength=0.5821311657928244 rxn_smarts="[C:1]([C:2]1([O:3][H:11])[C:4]([H:12])([H:13])[C:5]([H:14])([H:15])[C:6]([H:16])([H:17])[C:7]1([H:18])[H:19])([H:8])([H:9])[H:10]>>[C:1]([H:8])([H:9])([H:10])[H:11].[C:2]1(=[O:3])[C:4]([H:12])([H:13])[C:5]([H:14])([H:15])[C:6]([H:16])([H:17])[C:7]1([H:18])[H:19]"
C        1.75657133      -0.56013788      -0.92768956
C        0.58173871      -0.19924188       0.71845135
O        1.44489193      -0.48524753       1.67846481
C        0.12876999       1.23000782       0.50935037
C       -1.22326269       1.18985310      -0.19568499
C       -1.65980145      -0.29319289      -0.25481960
C       -0.65168232      -1.07499413       0.59029077
H        2.56477245       0.15407011      -1.10846992
H        0.96061292      -0.33182193      -1.63499835
H        2.08576633      -1.58618632      -1.10992922
H        1.99247313      -0.58788071       0.46395656
H        0.06943756       1.67148051       1.50904791
H        0.84951695       1.84810704      -0.02606927
H       -1.95811804       1.79209969       0.33990800
H       -1.15478957       1.60767922      -1.20199007
H       -1.66885504      -0.65314135      -1.28545957
H       -2.67642531      -0.42508077       0.11655134
H       -0.43048922      -2.07004311       0.20602122
H       -1.01112764      -1.22632900       1.61306822
19
Frame=5 idx=008676 GeodesicLength=0.7276070565394765 rxn_smarts="[C:1]([C:2]1([O:3][H:11])[C:4]([H:12])([H:13])[C:5]([H:14])([H:15])[C:6]([H:16])([H:17])[C:7]1([H:18])[H:19])([H:8])([H:9])[H:10]>>[C:1]([H:8])([H:9])([H:10])[H:11].[C:2]1(=[O:3])[C:4]([H:12])([H:13])[C:5]([H:14])([H:15])[C:6]([H:16])([H:17])[C:7]1([H:18])[H:19]"
C        1.80880304      -0.57728972      -0.91636873
C        0.56730998      -0.20148345       0.70138884
O        1.40993431      -0.48350703       1.68036714
C        0.12665036       1.22880006       0.47700419
C       -1.25664802       1.19861392      -0.16306590
C       -1.68364192      -0.28397321      -0.25132514
C       -0.66893301      -1.07427354       0.57739581
H        2.61388621       0.14400585      -1.08483507
H        1.03419419      -0.36209743      -1.65218232
H        2.15397578      -1.60033747      -1.08607501
H        2.02646882      -0.58471200       0.49149456
H        0.12761917       1.70908096       1.46028889
H        0.82381733       1.82270773      -0.11470054
H       -1.96922910       1.77366849       0.42986798
H       -1.24293226       1.65155877      -1.15637679
H       -1.69216859      -0.62423093      -1.28874606
H       -2.69929755      -0.42924145       0.11801157
H       -0.45503568      -2.06544527       0.17898133
H       -1.02477306      -1.24184427       1.59887525
19
Frame=6 idx=008676 GeodesicLength=0.8726521516659996 rxn_smarts="[C:1]([C:2]1([O:3][H:11])[C:4]([H:12])([H:13])[C:5]([H:14])([H:15])[C:6]([H:16])([H:17])[C:7]1([H:18])[H:19])([H:8])([H:9])[H:10]>>[C:1]([H:8])([H:9])([H:10])[H:11].[C:2]1(=[O:3])[C:4]([H:12])([H:13])[C:5]([H:14])([H:15])[C:6]([H:16])([H:17])[C:7]1([H:18])[H:19]"
C        1.86423977      -0.59472525      -0.90169328
C        0.55182676      -0.20418993       0.68165569
O        1.37306499      -0.48030617       1.68009708
C        0.12364968       1.22674896       0.44005713
C       -1.29048292       1.20778783      -0.12732845
C       -1.71019150      -0.27307241      -0.24670458
C       -0.68731075      -1.07391434       0.56134999
H        2.66374460       0.13600847      -1.05817456
H        1.11337990      -0.39735784      -1.66771437
H        2.22861681      -1.61368787      -1.05588574
H        2.06094375      -0.57880722       0.52250341
H        0.18905311       1.74606009       1.40092951
H        0.79224969       1.79185296      -0.21050023
H       -1.97433634       1.75301832       0.52497024
H       -1.33463528       1.69716108      -1.10234083
H       -1.72105534      -0.59141728      -1.29114513
H       -2.72398726      -0.43107614       0.12277954
H       -0.48072212      -2.05969539       0.14584686
H       -1.03804754      -1.26038787       1.58129773
19
Frame=7 idx=008676 GeodesicLength=1.0170058671929587 rxn_smarts="[C:1]([C:2]1([O:3][H:11])[C:4]([H:12])([H:13])[C:5]([H:14])([H:15])[C:6]([H:16])([H:17])[C:7]1([H:18])[H:19])([H:8])([H:9])[H:10]>>[C:1]([H:8])([H:9])([H:10])[H:11].[C:2]1(=[O:3])[C:4]([H:12])([H:13])[C:5]([H:14])([H:15])[C:6]([H:16])([H:17])[C:7]1([H:18])[H:19]"
C        1.92276253      -0.61174090      -0.88323013
C        0.53518020      -0.20769057       0.65901058
O        1.33421007      -0.47577368       1.67731409
C        0.11958243       1.22346576       0.39813107
C       -1.32387058       1.21719997      -0.08867085
C       -1.73979688      -0.26035936      -0.24031877
C       -0.70699707      -1.07413859       0.54177094
H        2.71374900       0.13114224      -1.02819339
H        1.19851710      -0.43734069      -1.68096606
H        2.30985738      -1.62511774      -1.01875065
H        2.09552348      -0.56967594       0.55723979
H        0.25314002       1.78145081       1.32966595
H        0.75390375       1.75438447      -0.31328417
H       -1.97171789       1.73043973       0.62382874
H       -1.42784979       1.74364838      -1.03956295
H       -1.75698101      -0.55478197      -1.29179554
H       -2.75063488      -0.42983341       0.13240985
H       -0.50779020      -2.05256460       0.10560725
H       -1.05078767      -1.28271392       1.55979424
19
Frame=8 idx=008676 GeodesicLength=1.1604668069410942 rxn_smarts="[C:1]([C:2]1([O:3][H:11])[C:4]([H:12])([H:13])[C:5]([H:14])([H:15])[C:6]([H:16])([H:17])[C:7]1([H:18])[H:19])([H:8])([H:9])[H:10]>>[C:1]([H:8])([H:9])([H:10])[H:11].[C:2]1(=[O:3])[C:4]([H:12])([H:13])[C:5]([H:14])([H:15])[C:6]([H:16])([H:17])[C:7]1([H:18])[H:19]"
C        1.98407168      -0.62741931      -0.86064433
C        0.51733234      -0.21243012       0.63325301
O        1.29351560      -0.47022748       1.67162829
C        0.11430942       1.21846769       0.35099161
C       -1.35567784       1.22664748      -0.04767153
C       -1.77274700      -0.24577547      -0.23139715
C       -0.72822051      -1.07521687       0.51839551
H        2.76316108       0.13060133      -0.99468285
H        1.28981276      -0.48121934      -1.69122093
H        2.39756905      -1.63323345      -0.97426581
H        2.12975854      -0.55700454       0.59586360
H        0.31883179       1.81387954       1.24557513
H        0.70816934       1.70910785      -0.42218779
H       -1.95964616       1.70654097       0.72431658
H       -1.51999157       1.79011973      -0.96841879
H       -1.80152221      -0.51468521      -1.28957276
H       -2.77927016      -0.42474991       0.14871485
H       -0.53661514      -2.04384386       0.05745497
H       -1.06284103      -1.30955903       1.53386838
19
Frame=9 idx=008676 GeodesicLength=1.3023520835543814 rxn_smarts="[C:1]([C:2]1([O:3][H:11])[C:4]([H:12])([H:13])[C:5]([H:14])([H:15])[C:6]([H:16])([H:17])[C:7]1([H:18])[H:19])([H:8])([H:9])[H:10]>>[C:1]([H:8])([H:9])([H:10])[H:11].[C:2]1(=[O:3])[C:4]([H:12])([H:13])[C:5]([H:14])([H:15])[C:6]([H:16])([H:17])[C:7]1([H:18])[H:19]"
C        2.04728296      -0.64059894      -0.83394607
C        0.49817485      -0.21891408       0.60432614
O        1.25104638      -0.46418752       1.66249184
C        0.10762760       1.21107318       0.29892675
C       -1.38439014       1.23576279      -0.00532806
C       -1.80870461      -0.22943343      -0.21905944
C       -0.75113857      -1.07720728       0.49127620
H        2.81077677       0.13534656      -0.95774292
H        1.38709233      -0.52739129      -1.69775789
H        2.49047100      -1.63640843      -0.92295216
H        2.16285754      -0.54064875       0.63815071
H        0.38432378       1.84148876       1.14871016
H        0.65484218       1.65508032      -0.53495718
H       -1.93686493       1.68214995       0.82340921
H       -1.60725910       1.83502458      -0.89037903
H       -1.85521539      -0.47202165      -1.28304879
H       -2.80920848      -0.41514854       0.17349678
H       -0.56756613      -2.03300687       0.00114799
H       -1.07414804      -1.34095936       1.50323575
19
Frame=10 idx=008676 GeodesicLength=1.4429129609056848 rxn_smarts="[C:1]([C:2]1([O:3][H:11])[C:4]([H:12])([H:13])[C:5]([H:14])([H:15])[C:6]([H:16])([H:17])[C:7]1([H:18])[H:19])([H:8])([H:9])[H:10]>>[C:1]([H:8])([H:9])([H:10])[H:11].[C:2]1(=[O:3])[C:4]([H:12])([H:13])[C:5]([H:14])([H:15])[C:6]([H:16])([H:17])[C:7]1([H:18])[H:19]"
C        2.11153861      -0.65021492      -0.80339135
C        0.47784847      -0.22777177       0.57233714
O        1.20761814      -0.45856330       1.64961202
C        0.09963267       1.20081595       0.24234846
C       -1.40881713       1.24440213       0.03705584
C       -1.84746486      -0.21164248      -0.20278353
C       -0.77614069      -1.08042050       0.46086897
H        2.85568379       0.14631091      -0.91766841
H        1.48984699      -0.57377633      -1.70016884
H        2.58749193      -1.63313947      -0.86543605
H        2.19441692      -0.52086522       0.68384220
H        0.44820282       1.86258087       1.03991200
H        0.59454386       1.59196782      -0.64921584
H       -1.90273820       1.65814871       0.91815476
H       -1.68668051       1.87796293      -0.80754903
H       -1.91847891      -0.42776192      -1.27122802
H       -2.84003734      -0.40093968       0.20776333
H       -0.60146648      -2.02015521      -0.06255820
H       -1.08500008      -1.37693852       1.46810453
19
Frame=11 idx=008676 GeodesicLength=1.5819424548886 rxn_smarts="[C:1]([C:2]1([O:3][H:11])[C:4]([H:12])([H:13])[C:5]([H:14])([H:15])[C:6]([H:16])([H:17])[C:7]1([H:18])[H:19])([H:8])([H:9])[H:10]>>[C:1]([H:8])([H:9])([H:10])[H:11].[C:2]1(=[O:3])[C:4]([H:12])([H:13])[C:5]([H:14])([H:15])[C:6]([H:16])([H:17])[C:7]1([H:18])[H:19]"
C        2.17543938      -0.65530178      -0.76972157
C        0.45643414      -0.23955411       0.53761117
O        1.16398616      -0.45441604       1.63268091
C        0.09036705       1.18721794       0.18229782
C       -1.42782861       1.25229667       0.07803848
C       -1.88795500      -0.19286247      -0.18234060
C       -0.80344310      -1.08486648       0.42810523
H        2.89677850       0.16368685      -0.87518424
H        1.59699233      -0.61780053      -1.69829602
H        2.68627607      -1.62228537      -0.80346441
H        2.22387605      -0.49812862       0.73226748
H        0.50865860       1.87549414       0.92133020
H        0.52844560       1.52038002      -0.76157315
H       -1.85774468       1.63520800       1.00553200
H       -1.75509097       1.91807543      -0.72284183
H       -1.98976943      -0.38311421      -1.25333912
H       -2.87048427      -0.38236224       0.25154076
H       -0.63903786      -2.00523402      -0.13185925
H       -1.09589995      -1.41643320       1.42921616
19
Frame=12 idx=008676 GeodesicLength=1.7195875967175436 rxn_smarts="[C:1]([C:2]1([O:3][H:11])[C:4]([H:12])([H:13])[C:5]([H:14])([H:15])[C:6]([H:16])([H:17])[C:7]1([H:18])[H:19])([H:8])([H:9])[H:10]>>[C:1]([H:8])([H:9])([H:10])[H:11].[C:2]1(=[O:3])[C:4]([H:12])([H:13])[C:5]([H:14])([H:15])[C:6]([H:16])([H:17])[C:7]1([H:18])[H:19]"
C        2.23776139      -0.65538587      -0.73385343
C        0.43407072      -0.25469607       0.50044680
O        1.12110795      -0.45272680       1.61145975
C        0.07999459       1.16999357       0.11979085
C       -1.44082438       1.25925853       0.11644894
C       -1.92901684      -0.17350431      -0.15803699
C       -0.83327964      -1.09053026       0.39406747
H        2.93306126       0.18739774      -0.83109314
H        1.70726659      -0.65738373      -1.69227242
H        2.78513020      -1.60313977      -0.73858113
H        2.25079926      -0.47308105       0.78269586
H        0.56438991       1.87912954       0.79553852
H        0.45805030       1.44135592      -0.86931941
H       -1.80282855       1.61347860       1.08361476
H       -1.81081095       1.95533794      -0.63860896
H       -2.06685795      -0.33887425      -1.22928965
H       -2.89931786      -0.35991808       0.30367536
H       -0.68107921      -1.98865144      -0.20428773
H       -1.10761679      -1.45806021       1.38760455
19
Frame=13 idx=008676 GeodesicLength=1.8561732482515347 rxn_smarts="[C:1]([C:2]1([O:3][H:11])[C:4]([H:12])([H:13])[C:5]([H:14])([H:15])[C:6]([H:16])([H:17])[C:7]1([H:18])[H:19])([H:8])([H:9])[H:10]>>[C:1]([H:8])([H:9])([H:10])[H:11].[C:2]1(=[O:3])[C:4]([H:12])([H:13])[C:5]([H:14])([H:15])[C:6]([H:16])([H:17])[C:7]1([H:18])[H:19]"
C        2.29751519      -0.65022711      -0.69682100
C        0.41094198      -0.27352968       0.46123218
O        1.08003437      -0.45454648       1.58591864
C        0.06868228       1.14908492       0.05599510
C       -1.44772296       1.26512314       0.15137983
C       -1.96943165      -0.15395467      -0.13052136
C       -0.86575301      -1.09735469       0.36004630
H        2.96438673       0.21668346      -0.78621504
H        1.81937200      -0.69032639      -1.68251597
H        2.88187107      -1.57579713      -0.67274984
H        2.27519227      -0.44645078       0.83442371
H        0.61450937       1.87304790       0.66540136
H        0.38495167       1.35694672      -0.97013546
H       -1.73983564       1.59276579       1.15115303
H       -1.85311496       1.98966073      -0.55716418
H       -2.14686052      -0.29559171      -1.19952822
H       -2.92547150      -0.33431437       0.36220560
H       -0.72827660      -1.97102642      -0.27693310
H       -1.12099009      -1.50019325       1.34482843
19
Frame=14 idx=008676 GeodesicLength=1.9918425308980272 rxn_smarts="[C:1]([C:2]1([O:3][H:11])[C:4]([H:12])([H:13])[C:5]([H:14])([H:15])[C:6]([H:16])([H:17])[C:7]1([H:18])[H:19])([H:8])([H:9])[H:10]>>[C:1]([H:8])([H:9])([H:10])[H:11].[C:2]1(=[O:3])[C:4]([H:12])([H:13])[C:5]([H:14])([H:15])[C:6]([H:16])([H:17])[C:7]1([H:18])[H:19]"
C        2.35403460      -0.63999309      -0.65938103
C        0.38704949      -0.29627103       0.42000468
O        1.04122093      -0.46039702       1.55587495
C        0.05655932       1.12436492      -0.00846777
C       -1.44859724       1.26969953       0.18257292
C       -2.00809725      -0.13432847      -0.10057253
C       -0.90088866      -1.10518063       0.32686483
H        2.99012343       0.25105083      -0.74091363
H        1.93245906      -0.71558407      -1.66939357
H        2.97569091      -1.54022632      -0.60694406
H        2.29654276      -0.41880990       0.88694349
H        0.65873326       1.85715909       0.53285729
H        0.31014346       1.26840643      -1.06318592
H       -1.66992925       1.57238322       1.20822373
H       -1.88212991       2.02135370      -0.47924293
H       -2.22711614      -0.25323138      -1.16478700
H       -2.94794519      -0.30592279       0.42510224
H       -0.78108271      -1.95308943      -0.34754528
H       -1.13677085      -1.54138357       1.30198958
19
Frame=15 idx=008676 GeodesicLength=2.1271460061616576 rxn_smarts="[C:1]([C:2]1([O:3][H:11])[C:4]([H:12])([H:13])[C:5]([H:14])([H:15])[C:6]([H:16])([H:17])[C:7]1([H:18])[H:19])([H:8])([H:9])[H:10]>>[C:1]([H:8])([H:9])([H:10])[H:11].[C:2]1(=[O:3])[C:4]([H:12])([H:13])[C:5]([H:14])([H:15])[C:6]([H:16])([H:17])[C:7]1([H:18])[H:19]"
C        2.40716952      -0.62479456      -0.62213643
C        0.36250449      -0.32310256       0.37683468
O        1.00535366      -0.47087804       1.52140394
C        0.04377516       1.09596699      -0.07311707
C       -1.44384742       1.27287287       0.20989409
C       -2.04443697      -0.11471570      -0.06895012
C       -0.93870312      -1.11400781       0.29535471
H        3.01101530       0.28969553      -0.69525644
H        2.04599460      -0.73168747      -1.65340940
H        3.06540292      -1.49715242      -0.54218111
H        2.31499475      -0.39078836       0.94003788
H        0.69720544       1.83193105       0.39942056
H        0.23442337       1.17764553      -1.14825233
H       -1.59453691       1.55159914       1.25514951
H       -1.89857001       2.05066667      -0.40562323
H       -2.30572388      -0.21160798      -1.12600741
H       -2.96648219      -0.27521205       0.49048618
H       -0.83995916      -1.93570946      -0.41414506
H       -1.15557954      -1.58072138       1.26049704
19
Frame=16 idx=008676 GeodesicLength=2.262408319714498 rxn_smarts="[C:1]([C:2]1([O:3][H:11])[C:4]([H:12])([H:13])[C:5]([H:14])([H:15])[C:6]([H:16])([H:17])[C:7]1([H:18])[H:19])([H:8])([H:9])[H:10]>>[C:1]([H:8])([H:9])([H:10])[H:11].[C:2]1(=[O:3])[C:4]([H:12])([H:13])[C:5]([H:14])([H:15])[C:6]([H:16])([H:17])[C:7]1([H:18])[H:19]"
C        2.45683574      -0.60481339      -0.58526423
C        0.33720227      -0.35425341       0.33143299
O        0.97240755      -0.48624686       1.48234044
C        0.03040706       1.06374158      -0.13807092
C       -1.43356499       1.27446528       0.23355120
C       -2.07794293      -0.09496796      -0.03612885
C       -0.97916617      -1.12375051       0.26572891
H        3.02678067       0.33243677      -0.64889367
H        2.15984126      -0.73808971      -1.63469402
H        3.15095397      -1.44657052      -0.47837032
H        2.32993560      -0.36281656       0.99374937
H        0.73031680       1.79757414       0.26545556
H        0.15788190       1.08537502      -1.22607980
H       -1.51395837       1.52953428       1.29273916
H       -1.90290593       2.07788796      -0.33602459
H       -2.38147181      -0.17015850      -1.08379604
H       -2.98060211      -0.24216573       0.55733379
H       -0.90520083      -1.91940585      -0.47592256
H       -1.17774969      -1.61777604       1.22091360
