10
Frame=0 idx=006124 GeodesicLength=0.0 rxn_smarts="[C:1]1([H:6])([H:7])[C:2]([H:8])([H:9])[N:3]=[C:4]([H:10])[O:5]1>>[C-:1]1([H:7])[C:2]([H:8])([H:9])[N:3]([H:6])[C:4]([H:10])=[O+:5]1"
C       -0.71899413      -0.76103386      -0.18192065
C       -0.70642878       0.68652000       0.16929337
N        0.68179633       0.60080534       0.73345821
C        1.31031966      -0.06874835      -0.24567195
O        0.51597892      -0.90732581      -0.84027515
H        0.19229980      -0.45495830       1.19015198
H       -1.50369057      -1.28078076      -0.71935494
H       -0.74517692       1.39303079      -0.67604066
H       -1.40180548       0.97862514       0.95023489
H        2.37570117      -0.18613419      -0.37987511
10
Frame=1 idx=006124 GeodesicLength=0.05904507680291514 rxn_smarts="[C:1]1([H:6])([H:7])[C:2]([H:8])([H:9])[N:3]=[C:4]([H:10])[O:5]1>>[C-:1]1([H:7])[C:2]([H:8])([H:9])[N:3]([H:6])[C:4]([H:10])=[O+:5]1"
C       -0.71802105      -0.76666886      -0.17459574
C       -0.70657423       0.68687256       0.16710844
N        0.68333461       0.60343366       0.72401729
C        1.31192210      -0.06647634      -0.25116180
O        0.51901867      -0.91254485      -0.83866475
H        0.19173879      -0.46021332       1.20610774
H       -1.50262587      -1.26814278      -0.73000180
H       -0.75808507       1.39336979      -0.67705205
H       -1.39865912       0.97856885       0.95159217
H        2.37795117      -0.18819871      -0.37734949
10
Frame=2 idx=006124 GeodesicLength=0.11806082795196803 rxn_smarts="[C:1]1([H:6])([H:7])[C:2]([H:8])([H:9])[N:3]=[C:4]([H:10])[O:5]1>>[C-:1]1([H:7])[C:2]([H:8])([H:9])[N:3]([H:6])[C:4]([H:10])=[O+:5]1"
C       -0.71710317      -0.77209437      -0.16760168
C       -0.70669076       0.68733897       0.16477638
N        0.68478748       0.60582879       0.71458087
C        1.31350726      -0.06424616      -0.25674975
O        0.52206774      -0.91762466      -0.83728075
H        0.19080654      -0.46569437       1.22211591
H       -1.50119776      -1.25585393      -0.73994751
H       -0.77083832       1.39397686      -0.67789995
H       -1.39547639       0.97856890       0.95280589
H        2.38013737      -0.19020004      -0.37479940
10
Frame=3 idx=006124 GeodesicLength=0.17706109631662953 rxn_smarts="[C:1]1([H:6])([H:7])[C:2]([H:8])([H:9])[N:3]=[C:4]([H:10])[O:5]1>>[C-:1]1([H:7])[C:2]([H:8])([H:9])[N:3]([H:6])[C:4]([H:10])=[O+:5]1"
C       -0.71622931      -0.77732755      -0.16090249
C       -0.70677621       0.68791319       0.16230404
N        0.68617047       0.60802125       0.70513628
C        1.31508164      -0.06205218      -0.26243757
O        0.52513123      -0.92258086      -0.83610087
H        0.18950384      -0.47139805       1.23820049
H       -1.49944237      -1.24389493      -0.74926203
H       -0.78345574       1.39483077      -0.67859117
H       -1.39224728       0.97862348       0.95388775
H        2.38226373      -0.19213512      -0.37223444
10
Frame=4 idx=006124 GeodesicLength=0.23605236034255195 rxn_smarts="[C:1]1([H:6])([H:7])[C:2]([H:8])([H:9])[N:3]=[C:4]([H:10])[O:5]1>>[C-:1]1([H:7])[C:2]([H:8])([H:9])[N:3]([H:6])[C:4]([H:10])=[O+:5]1"
C       -0.71539012      -0.78238154      -0.15447050
C       -0.70682843       0.68859078       0.15969653
N        0.68749657       0.61003603       0.69567302
C        1.31665160      -0.05988956      -0.26822656
O        0.52821374      -0.92742574      -0.83510759
H        0.18782726      -0.47732418       1.25438233
H       -1.49738929      -1.23225178      -0.75799893
H       -0.79595105       1.39591504      -0.67913167
H       -1.38896308       0.97873077       0.95484721
H        2.38433279      -0.19399983      -0.36966385
10
Frame=5 idx=006124 GeodesicLength=0.29505690250657857 rxn_smarts="[C:1]1([H:6])([H:7])[C:2]([H:8])([H:9])[N:3]=[C:4]([H:10])[O:5]1>>[C-:1]1([H:7])[C:2]([H:8])([H:9])[N:3]([H:6])[C:4]([H:10])=[O+:5]1"
C       -0.71457519      -0.78726900      -0.14827671
C       -0.70684558       0.68936705       0.15695947
N        0.68877904       0.61190174       0.68617592
C        1.31822302      -0.05775241      -0.27412014
O        0.53131995      -0.93217099      -0.83428384
H        0.18577037      -0.48347471       1.27068378
H       -1.49506395      -1.22090685      -0.76621306
H       -0.80834340       1.39721147      -0.67952674
H       -1.38561383       0.97888888       0.95569567
H        2.38634957      -0.19579518      -0.36709437
10
Frame=6 idx=006124 GeodesicLength=0.3540754822000659 rxn_smarts="[C:1]1([H:6])([H:7])[C:2]([H:8])([H:9])[N:3]=[C:4]([H:10])[O:5]1>>[C-:1]1([H:7])[C:2]([H:8])([H:9])[N:3]([H:6])[C:4]([H:10])=[O+:5]1"
C       -0.71377773      -0.79199927      -0.14230072
C       -0.70682490       0.69023887       0.15409648
N        0.69002805       0.61363708       0.67663653
C        1.31980143      -0.05564090      -0.28011585
O        0.53445410      -0.93682672      -0.83361528
H        0.18332234      -0.48985474       1.28712401
H       -1.49248647      -1.20984895      -0.77394201
H       -0.82063908       1.39870715      -0.67978093
H       -1.38219175       0.97909774       0.95643857
H        2.38831401      -0.19751025      -0.36454080
10
Frame=7 idx=006124 GeodesicLength=0.41311463593215514 rxn_smarts="[C:1]1([H:6])([H:7])[C:2]([H:8])([H:9])[N:3]=[C:4]([H:10])[O:5]1>>[C-:1]1([H:7])[C:2]([H:8])([H:9])[N:3]([H:6])[C:4]([H:10])=[O+:5]1"
C       -0.71298859      -0.79658206      -0.13652041
C       -0.70676447       0.69120240       0.15111126
N        0.69125395       0.61526352       0.66704231
C        1.32139225      -0.05355074      -0.28621726
O        0.53762079      -0.94140215      -0.83308836
H        0.18047113      -0.49646785       1.30372289
H       -1.48967555      -1.19906384      -0.78122545
H       -0.83285110       1.40038809      -0.67989767
H       -1.37868812       0.97935577       0.95708433
H        2.39022971      -0.19914314      -0.36201164
10
Frame=8 idx=006124 GeodesicLength=0.47216687715582173 rxn_smarts="[C:1]1([H:6])([H:7])[C:2]([H:8])([H:9])[N:3]=[C:4]([H:10])[O:5]1>>[C-:1]1([H:7])[C:2]([H:8])([H:9])[N:3]([H:6])[C:4]([H:10])=[O+:5]1"
C       -0.71220043      -0.80102395      -0.13091910
C       -0.70666314       0.69225597       0.14800627
N        0.69246454       0.61679770       0.65738310
C        1.32299894      -0.05147527      -0.29243077
O        0.54082312      -0.94590169      -0.83269608
H        0.17720603      -0.50331875       1.32049652
H       -1.48664487      -1.18854384      -0.78808972
H       -0.84498990       1.40224369      -0.67987834
H       -1.37509605       0.97966205       0.95763823
H        2.39210175      -0.20069590      -0.35951010
10
Frame=9 idx=006124 GeodesicLength=0.531249004558769 rxn_smarts="[C:1]1([H:6])([H:7])[C:2]([H:8])([H:9])[N:3]=[C:4]([H:10])[O:5]1>>[C-:1]1([H:7])[C:2]([H:8])([H:9])[N:3]([H:6])[C:4]([H:10])=[O+:5]1"
C       -0.71140583      -0.80533153      -0.12547830
C       -0.70651705       0.69339697       0.14478422
N        0.69367025       0.61825944       0.64764677
C        1.32462850      -0.04941783      -0.29875054
O        0.54406696      -0.95033630      -0.83242194
H        0.17350389      -0.51041895       1.33746673
H       -1.48340857      -1.17827481      -0.79456867
H       -0.85706254       1.40425933      -0.67972728
H       -1.37140503       0.98001751       0.95810720
H        2.39392942      -0.20215382      -0.35705820
10
Frame=10 idx=006124 GeodesicLength=0.590358368155899 rxn_smarts="[C:1]1([H:6])([H:7])[C:2]([H:8])([H:9])[N:3]=[C:4]([H:10])[O:5]1>>[C-:1]1([H:7])[C:2]([H:8])([H:9])[N:3]([H:6])[C:4]([H:10])=[O+:5]1"
C       -0.71059697      -0.80951061      -0.12018215
C       -0.70632595       0.69462306       0.14144854
N        0.69487827       0.61966640       0.63781904
C        1.32628339      -0.04736914      -0.30518828
O        0.54735540      -0.95471047      -0.83225981
H        0.16934998      -0.51777183       1.35465327
H       -1.47997481      -1.16824755      -0.80068818
H       -0.86908281       1.40642560      -0.67944473
H       -1.36760747       0.98041969       0.95849889
H        2.39572096      -0.20352515      -0.35465659
10
Frame=11 idx=006124 GeodesicLength=0.6488638187821811 rxn_smarts="[C:1]1([H:6])([H:7])[C:2]([H:8])([H:9])[N:3]=[C:4]([H:10])[O:5]1>>[C-:1]1([H:7])[C:2]([H:8])([H:9])[N:3]([H:6])[C:4]([H:10])=[O+:5]1"
C       -0.70980030      -0.81360820      -0.11498079
C       -0.70609516       0.69590123       0.13804347
N        0.69607094       0.62098692       0.62798385
C        1.32793429      -0.04546031      -0.31159677
O        0.55066795      -0.95908497      -0.83210375
H        0.16497399      -0.52530713       1.37194556
H       -1.47642037      -1.15837979      -0.80661458
H       -0.88101631       1.40870397      -0.67907291
H       -1.36374976       0.98091883       0.95878954
H        2.39743473      -0.20467056      -0.35239363
10
Frame=12 idx=006124 GeodesicLength=0.7085751146929241 rxn_smarts="[C:1]1([H:6])([H:7])[C:2]([H:8])([H:9])[N:3]=[C:4]([H:10])[O:5]1>>[C-:1]1([H:7])[C:2]([H:8])([H:9])[N:3]([H:6])[C:4]([H:10])=[O+:5]1"
C       -0.70891313      -0.81751314      -0.10995688
C       -0.70579707       0.69732721       0.13443901
N        0.69733633       0.62238424       0.61786520
C        1.32968536      -0.04330897      -0.31842505
O        0.55407838      -0.96331106      -0.83222745
H        0.15958942      -0.53329415       1.38968941
H       -1.47255253      -1.14888481      -0.81191241
H       -0.89298432       1.41116180      -0.67848696
H       -1.35965337       0.98138696       0.95906619
H        2.39921093      -0.20594807      -0.35005106
10
Frame=13 idx=006124 GeodesicLength=0.76769562993633 rxn_smarts="[C:1]1([H:6])([H:7])[C:2]([H:8])([H:9])[N:3]=[C:4]([H:10])[O:5]1>>[C-:1]1([H:7])[C:2]([H:8])([H:9])[N:3]([H:6])[C:4]([H:10])=[O+:5]1"
C       -0.70801966      -0.82132495      -0.10502204
C       -0.70545831       0.69880229       0.13077011
N        0.69859300       0.62371081       0.60770126
C        1.33144185      -0.04127845      -0.32523249
O        0.55752530      -0.96752450      -0.83235679
H        0.15393390      -0.54147691       1.40760772
H       -1.46857723      -1.13954591      -0.81703336
H       -0.90486876       1.41371989      -0.67781701
H       -1.35548663       0.98193278       0.95924999
H        2.40091653      -0.20701504      -0.34786739
10
Frame=14 idx=006124 GeodesicLength=0.8268225413817988 rxn_smarts="[C:1]1([H:6])([H:7])[C:2]([H:8])([H:9])[N:3]=[C:4]([H:10])[O:5]1>>[C-:1]1([H:7])[C:2]([H:8])([H:9])[N:3]([H:6])[C:4]([H:10])=[O+:5]1"
C       -0.70708376      -0.82502732      -0.10017958
C       -0.70506448       0.70036117       0.12699261
N        0.69988397       0.62504922       0.59740283
C        1.33324062      -0.03924887      -0.33217786
O        0.56103276      -0.97169993      -0.83257004
H        0.14771831      -0.54996793       1.42580050
H       -1.46443433      -1.13043032      -0.82185449
H       -0.91672396       1.41639502      -0.67701835
H       -1.35117402       0.98253581       0.95937872
H        2.40260490      -0.20796684      -0.34577432
10
Frame=15 idx=006124 GeodesicLength=0.8857442213667377 rxn_smarts="[C:1]1([H:6])([H:7])[C:2]([H:8])([H:9])[N:3]=[C:4]([H:10])[O:5]1>>[C-:1]1([H:7])[C:2]([H:8])([H:9])[N:3]([H:6])[C:4]([H:10])=[O+:5]1"
C       -0.70606606      -0.82863699      -0.09538883
C       -0.70467005       0.70197481       0.12315396
N        0.70119014       0.62650482       0.58693102
C        1.33509249      -0.03709925      -0.33932261
O        0.56456603      -0.97573912      -0.83297274
H        0.14121906      -0.55876762       1.44415699
H       -1.46017440      -1.12148707      -0.82639143
H       -0.92874012       1.41915882      -0.67617203
H       -1.34675939       0.98320007       0.95948897
H        2.40434231      -0.20910847      -0.34348330
10
Frame=16 idx=006124 GeodesicLength=0.94498529033616 rxn_smarts="[C:1]1([H:6])([H:7])[C:2]([H:8])([H:9])[N:3]=[C:4]([H:10])[O:5]1>>[C-:1]1([H:7])[C:2]([H:8])([H:9])[N:3]([H:6])[C:4]([H:10])=[O+:5]1"
C       -0.70504028      -0.83209880      -0.09072516
C       -0.70410685       0.70372071       0.11911143
N        0.70259984       0.62782335       0.57631258
C        1.33698040      -0.03515274      -0.34655122
O        0.56825267      -0.97992905      -0.83322995
H        0.13351693      -0.56790818       1.46302746
H       -1.45564525      -1.11282351      -0.83062186
H       -0.94043285       1.42204197      -0.67500360
H       -1.34205609       0.98390210       0.95948971
H        2.40593147      -0.20957586      -0.34180938
