11
Frame=0 idx=000181 GeodesicLength=0.0 rxn_smarts="[C:1]1([H:6])([H:7])[O:2][C:3]([H:8])([H:9])[C:4]([H:10])=[C:5]1[H:11]>>[C:1]([O:2][C:3]([C:4](=[C:5])[H:10])([H:8])[H:9])([H:6])([H:7])[H:11]"
C       -0.19186234      -1.24499058       0.29601892
O       -1.16996227      -0.32581439       0.16762107
C       -0.67257879       0.79685456      -0.52449743
C        0.71697550       1.02759414       0.02858298
C        1.38706473       0.10189847       0.67867720
H       -0.47291986      -2.02017777       1.00905447
H        0.22178441      -1.63986098      -0.63638368
H       -1.35757029       1.62696572      -0.35047791
H       -0.62748355       0.59534502      -1.60398305
H        1.18116814       1.99479430      -0.13249516
H        0.98538427      -0.91260852       1.06788261
11
Frame=1 idx=000181 GeodesicLength=0.048003975233941475 rxn_smarts="[C:1]1([H:6])([H:7])[O:2][C:3]([H:8])([H:9])[C:4]([H:10])=[C:5]1[H:11]>>[C:1]([O:2][C:3]([C:4](=[C:5])[H:10])([H:8])[H:9])([H:6])([H:7])[H:11]"
C       -0.18473729      -1.24590346       0.29837526
O       -1.16868378      -0.32936047       0.15768877
C       -0.67293896       0.79860193      -0.52594737
C        0.71447754       1.03347127       0.02962114
C        1.39071202       0.09781558       0.65676406
H       -0.47679684      -2.01895846       1.00973424
H        0.21839868      -1.65530898      -0.63266524
H       -1.35923049       1.62664381      -0.34614954
H       -0.62743531       0.60536170      -1.60686248
H        1.18085571       2.00043607      -0.12703109
H        0.98537872      -0.91279899       1.08647226
11
Frame=2 idx=000181 GeodesicLength=0.09601454773815395 rxn_smarts="[C:1]1([H:6])([H:7])[O:2][C:3]([H:8])([H:9])[C:4]([H:10])=[C:5]1[H:11]>>[C:1]([O:2][C:3]([C:4](=[C:5])[H:10])([H:8])[H:9])([H:6])([H:7])[H:11]"
C       -0.17763637      -1.24688314       0.30068517
O       -1.16735349      -0.33307975       0.14732862
C       -0.67327865       0.80035654      -0.52743748
C        0.71204460       1.03915072       0.03066290
C        1.39367358       0.09389935       0.63531963
H       -0.48052331      -2.01737646       1.01075190
H        0.21487543      -1.67101385      -0.62863297
H       -1.36087367       1.62622752      -0.34164748
H       -0.62738805       0.61564778      -1.60976912
H        1.18070872       2.00583429      -0.12139978
H        0.98575122      -0.91276299       1.10413861
11
Frame=3 idx=000181 GeodesicLength=0.14397826448998755 rxn_smarts="[C:1]1([H:6])([H:7])[O:2][C:3]([H:8])([H:9])[C:4]([H:10])=[C:5]1[H:11]>>[C:1]([O:2][C:3]([C:4](=[C:5])[H:10])([H:8])[H:9])([H:6])([H:7])[H:11]"
C       -0.17054975      -1.24790382       0.30292892
O       -1.16595843      -0.33695803       0.13655240
C       -0.67361431       0.80212025      -0.52894301
C        0.70965614       1.04461851       0.03169784
C        1.39596947       0.09019029       0.61440898
H       -0.48412660      -2.01544570       1.01199435
H        0.21132005      -1.68688092      -0.62426416
H       -1.36251463       1.62571367      -0.33693745
H       -0.62737435       0.62621019      -1.61265728
H        1.18074784       2.01091247      -0.11576817
H        0.98644458      -0.91257692       1.12098757
11
Frame=4 idx=000181 GeodesicLength=0.1919631610566473 rxn_smarts="[C:1]1([H:6])([H:7])[O:2][C:3]([H:8])([H:9])[C:4]([H:10])=[C:5]1[H:11]>>[C:1]([O:2][C:3]([C:4](=[C:5])[H:10])([H:8])[H:9])([H:6])([H:7])[H:11]"
C       -0.16348267      -1.24897828       0.30511070
O       -1.16448484      -0.34098316       0.12537049
C       -0.67394936       0.80390196      -0.53048768
C        0.70734081       1.04990376       0.03266504
C        1.39768505       0.08667644       0.59396821
H       -0.48765294      -2.01319725       1.01347546
H        0.20774109      -1.70294273      -0.61955373
H       -1.36416013       1.62510747      -0.33202890
H       -0.62742668       0.63705840      -1.61556636
H        1.18093761       2.01576588      -0.11007065
H        0.98745206      -0.91231249       1.13711742
11
Frame=5 idx=000181 GeodesicLength=0.23990546207488683 rxn_smarts="[C:1]1([H:6])([H:7])[O:2][C:3]([H:8])([H:9])[C:4]([H:10])=[C:5]1[H:11]>>[C:1]([O:2][C:3]([C:4](=[C:5])[H:10])([H:8])[H:9])([H:6])([H:7])[H:11]"
C       -0.15643799      -1.25008503       0.30722090
O       -1.16291291      -0.34516056       0.11375465
C       -0.67427920       0.80568314      -0.53207637
C        0.70510515       1.05499463       0.03352577
C        1.39890894       0.08333745       0.57389823
H       -0.49113833      -2.01059171       1.01516252
H        0.20415401      -1.71918426      -0.61446992
H       -1.36578849       1.62436765      -0.32689965
H       -0.62757278       0.64818903      -1.61848264
H        1.18123854       2.02040946      -0.10424861
H        0.98872305      -0.91195979       1.15261511
11
Frame=6 idx=000181 GeodesicLength=0.2878399730853287 rxn_smarts="[C:1]1([H:6])([H:7])[O:2][C:3]([H:8])([H:9])[C:4]([H:10])=[C:5]1[H:11]>>[C:1]([O:2][C:3]([C:4](=[C:5])[H:10])([H:8])[H:9])([H:6])([H:7])[H:11]"
C       -0.14940394      -1.25122728       0.30925331
O       -1.16122268      -0.34948296       0.10172858
C       -0.67461590       0.80747963      -0.53368524
C        0.70293125       1.05991452       0.03429877
C        1.39963497       0.08021178       0.55426065
H       -0.49460340      -2.00768743       1.01697450
H        0.20062750      -1.73555449      -0.60902002
H       -1.36742611       1.62350644      -0.32152268
H       -0.62782230       0.65961567      -1.62138117
H        1.18169407       2.02480700      -0.09848199
H        0.99020655      -0.91158288       1.16757529
11
Frame=7 idx=000181 GeodesicLength=0.3357874865744545 rxn_smarts="[C:1]1([H:6])([H:7])[O:2][C:3]([H:8])([H:9])[C:4]([H:10])=[C:5]1[H:11]>>[C:1]([O:2][C:3]([C:4](=[C:5])[H:10])([H:8])[H:9])([H:6])([H:7])[H:11]"
C       -0.14237721      -1.25240290       0.31121289
O       -1.15940721      -0.35394907       0.08926559
C       -0.67496537       0.80929491      -0.53533085
C        0.70082647       1.06466571       0.03495103
C        1.39994706       0.07725309       0.53496413
H       -0.49807305      -2.00447273       1.01892130
H        0.19718196      -1.75206528      -0.60318225
H       -1.36908353       1.62251172      -0.31589195
H       -0.62819730       0.67136813      -1.62427727
H        1.18227291       2.02899254      -0.09271395
H        0.99187526      -0.91119613       1.18208134
11
Frame=8 idx=000181 GeodesicLength=0.3837293181109078 rxn_smarts="[C:1]1([H:6])([H:7])[O:2][C:3]([H:8])([H:9])[C:4]([H:10])=[C:5]1[H:11]>>[C:1]([O:2][C:3]([C:4](=[C:5])[H:10])([H:8])[H:9])([H:6])([H:7])[H:11]"
C       -0.13536058      -1.25360351       0.31309734
O       -1.15745018      -0.35856354       0.07633762
C       -0.67532514       0.81112001      -0.53701729
C        0.69879522       1.06924987       0.03546876
C        1.39990444       0.07444278       0.51592247
H       -0.50157507      -2.00091895       1.02099576
H        0.19382006      -1.76872837      -0.59693144
H       -1.37075722       1.62135397      -0.30999407
H       -0.62870589       0.68345292      -1.62716555
H        1.18295187       2.03298560      -0.08689443
H        0.99370248      -0.91079078       1.19618084
11
Frame=9 idx=000181 GeodesicLength=0.4316928309147785 rxn_smarts="[C:1]1([H:6])([H:7])[O:2][C:3]([H:8])([H:9])[C:4]([H:10])=[C:5]1[H:11]>>[C:1]([O:2][C:3]([C:4](=[C:5])[H:10])([H:8])[H:9])([H:6])([H:7])[H:11]"
C       -0.12835213      -1.25482938       0.31491196
O       -1.15533782      -0.36333464       0.06291611
C       -0.67569754       0.81295454      -0.53875536
C        0.69684205       1.07366938       0.03583259
C        1.39955839       0.07175907       0.49705754
H       -0.50513341      -1.99700368       1.02320597
H        0.19055202      -1.78556065      -0.59024352
H       -1.37245273       1.62001772      -0.30381325
H       -0.62935844       0.69589190      -1.63005724
H        1.18371280       2.03680940      -0.08097552
H        0.99566679      -0.91037365       1.20992072
11
Frame=10 idx=000181 GeodesicLength=0.47964562360469043 rxn_smarts="[C:1]1([H:6])([H:7])[O:2][C:3]([H:8])([H:9])[C:4]([H:10])=[C:5]1[H:11]>>[C:1]([O:2][C:3]([C:4](=[C:5])[H:10])([H:8])[H:9])([H:6])([H:7])[H:11]"
C       -0.12134224      -1.25607226       0.31665990
O       -1.15302869      -0.36826156       0.04895579
C       -0.67607618       0.81479939      -0.54055019
C        0.69496273       1.07791876       0.03602693
C        1.39892718       0.06916755       0.47829705
H       -0.50876769      -1.99269111       1.02555541
H        0.18737926      -1.80257421      -0.58308510
H       -1.37416840       1.61847670      -0.29733955
H       -0.63016328       0.70871643      -1.63293732
H        1.18451935       2.04046117      -0.07491894
H        0.99775796      -0.90994086       1.22333603
11
Frame=11 idx=000181 GeodesicLength=0.5276252032053534 rxn_smarts="[C:1]1([H:6])([H:7])[O:2][C:3]([H:8])([H:9])[C:4]([H:10])=[C:5]1[H:11]>>[C:1]([O:2][C:3]([C:4](=[C:5])[H:10])([H:8])[H:9])([H:6])([H:7])[H:11]"
C       -0.11433474      -1.25733369       0.31833787
O       -1.15052301      -0.37336263       0.03442900
C       -0.67647184       0.81664991      -0.54240034
C        0.69316748       1.08200734       0.03604431
C        1.39806045       0.06667354       0.45961778
H       -0.51250771      -1.98797636       1.02802426
H        0.18433117      -1.81976622      -0.57544726
H       -1.37591963       1.61670387      -0.29053437
H       -0.63114441       0.72194468      -1.63580879
H        1.18540446       2.04394798      -0.06874664
H        0.99993777      -0.90948841       1.23648418
11
Frame=12 idx=000181 GeodesicLength=0.5756262504730454 rxn_smarts="[C:1]1([H:6])([H:7])[O:2][C:3]([H:8])([H:9])[C:4]([H:10])=[C:5]1[H:11]>>[C:1]([O:2][C:3]([C:4](=[C:5])[H:10])([H:8])[H:9])([H:6])([H:7])[H:11]"
C       -0.10732565      -1.25860765       0.31994535
O       -1.14779514      -0.37864299       0.01929768
C       -0.67688386       0.81850782      -0.54430562
C        0.69145087       1.08593147       0.03587305
C        1.39697081       0.06426120       0.44098543
H       -0.51635946      -1.98284520       1.03060201
H        0.18142103      -1.83712738      -0.56730166
H       -1.37770412       1.61467260      -0.28337605
H       -0.63231160       0.73561303      -1.63865497
H        1.18635869       2.04725368      -0.06247093
H        1.00217843      -0.90901656       1.24940572
11
Frame=13 idx=000181 GeodesicLength=0.6236395557643926 rxn_smarts="[C:1]1([H:6])([H:7])[O:2][C:3]([H:8])([H:9])[C:4]([H:10])=[C:5]1[H:11]>>[C:1]([O:2][C:3]([C:4](=[C:5])[H:10])([H:8])[H:9])([H:6])([H:7])[H:11]"
C       -0.10031211      -1.25988701       0.32149163
O       -1.14481441      -0.38412333       0.00350302
C       -0.67731424       0.82036298      -0.54626965
C        0.68982466       1.08968246       0.03548801
C        1.39569177       0.06190573       0.42233239
H       -0.52036223      -1.97723376       1.03327547
H        0.17867014      -1.85466648      -0.55860651
H       -1.37952439       1.61233999      -0.27582111
H       -0.63369011       0.74974533      -1.64147040
H        1.18737597       2.05038263      -0.05604912
H        1.00445493      -0.90850853       1.26212628
11
Frame=14 idx=000181 GeodesicLength=0.6716728990392905 rxn_smarts="[C:1]1([H:6])([H:7])[O:2][C:3]([H:8])([H:9])[C:4]([H:10])=[C:5]1[H:11]>>[C:1]([O:2][C:3]([C:4](=[C:5])[H:10])([H:8])[H:9])([H:6])([H:7])[H:11]"
C       -0.09329292      -1.26117022       0.32296911
O       -1.14155035      -0.38980114      -0.01297447
C       -0.67776559       0.82221876      -0.54828586
C        0.68828601       1.09327416       0.03489929
C        1.39423420       0.05961229       0.40366276
H       -0.52453308      -1.97115931       1.03602560
H        0.17608174      -1.87237240      -0.54936110
H       -1.38139468       1.60967762      -0.26785716
H       -0.63529099       0.76436476      -1.64423446
H        1.18847581       2.05332250      -0.04953688
H        1.00674986      -0.90796702       1.27469318
11
Frame=15 idx=000181 GeodesicLength=0.7197165878694664 rxn_smarts="[C:1]1([H:6])([H:7])[O:2][C:3]([H:8])([H:9])[C:4]([H:10])=[C:5]1[H:11]>>[C:1]([O:2][C:3]([C:4](=[C:5])[H:10])([H:8])[H:9])([H:6])([H:7])[H:11]"
C       -0.08626606      -1.26244923       0.32437789
O       -1.13797834      -0.39567971      -0.03015787
C       -0.67824216       0.82407036      -0.55034342
C        0.68683327       1.09670727       0.03410709
C        1.39260898       0.05737758       0.38497452
H       -0.52888997      -1.96460791       1.03881217
H        0.17368239      -1.89021370      -0.53955164
H       -1.38331756       1.60665077      -0.25945701
H       -0.63713115       0.77948455      -1.64691894
H        1.18967491       2.05605325      -0.04298780
H        1.00902567      -0.90739323       1.28714500
11
Frame=16 idx=000181 GeodesicLength=0.7677661366050127 rxn_smarts="[C:1]1([H:6])([H:7])[O:2][C:3]([H:8])([H:9])[C:4]([H:10])=[C:5]1[H:11]>>[C:1]([O:2][C:3]([C:4](=[C:5])[H:10])([H:8])[H:9])([H:6])([H:7])[H:11]"
C       -0.07923033      -1.26371713       0.32571850
O       -1.13406775      -0.40176033      -0.04806495
C       -0.67874688       0.82591207      -0.55243262
C        0.68546868       1.09998571       0.03311117
C        1.39082876       0.05519992       0.36626596
H       -0.53345376      -1.95757077       1.04159611
H        0.17148642      -1.90815936      -0.52917054
H       -1.38529711       1.60322127      -0.25059887
H       -0.63922794       0.79511374      -1.64949692
H        1.19098978       2.05856253      -0.03645038
H        1.01125013      -0.90678766       1.29952255
