15
Frame=0 idx=008030 GeodesicLength=0.0 rxn_smarts="[C:1]([C@@:2]1([H:11])[C:3]([H:12])([H:13])[N:4]([H:14])[C@:5]1([C:6]#[N:7])[H:15])([H:8])([H:9])[H:10]>>[C:1]([C@@:2]1([H:11])[C:3]([H:12])([H:13])[N:4]([H:14])[C:5]1=[C:6]=[N:7][H:15])([H:8])([H:9])[H:10]"
C        1.52781598      -0.37050979      -0.75167919
C        0.58083971       0.18725899       0.28887370
C       -0.30309656       1.39716314      -0.11454756
N       -1.54568526       0.64165673       0.19830298
C       -0.76195386      -0.52863767       0.42135724
C       -1.14759127      -1.90328928       0.00716819
N       -1.25773290      -1.89119259       1.27793761
H        1.01516704      -0.52975099      -1.70176633
H        2.36085572       0.31545226      -0.91686122
H        1.93542110      -1.32984340      -0.42856199
H        1.09345344       0.34094295       1.23904434
H       -0.20266132       1.64700644      -1.17211533
H       -0.19323405       2.29885245       0.48782400
H       -2.21682757       0.55050679      -0.55399444
H       -0.88477024      -0.82561598       1.71901806
15
Frame=1 idx=008030 GeodesicLength=0.10885981967254725 rxn_smarts="[C:1]([C@@:2]1([H:11])[C:3]([H:12])([H:13])[N:4]([H:14])[C@:5]1([C:6]#[N:7])[H:15])([H:8])([H:9])[H:10]>>[C:1]([C@@:2]1([H:11])[C:3]([H:12])([H:13])[N:4]([H:14])[C:5]1=[C:6]=[N:7][H:15])([H:8])([H:9])[H:10]"
C        1.53238643      -0.37042125      -0.74623371
C        0.58058643       0.19339695       0.28639570
C       -0.30181289       1.40059951      -0.12640021
N       -1.54217396       0.65500115       0.21455791
C       -0.76226959      -0.52106666       0.42827404
C       -1.14925765      -1.88237536      -0.00447082
N       -1.26447947      -1.93457181       1.25934848
H        1.02434509      -0.53814239      -1.69735085
H        2.36450775       0.31590542      -0.91461127
H        1.94109625      -1.32615815      -0.41386307
H        1.09030767       0.35592956       1.23673059
H       -0.21281824       1.63226698      -1.18940910
H       -0.18084176       2.31268716       0.45800755
H       -2.23047004       0.56940928      -0.52259097
H       -0.88910601      -0.86246039       1.73161574
15
Frame=2 idx=008030 GeodesicLength=0.21767227924842242 rxn_smarts="[C:1]([C@@:2]1([H:11])[C:3]([H:12])([H:13])[N:4]([H:14])[C@:5]1([C:6]#[N:7])[H:15])([H:8])([H:9])[H:10]>>[C:1]([C@@:2]1([H:11])[C:3]([H:12])([H:13])[N:4]([H:14])[C:5]1=[C:6]=[N:7][H:15])([H:8])([H:9])[H:10]"
C        1.53688342      -0.37029679      -0.74060080
C        0.58048598       0.19987398       0.28403002
C       -0.30058902       1.40405168      -0.13847782
N       -1.53815084       0.66879238       0.23106731
C       -0.76237862      -0.51309098       0.43594389
C       -1.15110255      -1.86088812      -0.01488187
N       -1.27147122      -1.97860201       1.23861595
H        1.03324778      -0.54693840      -1.69246090
H        2.36799336       0.31636699      -0.91266971
H        1.94681988      -1.32217861      -0.39869698
H        1.08741061       0.37153557       1.23433585
H       -0.22341978       1.61691466      -1.20661981
H       -0.16859728       2.32638873       0.42724452
H       -2.24332606       0.58863072      -0.49041988
H       -0.89380564      -0.90055980       1.74359023
15
Frame=3 idx=008030 GeodesicLength=0.32643301327711305 rxn_smarts="[C:1]([C@@:2]1([H:11])[C:3]([H:12])([H:13])[N:4]([H:14])[C@:5]1([C:6]#[N:7])[H:15])([H:8])([H:9])[H:10]>>[C:1]([C@@:2]1([H:11])[C:3]([H:12])([H:13])[N:4]([H:14])[C:5]1=[C:6]=[N:7][H:15])([H:8])([H:9])[H:10]"
C        1.54128708      -0.37013956      -0.73479226
C        0.58055195       0.20669477       0.28178840
C       -0.29943195       1.40750523      -0.15074684
N       -1.53360433       0.68302169       0.24777435
C       -0.76225328      -0.50469865       0.44444520
C       -1.15307413      -1.83886794      -0.02391313
N       -1.27871923      -2.02319478       1.21562761
H        1.04181386      -0.55615379      -1.68707550
H        2.37128804       0.31682070      -0.91108816
H        1.95258587      -1.31789330      -0.38308457
H        1.08482342       0.38779722       1.23183353
H       -0.23445144       1.60096272      -1.22366651
H       -0.15655657       2.33990609       0.39558310
H       -2.25531489       0.60812442      -0.45759306
H       -0.89894440      -0.93988482       1.75490785
15
Frame=4 idx=008030 GeodesicLength=0.4351373010281974 rxn_smarts="[C:1]([C@@:2]1([H:11])[C:3]([H:12])([H:13])[N:4]([H:14])[C@:5]1([C:6]#[N:7])[H:15])([H:8])([H:9])[H:10]>>[C:1]([C@@:2]1([H:11])[C:3]([H:12])([H:13])[N:4]([H:14])[C:5]1=[C:6]=[N:7][H:15])([H:8])([H:9])[H:10]"
C        1.54557889      -0.36995327      -0.72881963
C        0.58079793       0.21386275       0.27968282
C       -0.29834846       1.41094414      -0.16317279
N       -1.52852766       0.69767849       0.26462452
C       -0.76186310      -0.49587802       0.45385890
C       -1.15511355      -1.81636347      -0.03140868
N       -1.28623463      -2.06824740       1.19026030
H        1.04998298      -0.56580538      -1.68117202
H        2.37436703       0.31724900      -0.90991948
H        1.95839186      -1.31328996      -0.36704700
H        1.08260875       0.40475180       1.22919475
H       -0.24589773       1.58442365      -1.24046916
H       -0.14477485       2.35318895       0.36307392
H       -2.26636753       0.62784197      -0.42422407
H       -0.90459991      -0.98040324       1.76553761
15
Frame=5 idx=008030 GeodesicLength=0.5437818912971806 rxn_smarts="[C:1]([C@@:2]1([H:11])[C:3]([H:12])([H:13])[N:4]([H:14])[C@:5]1([C:6]#[N:7])[H:15])([H:8])([H:9])[H:10]>>[C:1]([C@@:2]1([H:11])[C:3]([H:12])([H:13])[N:4]([H:14])[C:5]1=[C:6]=[N:7][H:15])([H:8])([H:9])[H:10]"
C        1.54974397      -0.36974177      -0.72269186
C        0.58123745       0.22138020       0.27772547
C       -0.29734609       1.41434912      -0.17572353
N       -1.52291747       0.71275141       0.28157325
C       -0.76117421      -0.48661824       0.46426723
C       -1.15715541      -1.79343026      -0.03721397
N       -1.29403667      -2.11364000       1.16237259
H        1.05770011      -0.57591408      -1.67472422
H        2.37720592       0.31763498      -0.90921601
H        1.96424344      -1.30835327      -0.35060104
H        1.08082866       0.42243913       1.22638874
H       -0.25774785       1.56730141      -1.25695318
H       -0.13330326       2.36618858       0.32976083
H       -2.27643182       0.64773814      -0.39041318
H       -0.91084677      -1.02208536       1.77544887
15
Frame=6 idx=008030 GeodesicLength=0.6523641986924104 rxn_smarts="[C:1]([C@@:2]1([H:11])[C:3]([H:12])([H:13])[N:4]([H:14])[C@:5]1([C:6]#[N:7])[H:15])([H:8])([H:9])[H:10]>>[C:1]([C@@:2]1([H:11])[C:3]([H:12])([H:13])[N:4]([H:14])[C:5]1=[C:6]=[N:7][H:15])([H:8])([H:9])[H:10]"
C        1.55377021      -0.36951080      -0.71641391
C        0.58188272       0.22924859       0.27592845
C       -0.29643386       1.41769817      -0.18837026
N       -1.51677400       0.72823005       0.29858583
C       -0.76015116      -0.47690781       0.47575207
C       -1.15913999      -1.77012618      -0.04117713
N       -1.30212863      -2.15923684       1.13180042
H        1.06491523      -0.58650753      -1.66770025
H        2.37978132       0.31795865      -0.90902666
H        1.97015153      -1.30306669      -0.33375611
H        1.07954213       0.44090150       1.22338277
H       -0.26999585       1.54959144      -1.27304968
H       -0.12219135       2.37885763       0.29567994
H       -2.28547167       0.66777293      -0.35624655
H       -0.91775662      -1.06490310       1.78461108
15
Frame=7 idx=008030 GeodesicLength=0.7608812502456112 rxn_smarts="[C:1]([C@@:2]1([H:11])[C:3]([H:12])([H:13])[N:4]([H:14])[C@:5]1([C:6]#[N:7])[H:15])([H:8])([H:9])[H:10]>>[C:1]([C@@:2]1([H:11])[C:3]([H:12])([H:13])[N:4]([H:14])[C:5]1=[C:6]=[N:7][H:15])([H:8])([H:9])[H:10]"
C        1.55764928      -0.36926501      -0.70999121
C        0.58274674       0.23746642       0.27430356
C       -0.29562282       1.42096453      -0.20108330
N       -1.51010122       0.74409738       0.31563172
C       -0.75875348      -0.46673869       0.48839433
C       -1.16099244      -1.74652481      -0.04313882
N       -1.31054213      -2.20486382       1.09836649
H        1.07158269      -0.59761288      -1.66006674
H        2.38206937       0.31820249      -0.90940246
H        1.97613624      -1.29741031      -0.31652425
H        1.07880798       0.46017850       1.22014152
H       -0.28263807       1.53128555      -1.28868995
H       -0.11148986       2.39114534       0.26086808
H       -2.29346048       0.68790076      -0.32180771
H       -0.92539181      -1.10882547       1.79299874
15
Frame=8 idx=008030 GeodesicLength=0.8693247897117257 rxn_smarts="[C:1]([C@@:2]1([H:11])[C:3]([H:12])([H:13])[N:4]([H:14])[C@:5]1([C:6]#[N:7])[H:15])([H:8])([H:9])[H:10]>>[C:1]([C@@:2]1([H:11])[C:3]([H:12])([H:13])[N:4]([H:14])[C:5]1=[C:6]=[N:7][H:15])([H:8])([H:9])[H:10]"
C        1.56139578      -0.36899512      -0.70343232
C        0.58385342       0.24602881       0.27286258
C       -0.29492814       1.42410653      -0.21383996
N       -1.50289825       0.76031871       0.33270479
C       -0.75692373      -0.45611658       0.50227519
C       -1.16256655      -1.72273392      -0.04294515
N       -1.31950861      -2.25026959       1.06189611
H        1.07768768      -0.60923933      -1.65179914
H        2.38405924       0.31837450      -0.91039914
H        1.98225286      -1.29134685      -0.29892716
H        1.07869102       0.48030958       1.21662998
H       -0.29569392       1.51234280      -1.30381737
H       -0.10124937       2.40299353       0.22533974
H       -2.30039565       0.70806269      -0.28712982
H       -0.93377577      -1.15383577       1.80058166
15
Frame=9 idx=008030 GeodesicLength=0.977701503257433 rxn_smarts="[C:1]([C@@:2]1([H:11])[C:3]([H:12])([H:13])[N:4]([H:14])[C@:5]1([C:6]#[N:7])[H:15])([H:8])([H:9])[H:10]>>[C:1]([C@@:2]1([H:11])[C:3]([H:12])([H:13])[N:4]([H:14])[C:5]1=[C:6]=[N:7][H:15])([H:8])([H:9])[H:10]"
C        1.56497134      -0.36876109      -0.69666450
C        0.58516439       0.25494358       0.27161332
C       -0.29437163       1.42709804      -0.22666833
N       -1.49515417       0.77697626       0.34986507
C       -0.75467311      -0.44498647       0.51742734
C       -1.16411487      -1.69868066      -0.04053674
N       -1.32832064      -2.29540524       1.02195610
H        1.08318691      -0.62153617      -1.64276548
H        2.38571160       0.31836753      -0.91195911
H        1.98846570      -1.28488223      -0.28082641
H        1.07916194       0.50136704       1.21280651
H       -0.30922039       1.49265204      -1.31841487
H       -0.09147309       2.41437887       0.18898390
H       -2.30632227       0.72838716      -0.25208904
H       -0.94301171      -1.19991868       1.80727222
15
Frame=10 idx=008030 GeodesicLength=1.0859883583904906 rxn_smarts="[C:1]([C@@:2]1([H:11])[C:3]([H:12])([H:13])[N:4]([H:14])[C@:5]1([C:6]#[N:7])[H:15])([H:8])([H:9])[H:10]>>[C:1]([C@@:2]1([H:11])[C:3]([H:12])([H:13])[N:4]([H:14])[C:5]1=[C:6]=[N:7][H:15])([H:8])([H:9])[H:10]"
C        1.56841797      -0.36851405      -0.68975461
C        0.58673728       0.26418492       0.27056655
C       -0.29397321       1.42987767      -0.23949342
N       -1.48689360       0.79393056       0.36702864
C       -0.75189621      -0.43340240       0.53394125
C       -1.16523826      -1.67463766      -0.03565551
N       -1.33777397      -2.33974637       0.97851797
H        1.08807112      -0.63442598      -1.63300148
H        2.38702109       0.31825341      -0.91421556
H        1.99489030      -1.27795205      -0.26236346
H        1.08033447       0.52334343       1.20863080
H       -0.32318841       1.47224941      -1.33236976
H       -0.08227810       2.42519473       0.15195107
H       -2.31119013       0.74865448      -0.21690098
H       -0.95304033      -1.24701010       1.81311850
15
Frame=11 idx=008030 GeodesicLength=1.194183885596029 rxn_smarts="[C:1]([C@@:2]1([H:11])[C:3]([H:12])([H:13])[N:4]([H:14])[C@:5]1([C:6]#[N:7])[H:15])([H:8])([H:9])[H:10]>>[C:1]([C@@:2]1([H:11])[C:3]([H:12])([H:13])[N:4]([H:14])[C:5]1=[C:6]=[N:7][H:15])([H:8])([H:9])[H:10]"
C        1.57173873      -0.36826431      -0.68268838
C        0.58857605       0.27374164       0.26972971
C       -0.29376136       1.43239071      -0.25229752
N       -1.47812220       0.81114765       0.38420078
C       -0.74853860      -0.42136567       0.55186515
C       -1.16586651      -1.65071310      -0.02815767
N       -1.34791879      -2.38291331       0.93129824
H        1.09232675      -0.64796439      -1.62243826
H        2.38795413       0.31800920      -0.91719826
H        2.00157581      -1.27052055      -0.24352163
H        1.08223186       0.54627318       1.20405442
H       -0.33762369       1.45107182      -1.34561981
H       -0.07373273       2.43537240       0.11424156
H       -2.31500641       0.76881943      -0.18158246
H       -0.96383304      -1.29508469       1.81811412
15
Frame=12 idx=008030 GeodesicLength=1.3023050142299268 rxn_smarts="[C:1]([C@@:2]1([H:11])[C:3]([H:12])([H:13])[N:4]([H:14])[C@:5]1([C:6]#[N:7])[H:15])([H:8])([H:9])[H:10]>>[C:1]([C@@:2]1([H:11])[C:3]([H:12])([H:13])[N:4]([H:14])[C:5]1=[C:6]=[N:7][H:15])([H:8])([H:9])[H:10]"
C        1.57499721      -0.36799146      -0.67545341
C        0.59071003       0.28359964       0.26910866
C       -0.29378188       1.43455252      -0.26508688
N       -1.46883693       0.82855923       0.40143116
C       -0.74451593      -0.40890943       0.57124808
C       -1.16581205      -1.62706386      -0.01792607
N       -1.35925141      -2.42437498       0.88002856
H        1.09602111      -0.66217355      -1.61102121
H        2.38851946       0.31767047      -0.92094638
H        2.00866309      -1.26250890      -0.22428404
H        1.08489040       0.57019654       1.19903107
H       -0.35260608       1.42898604      -1.35813035
H       -0.06592418       2.44482453       0.07579361
H       -2.31781989       0.78881183      -0.14604258
H       -0.97525294      -1.34417862       1.82224979
15
Frame=13 idx=008030 GeodesicLength=1.4103300181070246 rxn_smarts="[C:1]([C@@:2]1([H:11])[C:3]([H:12])([H:13])[N:4]([H:14])[C@:5]1([C:6]#[N:7])[H:15])([H:8])([H:9])[H:10]>>[C:1]([C@@:2]1([H:11])[C:3]([H:12])([H:13])[N:4]([H:14])[C:5]1=[C:6]=[N:7][H:15])([H:8])([H:9])[H:10]"
C        1.57806397      -0.36782172      -0.66795150
C        0.59304197       0.29374204       0.26871646
C       -0.29405126       1.43632691      -0.27786783
N       -1.45903643       0.84629353       0.41874465
C       -0.73990403      -0.39592999       0.59207617
C       -1.16556214      -1.60355726      -0.00487031
N       -1.37020579      -2.46395289       0.82409434
H        1.09899651      -0.67731243      -1.59854028
H        2.38859346       0.31700698      -0.92538863
H        2.01599328      -1.25396790      -0.20448197
H        1.08820542       0.59513234       1.19351521
H       -0.36814764       1.40589090      -1.36984031
H       -0.05883708       2.45348465       0.03654384
H       -2.31964996       0.80884062      -0.11021976
H       -0.98750027      -1.39417580       1.82546991
15
Frame=14 idx=008030 GeodesicLength=1.5182626689991428 rxn_smarts="[C:1]([C@@:2]1([H:11])[C:3]([H:12])([H:13])[N:4]([H:14])[C@:5]1([C:6]#[N:7])[H:15])([H:8])([H:9])[H:10]>>[C:1]([C@@:2]1([H:11])[C:3]([H:12])([H:13])[N:4]([H:14])[C:5]1=[C:6]=[N:7][H:15])([H:8])([H:9])[H:10]"
C        1.58110936      -0.36763240      -0.66026510
C        0.59567469       0.30412894       0.26854294
C       -0.29464034       1.43758861      -0.29058774
N       -1.44876840       0.86406005       0.43606883
C       -0.73450785      -0.38258169       0.61437899
C       -1.16439133      -1.58068746       0.01124685
N       -1.38271598      -2.50054497       0.76358004
H        1.10144146      -0.69319079      -1.58507023
H        2.38825161       0.31622367      -0.93063894
H        2.02387286      -1.24475033      -0.18430269
H        1.09227908       0.62105759       1.18745200
H       -0.38426790       1.38175646      -1.38066372
H       -0.05270138       2.46120380      -0.00338052
H       -2.32050803       0.82850262      -0.07428877
H       -1.00012783      -1.44513411       1.82792806
15
Frame=15 idx=008030 GeodesicLength=1.626117104756352 rxn_smarts="[C:1]([C@@:2]1([H:11])[C:3]([H:12])([H:13])[N:4]([H:14])[C@:5]1([C:6]#[N:7])[H:15])([H:8])([H:9])[H:10]>>[C:1]([C@@:2]1([H:11])[C:3]([H:12])([H:13])[N:4]([H:14])[C:5]1=[C:6]=[N:7][H:15])([H:8])([H:9])[H:10]"
C        1.58413702      -0.36744986      -0.65236185
C        0.59859074       0.31473067       0.26858855
C       -0.29559923       1.43824821      -0.30323781
N       -1.43805925       0.88179901       0.45339523
C       -0.72828670      -0.36887456       0.63814403
C       -1.16227116      -1.55860406       0.03057079
N       -1.39671867      -2.53339184       0.69812721
H        1.10336518      -0.70988894      -1.57050229
H        2.38745129       0.31526720      -0.93669553
H        2.03234991      -1.23481915      -0.16371391
H        1.09707069       0.64796771       1.18078749
H       -0.40099031       1.35648278      -1.39053671
H       -0.04761774       2.46787309      -0.04399078
H       -2.32042610       0.84773765      -0.03827211
H       -1.01299567      -1.49707790       1.82969771
15
Frame=16 idx=008030 GeodesicLength=1.7338678505521632 rxn_smarts="[C:1]([C@@:2]1([H:11])[C:3]([H:12])([H:13])[N:4]([H:14])[C@:5]1([C:6]#[N:7])[H:15])([H:8])([H:9])[H:10]>>[C:1]([C@@:2]1([H:11])[C:3]([H:12])([H:13])[N:4]([H:14])[C:5]1=[C:6]=[N:7][H:15])([H:8])([H:9])[H:10]"
C        1.58721759      -0.36722632      -0.64423808
C        0.60180682       0.32551216       0.26884262
C       -0.29699867       1.43815315      -0.31580262
N       -1.42693015       0.89931274       0.47067913
C       -0.72111537      -0.35488642       0.66333168
C       -1.15882455      -1.53763080       0.05326341
N       -1.41311672      -2.56129333       0.62754106
H        1.10489467      -0.72736458      -1.55479052
H        2.38618131       0.31419449      -0.94354355
H        2.04155787      -1.22405995      -0.14276251
H        1.10253841       0.67586119       1.17346340
H       -0.41833665       1.32991842      -1.39939076
H       -0.04376760       2.47331433      -0.08524885
H       -2.31941304       0.86628773      -0.00223926
H       -1.02569392      -1.55009281       1.83089486
