11
Frame=0 idx=009181 GeodesicLength=0.0 rxn_smarts="[O:1]=[c:2]1[c:3]([H:8])[c:4]([H:9])[n:5]([H:10])[c:6]([H:11])[n:7]1>>[O:1]=[C:2]1[C:3]([H:8])([H:9])[C-:4]=[N+:5]([H:10])[C:6]([H:11])=[N:7]1"
O        2.33810999      -1.07068161       0.43660032
C        1.22744888      -0.68408541       0.18303431
C        0.96048892       0.73524903      -0.21858314
C       -0.31573910       1.25366872      -0.44795454
N       -1.29852795       0.32682607      -0.18849385
C       -1.04597626      -0.99065056       0.05071739
N        0.10612560      -1.51878698       0.23817542
H        1.82584829       1.35336331      -0.43614637
H        0.38610013       1.60958962       0.58408621
H       -2.25734114       0.61731754      -0.27768121
H       -1.92653738      -1.63180976       0.07624543
11
Frame=1 idx=009181 GeodesicLength=0.03495675233104833 rxn_smarts="[O:1]=[c:2]1[c:3]([H:8])[c:4]([H:9])[n:5]([H:10])[c:6]([H:11])[n:7]1>>[O:1]=[C:2]1[C:3]([H:8])([H:9])[C-:4]=[N+:5]([H:10])[C:6]([H:11])=[N:7]1"
O        2.33343024      -1.06949798       0.45876316
C        1.22650185      -0.68242894       0.19008068
C        0.96148806       0.73631664      -0.20950788
C       -0.31628981       1.25109216      -0.44203209
N       -1.29865621       0.32568118      -0.18591353
C       -1.04567732      -0.99439699       0.04626168
N        0.10788430      -1.52390258       0.21490109
H        1.82352685       1.34485580      -0.46382876
H        0.39182215       1.62932832       0.58757231
H       -2.25773306       0.61848182      -0.26466892
H       -1.92629704      -1.63552941       0.06837227
11
Frame=2 idx=009181 GeodesicLength=0.0699088761959559 rxn_smarts="[O:1]=[c:2]1[c:3]([H:8])[c:4]([H:9])[n:5]([H:10])[c:6]([H:11])[n:7]1>>[O:1]=[C:2]1[C:3]([H:8])([H:9])[C-:4]=[N+:5]([H:10])[C:6]([H:11])=[N:7]1"
O        2.32843121      -1.06855990       0.48045544
C        1.22544007      -0.68072940       0.19712303
C        0.96259997       0.73758894      -0.20027213
C       -0.31681252       1.24865602      -0.43577207
N       -1.29871781       0.32451328      -0.18343288
C       -1.04512504      -0.99823630       0.04094477
N        0.10977530      -1.52821785       0.19272881
H        1.82042565       1.33546603      -0.49138966
H        0.39774533       1.64940440       0.59084190
H       -2.25800563       0.61947912      -0.25143892
H       -1.92575655      -1.63936433       0.06021172
11
Frame=3 idx=009181 GeodesicLength=0.10485917014742085 rxn_smarts="[O:1]=[c:2]1[c:3]([H:8])[c:4]([H:9])[n:5]([H:10])[c:6]([H:11])[n:7]1>>[O:1]=[C:2]1[C:3]([H:8])([H:9])[C-:4]=[N+:5]([H:10])[C:6]([H:11])=[N:7]1"
O        2.32321779      -1.06794955       0.50125751
C        1.22428788      -0.67898938       0.20407901
C        0.96383591       0.73908793      -0.19081673
C       -0.31728135       1.24640474      -0.42913237
N       -1.29870427       0.32330947      -0.18131361
C       -1.04431557      -1.00218610       0.03436131
N        0.11179641      -1.53181754       0.17159456
H        1.81656314       1.32539183      -0.51836402
H        0.40377000       1.66965608       0.59409816
H       -2.25813902       0.62021959      -0.23862898
H       -1.92503092      -1.64312708       0.05286515
11
Frame=4 idx=009181 GeodesicLength=0.13978772148289254 rxn_smarts="[O:1]=[c:2]1[c:3]([H:8])[c:4]([H:9])[n:5]([H:10])[c:6]([H:11])[n:7]1>>[O:1]=[C:2]1[C:3]([H:8])([H:9])[C-:4]=[N+:5]([H:10])[C:6]([H:11])=[N:7]1"
O        2.31776490      -1.06740796       0.52183022
C        1.22302365      -0.67714532       0.21125354
C        0.96515747       0.74068627      -0.18152621
C       -0.31777333       1.24422476      -0.42222615
N       -1.29866240       0.32213329      -0.17895208
C       -1.04333758      -1.00614419       0.02725092
N        0.11390150      -1.53472440       0.15213508
H        1.81183769       1.31431968      -0.54547111
H        0.41021779       1.69032403       0.59677065
H       -2.25818181       0.62091290      -0.22477716
H       -1.92394788      -1.64717905       0.04371230
11
Frame=5 idx=009181 GeodesicLength=0.17474288711790364 rxn_smarts="[O:1]=[c:2]1[c:3]([H:8])[c:4]([H:9])[n:5]([H:10])[c:6]([H:11])[n:7]1>>[O:1]=[C:2]1[C:3]([H:8])([H:9])[C-:4]=[N+:5]([H:10])[C:6]([H:11])=[N:7]1"
O        2.31216628      -1.06699910       0.54185286
C        1.22166220      -0.67519519       0.21861148
C        0.96659324       0.74241328      -0.17235746
C       -0.31827257       1.24215398      -0.41502741
N       -1.29858744       0.32096626      -0.17657911
C       -1.04219325      -1.01010923       0.01941575
N        0.11610084      -1.53707061       0.13400616
H        1.80626393       1.30243973      -0.57224674
H        0.41702398       1.71127759       0.59902211
H       -2.25812647       0.62144810      -0.21052338
H       -1.92263074      -1.65132481       0.03382575
11
Frame=6 idx=009181 GeodesicLength=0.2096162800474524 rxn_smarts="[O:1]=[c:2]1[c:3]([H:8])[c:4]([H:9])[n:5]([H:10])[c:6]([H:11])[n:7]1>>[O:1]=[C:2]1[C:3]([H:8])([H:9])[C-:4]=[N+:5]([H:10])[C:6]([H:11])=[N:7]1"
O        2.30642980      -1.06691075       0.56089993
C        1.22021364      -0.67321018       0.22578357
C        0.96812190       0.74433346      -0.16308680
C       -0.31869827       1.24031330      -0.40743675
N       -1.29844280       0.31975237      -0.17496643
C       -1.04081821      -1.01412862       0.00995319
N        0.11848199      -1.53897407       0.11618305
H        1.80004514       1.29021716      -0.59778170
H        0.42384865       1.73213047       0.60141750
H       -2.25790763       0.62164935      -0.19727245
H       -1.92127421      -1.65517248       0.02630688
11
Frame=7 idx=009181 GeodesicLength=0.24451563498465048 rxn_smarts="[O:1]=[c:2]1[c:3]([H:8])[c:4]([H:9])[n:5]([H:10])[c:6]([H:11])[n:7]1>>[O:1]=[C:2]1[C:3]([H:8])([H:9])[C-:4]=[N+:5]([H:10])[C:6]([H:11])=[N:7]1"
O        2.30056765      -1.06691842       0.57947188
C        1.21867040      -0.67114389       0.23305171
C        0.96975410       0.74633205      -0.15406702
C       -0.31914940       1.23858509      -0.39952039
N       -1.29827709       0.31855886      -0.17337238
C       -1.03931929      -1.01808429      -0.00007683
N        0.12094346      -1.54045503       0.09938804
H        1.79302917       1.27736901      -0.62279237
H        0.43107652       1.75315863       0.60340903
H       -2.25761024       0.62165746      -0.18383816
H       -1.91968527      -1.65905947       0.01834648
11
Frame=8 idx=009181 GeodesicLength=0.2794191437396734 rxn_smarts="[O:1]=[c:2]1[c:3]([H:8])[c:4]([H:9])[n:5]([H:10])[c:6]([H:11])[n:7]1>>[O:1]=[C:2]1[C:3]([H:8])([H:9])[C-:4]=[N+:5]([H:10])[C:6]([H:11])=[N:7]1"
O        2.29450426      -1.06687753       0.59800727
C        1.21699988      -0.66896383       0.24054560
C        0.97145999       0.74835777      -0.14545785
C       -0.31964153       1.23691247      -0.39142280
N       -1.29810772       0.31735843      -0.17178308
C       -1.03770277      -1.02198422      -0.01062864
N        0.12349630      -1.54156614       0.08365391
H        1.78528350       1.26382898      -0.64744306
H        0.43877933       1.77446418       0.60466871
H       -2.25719677       0.62155458      -0.16926311
H       -1.91787446      -1.66308468       0.00912306
11
Frame=9 idx=009181 GeodesicLength=0.31429024452495335 rxn_smarts="[O:1]=[c:2]1[c:3]([H:8])[c:4]([H:9])[n:5]([H:10])[c:6]([H:11])[n:7]1>>[O:1]=[C:2]1[C:3]([H:8])([H:9])[C-:4]=[N+:5]([H:10])[C:6]([H:11])=[N:7]1"
O        2.28827543      -1.06689703       0.61619770
C        1.21520726      -0.66671866       0.24808268
C        0.97322207       0.75042840      -0.13715419
C       -0.32015585       1.23534764      -0.38303039
N       -1.29793052       0.31615331      -0.17040200
C       -1.03595851      -1.02580772      -0.02184042
N        0.12615072      -1.54235364       0.06862732
H        1.77688229       1.24982680      -0.67138393
H        0.44684053       1.79586718       0.60548439
H       -2.25665270       0.62122311      -0.15442644
H       -1.91588073      -1.66706938      -0.00015473
11
Frame=10 idx=009181 GeodesicLength=0.34919331786652175 rxn_smarts="[O:1]=[c:2]1[c:3]([H:8])[c:4]([H:9])[n:5]([H:10])[c:6]([H:11])[n:7]1>>[O:1]=[C:2]1[C:3]([H:8])([H:9])[C-:4]=[N+:5]([H:10])[C:6]([H:11])=[N:7]1"
O        2.28185159      -1.06683365       0.63439232
C        1.21330958      -0.66438480       0.25575788
C        0.97506395       0.75249677      -0.12931521
C       -0.32072172       1.23383319      -0.37441473
N       -1.29775805       0.31494195      -0.16902197
C       -1.03412717      -1.02953055      -0.03337196
N        0.12885218      -1.54286305       0.05457071
H        1.76777460       1.23527143      -0.69488117
H        0.45541139       1.81750452       0.60553047
H       -2.25595523       0.62070024      -0.13853796
H       -1.91370115      -1.67113606      -0.01070838
11
Frame=11 idx=009181 GeodesicLength=0.3841011384768432 rxn_smarts="[O:1]=[c:2]1[c:3]([H:8])[c:4]([H:9])[n:5]([H:10])[c:6]([H:11])[n:7]1>>[O:1]=[C:2]1[C:3]([H:8])([H:9])[C-:4]=[N+:5]([H:10])[C:6]([H:11])=[N:7]1"
O        2.27527991      -1.06684779       0.65220015
C        1.21129512      -0.66201677       0.26341147
C        0.97695988       0.75458318      -0.12178442
C       -0.32131182       1.23241863      -0.36548056
N       -1.29759202       0.31372091      -0.16792108
C       -1.03219119      -1.03313596      -0.04540966
N        0.13162307      -1.54312277       0.04108303
H        1.75809410       1.22043727      -0.71754577
H        0.46434256       1.83919899       0.60514040
H       -2.25512575       0.61987802      -0.12256879
H       -1.91137384      -1.67511370      -0.02112477
11
Frame=12 idx=009181 GeodesicLength=0.41900549300315787 rxn_smarts="[O:1]=[c:2]1[c:3]([H:8])[c:4]([H:9])[n:5]([H:10])[c:6]([H:11])[n:7]1>>[O:1]=[C:2]1[C:3]([H:8])([H:9])[C-:4]=[N+:5]([H:10])[C:6]([H:11])=[N:7]1"
O        2.26855417      -1.06677016       0.66994883
C        1.20917418      -0.65956004       0.27119875
C        0.97891469       0.75665370      -0.11471026
C       -0.32196145       1.23104073      -0.35628214
N       -1.29744798       0.31249992      -0.16684163
C       -1.03018108      -1.03661447      -0.05758194
N        0.13441407      -1.54316908       0.02853484
H        1.74775343       1.20512758      -0.73970029
H        0.47377263       1.86110570       0.60392569
H       -2.25410077       0.61880901      -0.10562222
H       -1.90889187      -1.67912288      -0.03286963
11
Frame=13 idx=009181 GeodesicLength=0.45399126909734194 rxn_smarts="[O:1]=[c:2]1[c:3]([H:8])[c:4]([H:9])[n:5]([H:10])[c:6]([H:11])[n:7]1>>[O:1]=[C:2]1[C:3]([H:8])([H:9])[C-:4]=[N+:5]([H:10])[C:6]([H:11])=[N:7]1"
O        2.26167162      -1.06681601       0.68727999
C        1.20693810      -0.65711725       0.27886725
C        0.98093248       0.75873956      -0.10788580
C       -0.32260985       1.22976519      -0.34675387
N       -1.29732168       0.31126022      -0.16618571
C       -1.02808742      -1.03996912      -0.07025771
N        0.13724060      -1.54304456       0.01630488
H        1.73699545       1.18978226      -0.76088910
H        0.48352099       1.88304878       0.60234056
H       -2.25294830       0.61735552      -0.08883419
H       -1.90633200      -1.68300458      -0.04398630
11
Frame=14 idx=009181 GeodesicLength=0.4888567594717455 rxn_smarts="[O:1]=[c:2]1[c:3]([H:8])[c:4]([H:9])[n:5]([H:10])[c:6]([H:11])[n:7]1>>[O:1]=[C:2]1[C:3]([H:8])([H:9])[C-:4]=[N+:5]([H:10])[C:6]([H:11])=[N:7]1"
O        2.25471216      -1.06674240       0.70449638
C        1.20463021      -0.65458585       0.28667846
C        0.98296818       0.76075605      -0.10151859
C       -0.32335907       1.22848596      -0.33683738
N       -1.29722365       0.31006003      -0.16532590
C       -1.02591542      -1.04312663      -0.08265290
N        0.14006767      -1.54271988       0.00521326
H        1.72545414       1.17392311      -0.78167760
H        0.49380181       1.90517343       0.59980730
H       -2.25155506       0.61564370      -0.07116994
H       -1.90358097      -1.68686751      -0.05701309
11
Frame=15 idx=009181 GeodesicLength=0.5238812627030622 rxn_smarts="[O:1]=[c:2]1[c:3]([H:8])[c:4]([H:9])[n:5]([H:10])[c:6]([H:11])[n:7]1>>[O:1]=[C:2]1[C:3]([H:8])([H:9])[C-:4]=[N+:5]([H:10])[C:6]([H:11])=[N:7]1"
O        2.24766398      -1.06669973       0.72140650
C        1.20225795      -0.65205348       0.29439603
C        0.98509368       0.76277938      -0.09544670
C       -0.32412062       1.22728423      -0.32647765
N       -1.29717395       0.30885755      -0.16459406
C       -1.02371310      -1.04615958      -0.09519082
N        0.14286347      -1.54228943      -0.00535881
H        1.71345409       1.15800407      -0.80174203
H        0.50454580       1.92742095       0.59675584
H       -2.25006202       0.61351755      -0.05356295
H       -1.90080929      -1.69066152      -0.07018535
11
Frame=16 idx=009181 GeodesicLength=0.5587750201641235 rxn_smarts="[O:1]=[c:2]1[c:3]([H:8])[c:4]([H:9])[n:5]([H:10])[c:6]([H:11])[n:7]1>>[O:1]=[C:2]1[C:3]([H:8])([H:9])[C-:4]=[N+:5]([H:10])[C:6]([H:11])=[N:7]1"
O        2.24051201      -1.06683888       0.73777526
C        1.19983189      -0.64958807       0.30185600
C        0.98722375       0.76475367      -0.08957243
C       -0.32492032       1.22614176      -0.31557671
N       -1.29710742       0.30769817      -0.16402926
C       -1.02138618      -1.04898951      -0.10789642
N        0.14569988      -1.54171227      -0.01565903
H        1.70091391       1.14215451      -0.82081357
H        0.51557806       1.94957638       0.59332299
H       -2.24846035       0.61101766      -0.03675288
H       -1.89788524      -1.69421342      -0.08265394
