10
Frame=0 idx=010289 GeodesicLength=0.0 rxn_smarts="[N:1](=[C:2]=[C:7]([C:6](=[O:5])[H:9])[H:10])[H:8].[N:3]#[N:4]>>[N:1](=[C:2]1\[N:3]=[N:4][C@:6]2([H:9])[O:5][C@:7]12[H:10])\[H:8]"
N        2.15637845      -0.14183349       0.35023452
C        0.98849407      -0.04872896      -0.06399421
N        0.41193654       1.40735228      -0.67452634
N       -0.70243121       1.51916487      -0.37085116
O       -1.62230450      -0.35639012       1.30903236
C       -1.43646512      -0.09100298       0.08352035
C       -0.18631061      -0.81962648       0.03576445
H        2.78171893       0.52359003      -0.10251407
H       -2.24167441      -0.09664615      -0.66022964
H       -0.14934214      -1.89587900       0.09356373
10
Frame=1 idx=010289 GeodesicLength=0.07670946597837815 rxn_smarts="[N:1](=[C:2]=[C:7]([C:6](=[O:5])[H:9])[H:10])[H:8].[N:3]#[N:4]>>[N:1](=[C:2]1\[N:3]=[N:4][C@:6]2([H:9])[O:5][C@:7]12[H:10])\[H:8]"
N        2.15445045      -0.14971533       0.35393721
C        0.98600166      -0.05402585      -0.05522138
N        0.41454606       1.42485294      -0.67133380
N       -0.70602189       1.53705792      -0.39116936
O       -1.59614211      -0.33918414       1.31506668
C       -1.43555465      -0.09029372       0.08083464
C       -0.18869761      -0.82539827       0.03713161
H        2.77840529       0.52252877      -0.09030640
H       -2.25173352      -0.12294925      -0.64965445
H       -0.15525368      -1.90287308       0.07071526
10
Frame=2 idx=010289 GeodesicLength=0.15340537717891128 rxn_smarts="[N:1](=[C:2]=[C:7]([C:6](=[O:5])[H:9])[H:10])[H:8].[N:3]#[N:4]>>[N:1](=[C:2]1\[N:3]=[N:4][C@:6]2([H:9])[O:5][C@:7]12[H:10])\[H:8]"
N        2.15258625      -0.15768505       0.35705161
C        0.98352303      -0.05975336      -0.04692543
N        0.41699633       1.44269009      -0.66760736
N       -0.70925231       1.55522517      -0.41088420
O       -1.57070739      -0.32192102       1.31991982
C       -1.43462192      -0.08977040       0.07775286
C       -0.19108802      -0.83143464       0.03898216
H        2.77489721       0.52162827      -0.07838852
H       -2.26123095      -0.14939126      -0.63873487
H       -0.16110224      -1.90958779       0.04883392
10
Frame=3 idx=010289 GeodesicLength=0.23007529155863732 rxn_smarts="[N:1](=[C:2]=[C:7]([C:6](=[O:5])[H:9])[H:10])[H:8].[N:3]#[N:4]>>[N:1](=[C:2]1\[N:3]=[N:4][C@:6]2([H:9])[O:5][C@:7]12[H:10])\[H:8]"
N        2.15077163      -0.16573060       0.35961219
C        0.98106498      -0.06593117      -0.03913073
N        0.41929063       1.46084790      -0.66339661
N       -0.71212290       1.57368374      -0.43006929
O       -1.54594953      -0.30456437       1.32365389
C       -1.43365802      -0.08943334       0.07428396
C       -0.19349400      -0.83775114       0.04129704
H        2.77118713       0.52091843      -0.06666479
H       -2.27017611      -0.17596977      -0.62739884
H       -0.16691381      -1.91606969       0.02781317
10
Frame=4 idx=010289 GeodesicLength=0.3067503955002097 rxn_smarts="[N:1](=[C:2]=[C:7]([C:6](=[O:5])[H:9])[H:10])[H:8].[N:3]#[N:4]>>[N:1](=[C:2]1\[N:3]=[N:4][C@:6]2([H:9])[O:5][C@:7]12[H:10])\[H:8]"
N        2.14898709      -0.17383051       0.36168939
C        0.97863054      -0.07256325      -0.03184700
N        0.42145261       1.47930464      -0.65877770
N       -0.71463712       1.59248450      -0.44878866
O       -1.52179942      -0.28709219       1.32632079
C       -1.43265269      -0.08928577       0.07042885
C       -0.19591979      -0.84435769       0.04404150
H        2.76725730       0.52039420      -0.05504883
H       -2.27863156      -0.20269555      -0.61555854
H       -0.17268695      -1.92235837       0.00754019
10
Frame=5 idx=010289 GeodesicLength=0.3834062162010898 rxn_smarts="[N:1](=[C:2]=[C:7]([C:6](=[O:5])[H:9])[H:10])[H:8].[N:3]#[N:4]>>[N:1](=[C:2]1\[N:3]=[N:4][C@:6]2([H:9])[O:5][C@:7]12[H:10])\[H:8]"
N        2.14721995      -0.18196728       0.36330818
C        0.97621862      -0.07966457      -0.02509315
N        0.42347048       1.49805143      -0.65378277
N       -0.71677030       1.61163920      -0.46707684
O       -1.49822754      -0.26948887       1.32795010
C       -1.43159674      -0.08933434       0.06618001
C       -0.19837341      -0.85127022       0.04720865
H        2.76308961       0.52007275      -0.04348740
H       -2.28660121      -0.22954700      -0.60316649
H       -0.17842945      -1.92849109      -0.01204029
10
Frame=6 idx=010289 GeodesicLength=0.4600227361431413 rxn_smarts="[N:1](=[C:2]=[C:7]([C:6](=[O:5])[H:9])[H:10])[H:8].[N:3]#[N:4]>>[N:1](=[C:2]1\[N:3]=[N:4][C@:6]2([H:9])[O:5][C@:7]12[H:10])\[H:8]"
N        2.14546245      -0.19012567       0.36448634
C        0.97383431      -0.08725852      -0.01889673
N        0.42532559       1.51708698      -0.64842563
N       -0.71852234       1.63114501      -0.48498337
O       -1.47519381      -0.25174358       1.32856217
C       -1.43048296      -0.08959596       0.06152950
C       -0.20086772      -0.85851536       0.05078127
H        2.75867135       0.51997410      -0.03191955
H       -2.29406608      -0.25647716      -0.59016912
H       -0.18416079      -1.93448983      -0.03096488
10
Frame=7 idx=010289 GeodesicLength=0.5366057381839849 rxn_smarts="[N:1](=[C:2]=[C:7]([C:6](=[O:5])[H:9])[H:10])[H:8].[N:3]#[N:4]>>[N:1](=[C:2]1\[N:3]=[N:4][C@:6]2([H:9])[O:5][C@:7]12[H:10])\[H:8]"
N        2.14370468      -0.19829633       0.36524666
C        0.97147587      -0.09535615      -0.01326626
N        0.42701720       1.53640427      -0.64273938
N       -0.71988526       1.65102545      -0.50253978
O       -1.45266024      -0.23385312       1.32816554
C       -1.42930113      -0.09008484       0.05646323
C       -0.20340872      -0.86610795       0.05475094
H        2.75398517       0.52010880      -0.02029385
H       -2.30104385      -0.28346223      -0.57651111
H       -0.18988373      -1.94037790      -0.04927599
10
Frame=8 idx=010289 GeodesicLength=0.6131962295437157 rxn_smarts="[N:1](=[C:2]=[C:7]([C:6](=[O:5])[H:9])[H:10])[H:8].[N:3]#[N:4]>>[N:1](=[C:2]1\[N:3]=[N:4][C@:6]2([H:9])[O:5][C@:7]12[H:10])\[H:8]"
N        2.14192840      -0.20643104       0.36568954
C        0.96913869      -0.10392407      -0.00813508
N        0.42857686       1.55598277      -0.63679091
N       -0.72090662       1.67137136      -0.51974513
O       -1.43061476      -0.21585045       1.32675969
C       -1.42804071      -0.09082147       0.05096451
C       -0.20598364      -0.87403845       0.05911391
H        2.74901466       0.52038024      -0.00866697
H       -2.30755729      -0.31049277      -0.56215790
H       -0.19555558      -1.94617610      -0.06703166
10
Frame=9 idx=010289 GeodesicLength=0.6897622085393295 rxn_smarts="[N:1](=[C:2]=[C:7]([C:6](=[O:5])[H:9])[H:10])[H:8].[N:3]#[N:4]>>[N:1](=[C:2]1\[N:3]=[N:4][C@:6]2([H:9])[O:5][C@:7]12[H:10])\[H:8]"
N        2.14012593      -0.21453577       0.36575522
C        0.96680081      -0.11299013      -0.00352357
N        0.42997487       1.57584743      -0.63053096
N       -0.72152937       1.69217494      -0.53651918
O       -1.40904862      -0.19773202       1.32433404
C       -1.42669420      -0.09183703       0.04498110
C       -0.20860736      -0.88231501       0.06393652
H        2.74375663       0.52081953       0.00291952
H       -2.31359398      -0.33754745      -0.54722199
H       -0.20118470      -1.95188450      -0.08413069
10
Frame=10 idx=010289 GeodesicLength=0.7663490418569051 rxn_smarts="[N:1](=[C:2]=[C:7]([C:6](=[O:5])[H:9])[H:10])[H:8].[N:3]#[N:4]>>[N:1](=[C:2]1\[N:3]=[N:4][C@:6]2([H:9])[O:5][C@:7]12[H:10])\[H:8]"
N        2.13828575      -0.22256477       0.36556453
C        0.96447195      -0.12253152       0.00059059
N        0.43122725       1.59598788      -0.62399257
N       -0.72183853       1.71351164      -0.55297670
O       -1.38791470      -0.17952149       1.32089713
C       -1.42525712      -0.09315931       0.03851837
C       -0.21127008      -0.89095725       0.06913237
H        2.73817364       0.52134166       0.01448805
H       -2.31915344      -0.36454785      -0.53156948
H       -0.20672471      -1.95755899      -0.10065228
10
Frame=11 idx=010289 GeodesicLength=0.8429361288832351 rxn_smarts="[N:1](=[C:2]=[C:7]([C:6](=[O:5])[H:9])[H:10])[H:8].[N:3]#[N:4]>>[N:1](=[C:2]1\[N:3]=[N:4][C@:6]2([H:9])[O:5][C@:7]12[H:10])\[H:8]"
N        2.13640132      -0.23050568       0.36514831
C        0.96215037      -0.13259188       0.00425293
N        0.43227969       1.61638324      -0.61726207
N       -0.72180074       1.73536375      -0.56901966
O       -1.36723903      -0.16128506       1.31644647
C       -1.42372534      -0.09482057       0.03157549
C       -0.21399855      -0.90000010       0.07472586
H        2.73229078       0.52202271       0.02595859
H       -2.32414011      -0.39136478      -0.51527974
H       -0.21221838      -1.96320162      -0.11654619
10
Frame=12 idx=010289 GeodesicLength=0.9195538005486223 rxn_smarts="[N:1](=[C:2]=[C:7]([C:6](=[O:5])[H:9])[H:10])[H:8].[N:3]#[N:4]>>[N:1](=[C:2]1\[N:3]=[N:4][C@:6]2([H:9])[O:5][C@:7]12[H:10])\[H:8]"
N        2.13446103      -0.23831189       0.36455889
C        0.95981655      -0.14311902       0.00746617
N        0.43316730       1.63709795      -0.61017256
N       -0.72150448       1.75782635      -0.58472520
O       -1.34697656      -0.14301109       1.31095597
C       -1.42209006      -0.09685875       0.02410152
C       -0.21676954      -0.90942024       0.08069474
H        2.72607267       0.52267774       0.03723419
H       -2.32860561      -0.41800943      -0.49837524
H       -0.21757131      -1.96887163      -0.13173849
10
Frame=13 idx=010289 GeodesicLength=0.9961884206207599 rxn_smarts="[N:1](=[C:2]=[C:7]([C:6](=[O:5])[H:9])[H:10])[H:8].[N:3]#[N:4]>>[N:1](=[C:2]1\[N:3]=[N:4][C@:6]2([H:9])[O:5][C@:7]12[H:10])\[H:8]"
N        2.13246555      -0.24599616       0.36376153
C        0.95747066      -0.15412834       0.01023025
N        0.43384921       1.65818867      -0.60252037
N       -0.72096143       1.78088970      -0.60016380
O       -1.32711580      -0.12469350       1.30438825
C       -1.42034053      -0.09930990       0.01605930
C       -0.21958686      -0.91922401       0.08705049
H        2.71952243       0.52330284       0.04822685
H       -2.33251694      -0.44441856      -0.48092337
H       -0.22278631      -1.97461074      -0.14610912
10
Frame=14 idx=010289 GeodesicLength=1.072857797519153 rxn_smarts="[N:1](=[C:2]=[C:7]([C:6](=[O:5])[H:9])[H:10])[H:8].[N:3]#[N:4]>>[N:1](=[C:2]1\[N:3]=[N:4][C@:6]2([H:9])[O:5][C@:7]12[H:10])\[H:8]"
N        2.13042960      -0.25359666       0.36264446
C        0.95512118      -0.16564948       0.01245689
N        0.43426458       1.67978316      -0.59389102
N       -0.72017940       1.80451254      -0.61555214
O       -1.30759190      -0.10626181       1.29668505
C       -1.41846457      -0.10221862       0.00739153
C       -0.22245129      -0.92942059       0.09378285
H        2.71262162       0.52390000       0.05892053
H       -2.33587871      -0.47054253      -0.46295331
H       -0.22787111      -1.98050601      -0.15948484
10
Frame=15 idx=010289 GeodesicLength=1.1495867952698324 rxn_smarts="[N:1](=[C:2]=[C:7]([C:6](=[O:5])[H:9])[H:10])[H:8].[N:3]#[N:4]>>[N:1](=[C:2]1\[N:3]=[N:4][C@:6]2([H:9])[O:5][C@:7]12[H:10])\[H:8]"
N        2.12835423      -0.26112062       0.36116859
C        0.95276897      -0.17771188       0.01411929
N        0.43437059       1.70190957      -0.58419173
N       -0.71914966       1.82871079      -0.63089634
O       -1.28837845      -0.08775394       1.28781978
C       -1.41644650      -0.10561990      -0.00192467
C       -0.22536978      -0.94001873       0.10088767
H        2.70535666       0.52451061       0.06928215
H       -2.33866902      -0.49626833      -0.44454686
H       -0.23283705      -1.98663756      -0.17171787
10
Frame=16 idx=010289 GeodesicLength=1.2264395130044932 rxn_smarts="[N:1](=[C:2]=[C:7]([C:6](=[O:5])[H:9])[H:10])[H:8].[N:3]#[N:4]>>[N:1](=[C:2]1\[N:3]=[N:4][C@:6]2([H:9])[O:5][C@:7]12[H:10])\[H:8]"
N        2.12627829      -0.26868897       0.35907012
C        0.95043638      -0.19037440       0.01504805
N        0.43405867       1.72480271      -0.57260322
N       -0.71786009       1.85336009      -0.64667242
O       -1.26936358      -0.06900556       1.27768012
C       -1.41427030      -0.10956695      -0.01197053
C       -0.22833935      -0.95101929       0.10835942
H        2.69769555       0.52519056       0.07933890
H       -2.34091085      -0.52156918      -0.42570727
H       -0.23772473      -1.99312902      -0.18254316
