16
Frame=0 idx=007666 GeodesicLength=0.0 rxn_smarts="[C:1]([O:2][C:3](/[C:4](=[N:5]\[O:6][H:13])[C:7]([H:14])([H:15])[H:16])([H:11])[H:12])([H:8])([H:9])[H:10]>>[C:1]([O:2][C:3]([C+:4]([N:5]([O-:6])[H:13])[C:7]([H:14])([H:15])[H:16])([H:11])[H:12])([H:8])([H:9])[H:10]"
C        2.06619102       0.28460972      -0.26188764
O        1.41519740      -0.40455144       0.78172344
C        0.17542726       0.16884560       1.12202340
C       -0.86285005      -0.09365772       0.06194418
N       -1.42562492       0.88152585      -0.52502913
O       -1.18010676       2.22137240      -0.26684236
C       -1.20640736      -1.49334791      -0.32123018
H        3.02665088      -0.20410207      -0.41659710
H        1.49170702       0.24933691      -1.19595294
H        2.22999356       1.33607753      -0.00026556
H        0.25948897       1.24837151       1.27918016
H       -0.14081001      -0.30319544       2.05492264
H       -1.99213623       1.67214556      -1.08898299
H       -1.66501596      -2.01307699       0.52363952
H       -0.29788520      -2.03947570      -0.58159231
H       -1.89381965      -1.51087774      -1.16505314
16
Frame=1 idx=007666 GeodesicLength=0.04230824519635521 rxn_smarts="[C:1]([O:2][C:3](/[C:4](=[N:5]\[O:6][H:13])[C:7]([H:14])([H:15])[H:16])([H:11])[H:12])([H:8])([H:9])[H:10]>>[C:1]([O:2][C:3]([C+:4]([N:5]([O-:6])[H:13])[C:7]([H:14])([H:15])[H:16])([H:11])[H:12])([H:8])([H:9])[H:10]"
C        2.07406126       0.27231748      -0.25705982
O        1.41364137      -0.40549439       0.78792698
C        0.17570619       0.17793750       1.11786512
C       -0.86174661      -0.08888743       0.05846053
N       -1.42141036       0.88273974      -0.53800319
O       -1.21369052       2.21843112      -0.25086271
C       -1.20025848      -1.48932220      -0.32643653
H        3.03095561      -0.22514930      -0.40596198
H        1.50321193       0.23668241      -1.19333024
H        2.24581548       1.32382164      -0.00060450
H        0.26671807       1.25805307       1.26678414
H       -0.14640511      -0.28288960       2.05440863
H       -2.03141139       1.67519725      -1.07260056
H       -1.64796174      -2.01510337       0.52051350
H       -0.29168124      -2.03030409      -0.59720780
H       -1.89554447      -1.50802983      -1.16389157
16
Frame=2 idx=007666 GeodesicLength=0.08370081245790154 rxn_smarts="[C:1]([O:2][C:3](/[C:4](=[N:5]\[O:6][H:13])[C:7]([H:14])([H:15])[H:16])([H:11])[H:12])([H:8])([H:9])[H:10]>>[C:1]([O:2][C:3]([C+:4]([N:5]([O-:6])[H:13])[C:7]([H:14])([H:15])[H:16])([H:11])[H:12])([H:8])([H:9])[H:10]"
C        2.08139867       0.26050048      -0.25228808
O        1.41193907      -0.40633968       0.79387044
C        0.17599781       0.18681697       1.11395455
C       -0.86094187      -0.08408132       0.05544852
N       -1.41809546       0.88433861      -0.54935817
O       -1.24532125       2.21457343      -0.23616333
C       -1.19434531      -1.48513964      -0.33157701
H        3.03464220      -0.24552984      -0.39576573
H        1.51397251       0.22478074      -1.19062606
H        2.26109668       1.31186026      -0.00059853
H        0.27380981       1.26741546       1.25479506
H       -0.15162635      -0.26306877       2.05395062
H       -2.06826189       1.67656714      -1.05736882
H       -1.63076819      -2.01723856       0.51729050
H       -0.28582409      -2.02069922      -0.61316014
H       -1.89767233      -1.50475604      -1.16240383
16
Frame=3 idx=007666 GeodesicLength=0.1240068851080789 rxn_smarts="[C:1]([O:2][C:3](/[C:4](=[N:5]\[O:6][H:13])[C:7]([H:14])([H:15])[H:16])([H:11])[H:12])([H:8])([H:9])[H:10]>>[C:1]([O:2][C:3]([C+:4]([N:5]([O-:6])[H:13])[C:7]([H:14])([H:15])[H:16])([H:11])[H:12])([H:8])([H:9])[H:10]"
C        2.08798147       0.24941398      -0.24764383
O        1.41008906      -0.40709875       0.79948073
C        0.17623518       0.19525534       1.11046134
C       -0.86057472      -0.07944129       0.05314795
N       -1.41596984       0.88605797      -0.55881570
O       -1.27359953       2.21003549      -0.22372328
C       -1.18871654      -1.48099036      -0.33652957
H        3.03757296      -0.26480623      -0.38625347
H        1.52366918       0.21390584      -1.18785827
H        2.27545143       1.30045828      -0.00020998
H        0.28057769       1.27621975       1.24359274
H       -0.15636522      -0.24417314       2.05370028
H       -2.10232443       1.67697936      -1.04356382
H       -1.61345753      -2.01975442       0.51403423
H       -0.28034273      -2.01077682      -0.62934052
H       -1.90022645      -1.50128500      -1.16047883
16
Frame=4 idx=007666 GeodesicLength=0.16335754349230028 rxn_smarts="[C:1]([O:2][C:3](/[C:4](=[N:5]\[O:6][H:13])[C:7]([H:14])([H:15])[H:16])([H:11])[H:12])([H:8])([H:9])[H:10]>>[C:1]([O:2][C:3]([C+:4]([N:5]([O-:6])[H:13])[C:7]([H:14])([H:15])[H:16])([H:11])[H:12])([H:8])([H:9])[H:10]"
C        2.09381143       0.23908708      -0.24316163
O        1.40812931      -0.40779007       0.80475343
C        0.17640559       0.20318826       1.10739265
C       -0.86063766      -0.07505088       0.05155737
N       -1.41481556       0.88773589      -0.56670001
O       -1.29847076       2.20507171      -0.21352585
C       -1.18337005      -1.47696922      -0.34124338
H        3.03980924      -0.28287671      -0.37745071
H        1.53230766       0.20401539      -1.18506541
H        2.28878586       1.28968130       0.00048893
H        0.28698291       1.28440711       1.23324971
H       -0.16062336      -0.22630907       2.05367705
H       -2.13382354       1.67694935      -1.03105965
H       -1.59618528      -2.02264015       0.51076418
H       -0.27523563      -2.00070706      -0.64550491
H       -1.90307019      -1.49779292      -1.15817176
16
Frame=5 idx=007666 GeodesicLength=0.2019284096597285 rxn_smarts="[C:1]([O:2][C:3](/[C:4](=[N:5]\[O:6][H:13])[C:7]([H:14])([H:15])[H:16])([H:11])[H:12])([H:8])([H:9])[H:10]>>[C:1]([O:2][C:3]([C+:4]([N:5]([O-:6])[H:13])[C:7]([H:14])([H:15])[H:16])([H:11])[H:12])([H:8])([H:9])[H:10]"
C        2.09893848       0.22950526      -0.23886909
O        1.40610974      -0.40843156       0.80969427
C        0.17651890       0.21059276       1.10472819
C       -0.86109186      -0.07094556       0.05063133
N       -1.41430059       0.88928594      -0.57340625
O       -1.32023974       2.19985368      -0.20529559
C       -1.17830750      -1.47312411      -0.34568780
H        3.04145038      -0.29971424      -0.36934657
H        1.53995378       0.19501638      -1.18228727
H        2.30108099       1.27955452       0.00140877
H        0.29303207       1.29196546       1.22377748
H       -0.16441299      -0.20950999       2.05387491
H       -2.16301048       1.67679611      -1.01973176
H       -1.57915037      -2.02580651       0.50749436
H       -0.27050709      -1.99065417      -0.66140534
H       -1.90606372      -1.49438397      -1.15557965
16
Frame=6 idx=007666 GeodesicLength=0.23972087514150178 rxn_smarts="[C:1]([O:2][C:3](/[C:4](=[N:5]\[O:6][H:13])[C:7]([H:14])([H:15])[H:16])([H:11])[H:12])([H:8])([H:9])[H:10]>>[C:1]([O:2][C:3]([C+:4]([N:5]([O-:6])[H:13])[C:7]([H:14])([H:15])[H:16])([H:11])[H:12])([H:8])([H:9])[H:10]"
C        2.10333245       0.22072700      -0.23483568
O        1.40407289      -0.40904096       0.81427354
C        0.17657823       0.21739157       1.10250723
C       -0.86194239      -0.06718921       0.05042246
N       -1.41412965       0.89062650      -0.57918643
O       -1.33915079       2.19446281      -0.19874270
C       -1.17356021      -1.46951268      -0.34978329
H        3.04252522      -0.31517526      -0.36204579
H        1.54655197       0.18691066      -1.17957598
H        2.31221306       1.27017045       0.00245392
H        0.29869757       1.29882260       1.21529248
H       -0.16770020      -0.19391720       2.05434174
H       -2.18961992       1.67684034      -1.00986404
H       -1.56255120      -2.02923244       0.50427014
H       -0.26618888      -1.98075667      -0.67681817
H       -1.90912817      -1.49112752      -1.15270942
16
Frame=7 idx=007666 GeodesicLength=0.2768734055687025 rxn_smarts="[C:1]([O:2][C:3](/[C:4](=[N:5]\[O:6][H:13])[C:7]([H:14])([H:15])[H:16])([H:11])[H:12])([H:8])([H:9])[H:10]>>[C:1]([O:2][C:3]([C+:4]([N:5]([O-:6])[H:13])[C:7]([H:14])([H:15])[H:16])([H:11])[H:12])([H:8])([H:9])[H:10]"
C        2.10705793       0.21273726      -0.23106690
O        1.40206681      -0.40962547       0.81849871
C        0.17659761       0.22357700       1.10070140
C       -0.86313968      -0.06377394       0.05085936
N       -1.41399558       0.89172305      -0.58432506
O       -1.35534716       2.18898931      -0.19380406
C       -1.16914074      -1.46613312      -0.35353841
H        3.04315511      -0.32922941      -0.35548856
H        1.55218827       0.17959401      -1.17695005
H        2.32217664       1.26155054       0.00354155
H        0.30399961       1.30497982       1.20779804
H       -0.17051282      -0.17955424       2.05504538
H       -2.21406090       1.67712946      -1.00111300
H       -1.54662369      -2.03278021       0.50110623
H       -0.26228026      -1.97115497      -0.69153613
H       -1.91214116      -1.48802911      -1.14972851
16
Frame=8 idx=007666 GeodesicLength=0.31369550957267994 rxn_smarts="[C:1]([O:2][C:3](/[C:4](=[N:5]\[O:6][H:13])[C:7]([H:14])([H:15])[H:16])([H:11])[H:12])([H:8])([H:9])[H:10]>>[C:1]([O:2][C:3]([C+:4]([N:5]([O-:6])[H:13])[C:7]([H:14])([H:15])[H:16])([H:11])[H:12])([H:8])([H:9])[H:10]"
C        2.11029157       0.20533148      -0.22750717
O        1.40009658      -0.41019852       0.82245853
C        0.17659686       0.22929308       1.09920248
C       -0.86458288      -0.06063684       0.05177543
N       -1.41386119       0.89264014      -0.58902853
O       -1.36965660       2.18346344      -0.18993466
C       -1.16496424      -1.46294257      -0.35702114
H        3.04347243      -0.34221635      -0.34948076
H        1.55712299       0.17282486      -1.17440528
H        2.33124577       1.25351237       0.00462769
H        0.30903368       1.31060265       1.20103905
H       -0.17295010      -0.16612044       2.05592604
H       -2.23684640       1.67773125      -0.99329185
H       -1.53121987      -2.03639938       0.49795406
H       -0.25869985      -1.96179152      -0.70566671
H       -1.91507874      -1.48509364      -1.14664720
16
Frame=9 idx=007666 GeodesicLength=0.3502712595423016 rxn_smarts="[C:1]([O:2][C:3](/[C:4](=[N:5]\[O:6][H:13])[C:7]([H:14])([H:15])[H:16])([H:11])[H:12])([H:8])([H:9])[H:10]>>[C:1]([O:2][C:3]([C+:4]([N:5]([O-:6])[H:13])[C:7]([H:14])([H:15])[H:16])([H:11])[H:12])([H:8])([H:9])[H:10]"
C        2.11322040       0.19829428      -0.22407863
O        1.39815189      -0.41075862       0.82623707
C        0.17659360       0.23471418       1.09787210
C       -0.86616624      -0.05767626       0.05296719
N       -1.41373771       0.89343733      -0.59343079
O       -1.38281240       2.17788134      -0.18671286
C       -1.16094316      -1.45986420      -0.36033696
H        3.04359503      -0.35452224      -0.34380579
H        1.56163265       0.16639454      -1.17191722
H        2.33974865       1.24583127       0.00571701
H        0.31390204       1.31587923       1.19470906
H       -0.17513228      -0.15326297       2.05688108
H       -2.25859271       1.67850927      -0.98599263
H       -1.51620905      -2.03997852       0.49477157
H       -0.25535649      -1.95259758      -0.71933219
H       -1.91789422      -1.48228104      -1.14354801
16
Frame=10 idx=007666 GeodesicLength=0.38672471594691005 rxn_smarts="[C:1]([O:2][C:3](/[C:4](=[N:5]\[O:6][H:13])[C:7]([H:14])([H:15])[H:16])([H:11])[H:12])([H:8])([H:9])[H:10]>>[C:1]([O:2][C:3]([C+:4]([N:5]([O-:6])[H:13])[C:7]([H:14])([H:15])[H:16])([H:11])[H:12])([H:8])([H:9])[H:10]"
C        2.11598482       0.19146542      -0.22071101
O        1.39621525      -0.41130257       0.82990278
C        0.17659250       0.23997290       1.09660357
C       -0.86781649      -0.05481942       0.05427846
N       -1.41368556       0.89416120      -0.59761497
O       -1.39522157       2.17224972      -0.18395222
C       -1.15700781      -1.45684427      -0.36357219
H        3.04360821      -0.36643750      -0.33828044
H        1.56593111       0.16014946      -1.16945833
H        2.34793642       1.23833795       0.00683103
H        0.31867423       1.32095068       1.18857185
H       -0.17716178      -0.14070967       2.05782985
H       -2.27984830       1.67936398      -0.97880610
H       -1.50145390      -2.04346390       0.49151373
H       -0.25217662      -1.94350419      -0.73266197
H       -1.92057050      -1.47956979      -1.14047403
16
Frame=11 idx=007666 GeodesicLength=0.42293983191756723 rxn_smarts="[C:1]([O:2][C:3](/[C:4](=[N:5]\[O:6][H:13])[C:7]([H:14])([H:15])[H:16])([H:11])[H:12])([H:8])([H:9])[H:10]>>[C:1]([O:2][C:3]([C+:4]([N:5]([O-:6])[H:13])[C:7]([H:14])([H:15])[H:16])([H:11])[H:12])([H:8])([H:9])[H:10]"
C        2.11844203       0.18503254      -0.21749279
O        1.39432170      -0.41184029       0.83338178
C        0.17658261       0.24490589       1.09551841
C       -0.86960917      -0.05216130       0.05587309
N       -1.41350148       0.89473633      -0.60162149
O       -1.40648365       2.16659643      -0.18184900
C       -1.15324290      -1.45395817      -0.36661628
H        3.04345154      -0.37761696      -0.33312062
H        1.56978927       0.15425480      -1.16706795
H        2.35552466       1.23124493       0.00792535
H        0.32326354       1.32565159       1.18291833
H       -0.17894121      -0.12879047       2.05887202
H       -2.30007532       1.68049628      -0.97212392
H       -1.48716361      -2.04691439       0.48826176
H       -0.24923377      -1.93464108      -0.74546475
H       -1.92312422      -1.47699614      -1.13739395
16
Frame=12 idx=007666 GeodesicLength=0.4590458429712896 rxn_smarts="[C:1]([O:2][C:3](/[C:4](=[N:5]\[O:6][H:13])[C:7]([H:14])([H:15])[H:16])([H:11])[H:12])([H:8])([H:9])[H:10]>>[C:1]([O:2][C:3]([C+:4]([N:5]([O-:6])[H:13])[C:7]([H:14])([H:15])[H:16])([H:11])[H:12])([H:8])([H:9])[H:10]"
C        2.12071487       0.17884311      -0.21435412
O        1.39245022      -0.41236815       0.83674412
C        0.17656498       0.24963862       1.09452366
C       -0.87148019      -0.04962988       0.05761148
N       -1.41326748       0.89520936      -0.60550355
O       -1.41692126       2.16093624      -0.18027349
C       -1.14957829      -1.45115401      -0.36955602
H        3.04319782      -0.38833164      -0.32814895
H        1.57339931       0.14855787      -1.16471720
H        2.36273397       1.22439497       0.00901679
H        0.32773399       1.33011588       1.17753360
H       -0.18056852      -0.11725046       2.05993744
H       -2.31979370       1.68179581      -0.96554957
H       -1.47318480      -2.05029107       0.48496849
H       -0.24645461      -1.92592975      -0.75788880
H       -1.92554630      -1.47453690      -1.13434388
16
Frame=13 idx=007666 GeodesicLength=0.4950846379663655 rxn_smarts="[C:1]([O:2][C:3](/[C:4](=[N:5]\[O:6][H:13])[C:7]([H:14])([H:15])[H:16])([H:11])[H:12])([H:8])([H:9])[H:10]>>[C:1]([O:2][C:3]([C+:4]([N:5]([O-:6])[H:13])[C:7]([H:14])([H:15])[H:16])([H:11])[H:12])([H:8])([H:9])[H:10]"
C        2.12290229       0.17277633      -0.21124166
O        1.39058107      -0.41288364       0.84003500
C        0.17654648       0.25427436       1.09353672
C       -0.87337639      -0.04716944       0.05938147
N       -1.41305214       0.89561812      -0.60929856
O       -1.42689691       2.15525130      -0.17902348
C       -1.14596317      -1.44838825      -0.37245360
H        3.04289340      -0.39880782      -0.32323320
H        1.57691549       0.14295858      -1.16238347
H        2.36975925       1.21765120       0.01013442
H        0.33214213       1.33444937       1.17222787
H       -0.18211191      -0.10587778       2.06096124
H       -2.33931822       1.68317744      -0.95886426
H       -1.45938749      -2.05355869       0.48160618
H       -0.24378923      -1.91729880      -0.77005375
H       -1.92784465      -1.47217228      -1.13133091
16
Frame=14 idx=007666 GeodesicLength=0.5309857700051237 rxn_smarts="[C:1]([O:2][C:3](/[C:4](=[N:5]\[O:6][H:13])[C:7]([H:14])([H:15])[H:16])([H:11])[H:12])([H:8])([H:9])[H:10]>>[C:1]([O:2][C:3]([C+:4]([N:5]([O-:6])[H:13])[C:7]([H:14])([H:15])[H:16])([H:11])[H:12])([H:8])([H:9])[H:10]"
C        2.12485404       0.16702033      -0.20824001
O        1.38874432      -0.41339544       0.84319012
C        0.17650420       0.25864570       1.09268648
C       -0.87537845      -0.04487439       0.06134694
N       -1.41269178       0.89588323      -0.61301422
O       -1.43585933       2.14959159      -0.17843816
C       -1.14247398      -1.44573845      -0.37520754
H        3.04249008      -0.40867721      -0.31856741
H        1.58010623       0.13758748      -1.16010535
H        2.37627513       1.21124281       0.01121054
H        0.33638838       1.33848511       1.16731221
H       -0.18349122      -0.09501265       2.06204897
H       -2.35817395       1.68485023      -0.95234714
H       -1.44595437      -2.05679210       0.47824525
H       -0.24130372      -1.90887121      -0.78179487
H       -1.93003555      -1.46994502      -1.12832582
16
Frame=15 idx=007666 GeodesicLength=0.5667976081394818 rxn_smarts="[C:1]([O:2][C:3](/[C:4](=[N:5]\[O:6][H:13])[C:7]([H:14])([H:15])[H:16])([H:11])[H:12])([H:8])([H:9])[H:10]>>[C:1]([O:2][C:3]([C+:4]([N:5]([O-:6])[H:13])[C:7]([H:14])([H:15])[H:16])([H:11])[H:12])([H:8])([H:9])[H:10]"
C        2.12666072       0.16146308      -0.20530121
O        1.38692533      -0.41390107       0.84625438
C        0.17644568       0.26284846       1.09190245
C       -0.87744259      -0.04269167       0.06341262
N       -1.41225063       0.89604180      -0.61668307
O       -1.44415372       2.14394974      -0.17831371
C       -1.13906281      -1.44316609      -0.37787504
H        3.04202657      -0.41815706      -0.31403833
H        1.58310762       0.13235788      -1.15786173
H        2.38246880       1.20504301       0.01227217
H        0.34052753       1.34232363       1.16261928
H       -0.18476352      -0.08446170       2.06314792
H       -2.37664826       1.68673469      -0.94583497
H       -1.43276316      -2.05996697       0.47485792
H       -0.23894939      -1.90058009      -0.79322572
H       -1.93212813      -1.46783764      -1.12533297
16
Frame=16 idx=007666 GeodesicLength=0.6025697753341599 rxn_smarts="[C:1]([O:2][C:3](/[C:4](=[N:5]\[O:6][H:13])[C:7]([H:14])([H:15])[H:16])([H:11])[H:12])([H:8])([H:9])[H:10]>>[C:1]([O:2][C:3]([C+:4]([N:5]([O-:6])[H:13])[C:7]([H:14])([H:15])[H:16])([H:11])[H:12])([H:8])([H:9])[H:10]"
C        2.12839959       0.15599142      -0.20237230
O        1.38510014      -0.41439261       0.84927650
C        0.17637200       0.26697816       1.09111539
C       -0.87953014      -0.04057249       0.06548696
N       -1.41181063       0.89612616      -0.62032118
O       -1.45204142       2.13831534      -0.17853104
C       -1.13567585      -1.44063136      -0.38051890
H        3.04153164      -0.42745297      -0.30952186
H        1.58604254       0.12716886      -1.15562509
H        2.38850223       1.19892561       0.01334100
H        0.34460562       1.34606166       1.15797893
H       -0.18599130      -0.07402701       2.06420402
H       -2.39503637       1.68875126      -0.93908170
H       -1.41967308      -2.06305953       0.47140395
H       -0.23667523      -1.89234475      -0.80447025
H       -1.93411972      -1.46583776      -1.12236443
