18
Frame=0 idx=000734 GeodesicLength=0.0 rxn_smarts="[C:1]([C:2]([C:3]([C:4]([O:5][C:6]([H:16])([H:17])[H:18])([H:14])[H:15])([H:12])[H:13])([H:10])[H:11])([H:7])([H:8])[H:9]>>[C:1]([C:2]([C:3](=[C:4]([H:14])[H:15])[H:13])([H:10])[H:11])([H:7])([H:8])[H:9].[O:5]([C:6]([H:16])([H:17])[H:18])[H:12]"
C       -2.36407203       0.66249188      -0.05207074
C       -1.34764628      -0.27774129      -0.68947433
C       -0.44013380      -0.93758021       0.32827644
C        0.85996085      -1.35999892      -0.01464068
O        1.71347413      -0.01195912       0.94685655
C        2.35136400       1.00166289       0.21122879
H       -2.98648197       0.12830835       0.67005334
H       -3.02757680       1.10236878      -0.79953342
H       -1.86476664       1.47413355       0.48193161
H       -0.74082303       0.28048262      -1.41055482
H       -1.88597516      -1.03520725      -1.27209123
H        0.47079569      -0.03175168       0.94798347
H       -0.94029805      -1.51462942       1.10250048
H        1.34045702      -2.17978420       0.50383518
H        1.26838945      -1.14054957      -0.99782485
H        2.54039739       1.86486076       0.85396013
H        1.74084884       1.33190442      -0.64229848
H        3.31208637       0.64298845      -0.16813739
18
Frame=1 idx=000734 GeodesicLength=0.062092167646378336 rxn_smarts="[C:1]([C:2]([C:3]([C:4]([O:5][C:6]([H:16])([H:17])[H:18])([H:14])[H:15])([H:12])[H:13])([H:10])[H:11])([H:7])([H:8])[H:9]>>[C:1]([C:2]([C:3](=[C:4]([H:14])[H:15])[H:13])([H:10])[H:11])([H:7])([H:8])[H:9].[O:5]([C:6]([H:16])([H:17])[H:18])[H:12]"
C       -2.37224272       0.65773181      -0.04709182
C       -1.35915604      -0.28267157      -0.68994339
C       -0.44351964      -0.93541171       0.32427824
C        0.85802050      -1.35015613      -0.02483469
O        1.70931607       0.00350303       0.95003616
C        2.37188512       1.00157778       0.21628243
H       -2.98908429       0.12470853       0.68063366
H       -3.04129082       1.09504948      -0.79102394
H       -1.86924679       1.47063479       0.48165750
H       -0.75961830       0.27441891      -1.41789123
H       -1.89841585      -1.04589704      -1.26381431
H        0.45715708      -0.01550104       0.95423084
H       -0.93854184      -1.51752873       1.09825429
H        1.33397715      -2.18007795       0.48236974
H        1.25699685      -1.13039647      -1.01209020
H        2.53059319       1.88141912       0.84483675
H        1.80432473       1.31222630      -0.67317430
H        3.34884562       0.63637090      -0.11271573
18
Frame=2 idx=000734 GeodesicLength=0.12400889630456308 rxn_smarts="[C:1]([C:2]([C:3]([C:4]([O:5][C:6]([H:16])([H:17])[H:18])([H:14])[H:15])([H:12])[H:13])([H:10])[H:11])([H:7])([H:8])[H:9]>>[C:1]([C:2]([C:3](=[C:4]([H:14])[H:15])[H:13])([H:10])[H:11])([H:7])([H:8])[H:9].[O:5]([C:6]([H:16])([H:17])[H:18])[H:12]"
C       -2.38072407       0.65276628      -0.04198255
C       -1.37076399      -0.28749659      -0.69033503
C       -0.44680704      -0.93293880       0.32018676
C        0.85607140      -1.33993533      -0.03540104
O        1.70503481       0.01952925       0.95289677
C        2.39273874       1.00114595       0.22137712
H       -2.99178429       0.12070067       0.69128486
H       -3.05543191       1.08737263      -0.78229909
H       -1.87430608       1.46704446       0.48150964
H       -0.77872069       0.26865298      -1.42503366
H       -1.91063388      -1.05653123      -1.25550070
H        0.44324893       0.00110531       0.96048371
H       -0.93645587      -1.52018222       1.09394881
H        1.32747728      -2.17997184       0.46009224
H        1.24530274      -1.11976670      -1.02672494
H        2.52120151       1.89801054       0.83289929
H        1.87053719       1.29011921      -0.70221900
H        3.38401521       0.63037544      -0.05518319
18
Frame=3 idx=000734 GeodesicLength=0.18573439974661352 rxn_smarts="[C:1]([C:2]([C:3]([C:4]([O:5][C:6]([H:16])([H:17])[H:18])([H:14])[H:15])([H:12])[H:13])([H:10])[H:11])([H:7])([H:8])[H:9]>>[C:1]([C:2]([C:3](=[C:4]([H:14])[H:15])[H:13])([H:10])[H:11])([H:7])([H:8])[H:9].[O:5]([C:6]([H:16])([H:17])[H:18])[H:12]"
C       -2.38950646       0.64759770      -0.03673768
C       -1.38248950      -0.29224079      -0.69065165
C       -0.44998758      -0.93015088       0.31598322
C        0.85411494      -1.32930830      -0.04638839
O        1.70062971       0.03614512       0.95541085
C        2.41394259       1.00034485       0.22654679
H       -2.99454460       0.11631914       0.70205679
H       -3.07001541       1.07930946      -0.77334262
H       -1.87991169       1.46338804       0.48144033
H       -0.79818165       0.26312756      -1.43203351
H       -1.92266915      -1.06715415      -1.24710865
H        0.42906645       0.01806788       0.96673956
H       -0.93400890      -1.52258350       1.08957239
H        1.32096285      -2.17943339       0.43692604
H        1.23330415      -1.10857158      -1.04175896
H        2.51235455       1.91453432       0.81801532
H        1.93948692       1.26543179      -0.72913210
H        3.41745276       0.62517673       0.00446230
18
Frame=4 idx=000734 GeodesicLength=0.24731034550157757 rxn_smarts="[C:1]([C:2]([C:3]([C:4]([O:5][C:6]([H:16])([H:17])[H:18])([H:14])[H:15])([H:12])[H:13])([H:10])[H:11])([H:7])([H:8])[H:9]>>[C:1]([C:2]([C:3](=[C:4]([H:14])[H:15])[H:13])([H:10])[H:11])([H:7])([H:8])[H:9].[O:5]([C:6]([H:16])([H:17])[H:18])[H:12]"
C       -2.39860595       0.64221497      -0.03135279
C       -1.39435599      -0.29692803      -0.69090508
C       -0.45305614      -0.92703347       0.31165854
C        0.85214866      -1.31824020      -0.05783986
O        1.69609654       0.05341044       0.95757238
C        2.43554060       0.99916260       0.23182282
H       -2.99736034       0.11155233       0.71298810
H       -3.08507426       1.07082488      -0.76415499
H       -1.88607705       1.45968923       0.48143408
H       -0.81805730       0.25781382      -1.43894955
H       -1.93454652      -1.07782542      -1.23863006
H        0.41460094       0.03541979       0.97300399
H       -0.93116954      -1.52473568       1.08513491
H        1.31443486      -2.17843453       0.41280390
H        1.22099182      -1.09671206      -1.05723218
H        2.50432801       1.93088040       0.80005956
H        2.01115538       1.23803683      -0.75358945
H        3.44900628       0.62090411       0.06617566
18
Frame=5 idx=000734 GeodesicLength=0.3085894045708551 rxn_smarts="[C:1]([C:2]([C:3]([C:4]([O:5][C:6]([H:16])([H:17])[H:18])([H:14])[H:15])([H:12])[H:13])([H:10])[H:11])([H:7])([H:8])[H:9]>>[C:1]([C:2]([C:3](=[C:4]([H:14])[H:15])[H:13])([H:10])[H:11])([H:7])([H:8])[H:9].[O:5]([C:6]([H:16])([H:17])[H:18])[H:12]"
C       -2.40798420       0.63663514      -0.02580849
C       -1.40640305      -0.30158619      -0.69106728
C       -0.45598509      -0.92355895       0.30715121
C        0.85018478      -1.30666870      -0.06986082
O        1.69143529       0.07128888       0.95928725
C        2.45752812       0.99749807       0.23727233
H       -3.00009482       0.10653506       0.72418875
H       -3.10065421       1.06185443      -0.75464513
H       -1.89270700       1.45597469       0.48133824
H       -0.83845945       0.25258285      -1.44580883
H       -1.94635783      -1.08856141      -1.22990538
H        0.39985379       0.05313052       0.97920016
H       -0.92785047      -1.52658019       1.08056598
H        1.30793569      -2.17687778       0.38755298
H        1.20837317      -1.08401365      -1.07317290
H        2.49693567       1.94688420       0.77879941
H        2.08567598       1.20763455      -0.77527313
H        3.47857364       0.61782846       0.13018565
18
Frame=6 idx=000734 GeodesicLength=0.36968239789497587 rxn_smarts="[C:1]([C:2]([C:3]([C:4]([O:5][C:6]([H:16])([H:17])[H:18])([H:14])[H:15])([H:12])[H:13])([H:10])[H:11])([H:7])([H:8])[H:9]>>[C:1]([C:2]([C:3](=[C:4]([H:14])[H:15])[H:13])([H:10])[H:11])([H:7])([H:8])[H:9].[O:5]([C:6]([H:16])([H:17])[H:18])[H:12]"
C       -2.41768884       0.63082012      -0.02009958
C       -1.41862006      -0.30621250      -0.69116486
C       -0.45877716      -0.91970943       0.30248103
C        0.84821357      -1.29456981      -0.08245148
O        1.68664460       0.08990524       0.96058822
C        2.47996122       0.99537023       0.24289182
H       -3.00284500       0.10112786       0.73560874
H       -3.11675066       1.05240006      -0.74485387
H       -1.89990608       1.45222531       0.48128144
H       -0.85937802       0.24751047      -1.45264028
H       -1.95803662      -1.09940213      -1.22103922
H        0.38481608       0.07126303       0.98538962
H       -0.92405603      -1.52814127       1.07590778
H        1.30144559      -2.17474916       0.36118628
H        1.19544770      -1.07040614      -1.08960661
H        2.49074192       1.96240863       0.75408086
H        2.16285766       1.17411564      -0.79378562
H        3.50593015       0.61604385       0.19622573
18
Frame=7 idx=000734 GeodesicLength=0.4304980461832425 rxn_smarts="[C:1]([C:2]([C:3]([C:4]([O:5][C:6]([H:16])([H:17])[H:18])([H:14])[H:15])([H:12])[H:13])([H:10])[H:11])([H:7])([H:8])[H:9]>>[C:1]([C:2]([C:3](=[C:4]([H:14])[H:15])[H:13])([H:10])[H:11])([H:7])([H:8])[H:9].[O:5]([C:6]([H:16])([H:17])[H:18])[H:12]"
C       -2.42771471       0.62476122      -0.01420820
C       -1.43102278      -0.31081418      -0.69118514
C       -0.46140803      -0.91544608       0.29760763
C        0.84624753      -1.28187125      -0.09568292
O        1.68172161       0.10929198       0.96142063
C        2.50284817       0.99270086       0.24873052
H       -3.00554885       0.09536300       0.74730029
H       -3.13340158       1.04240531      -0.73472360
H       -1.90766225       1.44844309       0.48120830
H       -0.88088186       0.24255038      -1.45945600
H       -1.96960205      -1.11035539      -1.21196242
H        0.36948376       0.08982185       0.99153981
H       -0.91971820      -1.52937930       1.07110661
H        1.29499876      -2.17195149       0.33357927
H        1.18223207      -1.05571681      -1.10654769
H        2.48585966       1.97722413       0.72565396
H        2.24266058       1.13717356      -0.80869947
H        3.53090819       0.61579911       0.26431843
18
Frame=8 idx=000734 GeodesicLength=0.4911328931408095 rxn_smarts="[C:1]([C:2]([C:3]([C:4]([O:5][C:6]([H:16])([H:17])[H:18])([H:14])[H:15])([H:12])[H:13])([H:10])[H:11])([H:7])([H:8])[H:9]>>[C:1]([C:2]([C:3](=[C:4]([H:14])[H:15])[H:13])([H:10])[H:11])([H:7])([H:8])[H:9].[O:5]([C:6]([H:16])([H:17])[H:18])[H:12]"
C       -2.43809508       0.61842872      -0.00812335
C       -1.44364405      -0.31542714      -0.69114634
C       -0.46387703      -0.91073924       0.29251294
C        0.84427808      -1.26850323      -0.10962299
O        1.67665987       0.12955777       0.96177468
C        2.52626099       0.98946217       0.25483771
H       -3.00820626       0.08920795       0.75932821
H       -3.15066743       1.03179020      -0.72424506
H       -1.91601382       1.44465784       0.48109755
H       -0.90304332       0.23766570      -1.46633074
H       -1.98107985      -1.12151213      -1.20266681
H        0.35384115       0.10888046       0.99764299
H       -0.91480013      -1.53028653       1.06617580
H        1.28859368      -2.16841719       0.30462523
H        1.16873060      -1.03976647      -1.12405208
H        2.48275561       1.99109040       0.69339086
H        2.32495779       1.09662764      -0.81953227
H        3.55334921       0.61728306       0.33433369
18
Frame=9 idx=000734 GeodesicLength=0.5513773199076962 rxn_smarts="[C:1]([C:2]([C:3]([C:4]([O:5][C:6]([H:16])([H:17])[H:18])([H:14])[H:15])([H:12])[H:13])([H:10])[H:11])([H:7])([H:8])[H:9]>>[C:1]([C:2]([C:3](=[C:4]([H:14])[H:15])[H:13])([H:10])[H:11])([H:7])([H:8])[H:9].[O:5]([C:6]([H:16])([H:17])[H:18])[H:12]"
C       -2.44872371       0.61188075      -0.00178900
C       -1.45651622      -0.32005493      -0.69099731
C       -0.46611858      -0.90557861       0.28708836
C        0.84232799      -1.25439897      -0.12444804
O        1.67145972       0.15058363       0.96153577
C        2.55011786       0.98547587       0.26134415
H       -3.01052099       0.08288893       0.77187259
H       -3.16858138       1.02052158      -0.71322791
H       -1.92478010       1.44091865       0.48074621
H       -0.92602406       0.23272227      -1.47325942
H       -1.99257022      -1.13282078      -1.19292597
H        0.33790667       0.12831972       1.00361490
H       -0.90912736      -1.53084001       1.06096873
H        1.28231390      -2.16404890       0.27401977
H        1.15495963      -1.02226637      -1.14217224
H        2.48086411       2.00374133       0.65665367
H        2.41000281       1.05191730      -0.82576987
H        3.57300993       0.62103855       0.40674562
18
Frame=10 idx=000734 GeodesicLength=0.6114696041246914 rxn_smarts="[C:1]([C:2]([C:3]([C:4]([O:5][C:6]([H:16])([H:17])[H:18])([H:14])[H:15])([H:12])[H:13])([H:10])[H:11])([H:7])([H:8])[H:9]>>[C:1]([C:2]([C:3](=[C:4]([H:14])[H:15])[H:13])([H:10])[H:11])([H:7])([H:8])[H:9].[O:5]([C:6]([H:16])([H:17])[H:18])[H:12]"
C       -2.45968926       0.60504666       0.00479514
C       -1.46957616      -0.32468233      -0.69079773
C       -0.46815221      -0.89994033       0.28139118
C        0.84038855      -1.23955059      -0.14010194
O        1.66612542       0.17261532       0.96076287
C        2.57448158       0.98080625       0.26819346
H       -3.01274146       0.07612532       0.78479719
H       -3.18709285       1.00862405      -0.70178026
H       -1.93416896       1.43717832       0.48044689
H       -0.94969042       0.22789131      -1.48026538
H       -2.00389259      -1.14434019      -1.18299196
H        0.32166269       0.14825947       1.00959099
H       -0.90277617      -1.53106942       1.05558287
H        1.27611624      -2.15884253       0.24189719
H        1.14097904      -1.00319711      -1.16090920
H        2.48127324       2.01482926       0.61545932
H        2.49709844       1.00305584      -0.82683902
H        3.58965485       0.62719071       0.48076840
18
Frame=11 idx=000734 GeodesicLength=0.6710602422591082 rxn_smarts="[C:1]([C:2]([C:3]([C:4]([O:5][C:6]([H:16])([H:17])[H:18])([H:14])[H:15])([H:12])[H:13])([H:10])[H:11])([H:7])([H:8])[H:9]>>[C:1]([C:2]([C:3](=[C:4]([H:14])[H:15])[H:13])([H:10])[H:11])([H:7])([H:8])[H:9].[O:5]([C:6]([H:16])([H:17])[H:18])[H:12]"
C       -2.47098964       0.59782858       0.01161261
C       -1.48283882      -0.32930449      -0.69050108
C       -0.46992497      -0.89368207       0.27535068
C        0.83847716      -1.22371841      -0.15663823
O        1.66065683       0.19575451       0.95934164
C        2.59934565       0.97528124       0.27547012
H       -3.01475481       0.06889276       0.79806463
H       -3.20627075       0.99587893      -0.68982939
H       -1.94420000       1.43331474       0.48006370
H       -0.97415775       0.22310315      -1.48726214
H       -2.01503762      -1.15602511      -1.17272161
H        0.30511921       0.16874676       1.01544738
H       -0.89559898      -1.53078725       1.04987362
H        1.27006118      -2.15244630       0.20811199
H        1.12679373      -0.98219901      -1.18015559
H        2.48445879       2.02366554       0.56960669
H        2.58581765       0.94974025      -0.82191829
H        3.60304313       0.63595617       0.55608329
18
Frame=12 idx=000734 GeodesicLength=0.7304365925255988 rxn_smarts="[C:1]([C:2]([C:3]([C:4]([O:5][C:6]([H:16])([H:17])[H:18])([H:14])[H:15])([H:12])[H:13])([H:10])[H:11])([H:7])([H:8])[H:9]>>[C:1]([C:2]([C:3](=[C:4]([H:14])[H:15])[H:13])([H:10])[H:11])([H:7])([H:8])[H:9].[O:5]([C:6]([H:16])([H:17])[H:18])[H:12]"
C       -2.48258749       0.59028746       0.01871254
C       -1.49629169      -0.33395645      -0.69014713
C       -0.47142737      -0.88685876       0.26894107
C        0.83661349      -1.20693866      -0.17415790
O        1.65506093       0.22006673       0.95727840
C        2.62467471       0.96889548       0.28322854
H       -3.01650992       0.06127020       0.81182563
H       -3.22609293       0.98234387      -0.67733237
H       -1.95480689       1.42945736       0.47961584
H       -0.99941712       0.21831180      -1.49437370
H       -2.02601600      -1.16796295      -1.16215016
H        0.28826363       0.18973899       1.02129870
H       -0.88758299      -1.53010899       1.04385134
H        1.26417059      -2.14493999       0.17250518
H        1.11248939      -0.95915692      -1.20002482
H        2.49066366       2.02984863       0.51893401
H        2.67576794       0.89177757      -0.81042754
H        3.61302805       0.64792465       0.63242240
18
Frame=13 idx=000734 GeodesicLength=0.7894028078314965 rxn_smarts="[C:1]([C:2]([C:3]([C:4]([O:5][C:6]([H:16])([H:17])[H:18])([H:14])[H:15])([H:12])[H:13])([H:10])[H:11])([H:7])([H:8])[H:9]>>[C:1]([C:2]([C:3](=[C:4]([H:14])[H:15])[H:13])([H:10])[H:11])([H:7])([H:8])[H:9].[O:5]([C:6]([H:16])([H:17])[H:18])[H:12]"
C       -2.49420393       0.58254353       0.02619486
C       -1.50984481      -0.33857096      -0.68970035
C       -0.47256725      -0.87955939       0.26203391
C        0.83480152      -1.18923294      -0.19283287
O        1.64929890       0.24536266       0.95453038
C        2.65016564       0.96150780       0.29163468
H       -3.01755468       0.05346278       0.82623580
H       -3.24635265       0.96817344      -0.66404097
H       -1.96565021       1.42566501       0.47904827
H       -1.02548045       0.21354469      -1.50153839
H       -2.03679405      -1.17997983      -1.15117340
H        0.27112379       0.21090639       1.02722680
H       -0.87855955      -1.52919883       1.03728693
H        1.25847687      -2.13634136       0.13480550
H        1.09810781      -0.93380532      -1.22055553
H        2.49913316       2.03275833       0.46228822
H        2.76683367       0.82861627      -0.79141754
H        3.61906625       0.66414773       0.70997371
18
Frame=14 idx=000734 GeodesicLength=0.8480838603005015 rxn_smarts="[C:1]([C:2]([C:3]([C:4]([O:5][C:6]([H:16])([H:17])[H:18])([H:14])[H:15])([H:12])[H:13])([H:10])[H:11])([H:7])([H:8])[H:9]>>[C:1]([C:2]([C:3](=[C:4]([H:14])[H:15])[H:13])([H:10])[H:11])([H:7])([H:8])[H:9].[O:5]([C:6]([H:16])([H:17])[H:18])[H:12]"
C       -2.50596227       0.57445195       0.03388716
C       -1.52340654      -0.34322498      -0.68922776
C       -0.47335659      -0.87167011       0.25476523
C        0.83309570      -1.17052043      -0.21240902
O        1.64342193       0.27206531       0.95115083
C        2.67584340       0.95324806       0.30060242
H       -3.01825380       0.04522821       0.84097460
H       -3.26700719       0.95320410      -0.65030788
H       -1.97697181       1.42183266       0.47844084
H       -1.05212608       0.20874855      -1.50879502
H       -2.04715962      -1.19225352      -1.13998820
H        0.25369597       0.23248677       1.03336350
H       -0.86864002      -1.52785745       1.03037690
H        1.25298261      -2.12647384       0.09542856
H        1.08378331      -0.90628366      -1.24153793
H        2.51191245       2.03161219       0.40135558
H        2.85676755       0.76152377      -0.76453092
H        3.62138101       0.68388242       0.78645112
18
Frame=15 idx=000734 GeodesicLength=0.906225844162822 rxn_smarts="[C:1]([C:2]([C:3]([C:4]([O:5][C:6]([H:16])([H:17])[H:18])([H:14])[H:15])([H:12])[H:13])([H:10])[H:11])([H:7])([H:8])[H:9]>>[C:1]([C:2]([C:3](=[C:4]([H:14])[H:15])[H:13])([H:10])[H:11])([H:7])([H:8])[H:9].[O:5]([C:6]([H:16])([H:17])[H:18])[H:12]"
C       -2.51776512       0.56599934       0.04174449
C       -1.53687760      -0.34791428      -0.68870032
C       -0.47369915      -0.86312470       0.24711203
C        0.83156011      -1.15069406      -0.23285884
O        1.63737064       0.30029177       0.94704882
C        2.70148184       0.94403128       0.31021076
H       -3.01841707       0.03663037       0.85599395
H       -3.28798715       0.93735019      -0.63612768
H       -1.98873231       1.41793623       0.47764595
H       -1.07932358       0.20385477      -1.51608254
H       -2.05695080      -1.20474823      -1.12849457
H        0.23597087       0.25444422       1.03969790
H       -0.85765676      -1.52598763       1.02304649
H        1.24779358      -2.11515210       0.05439359
H        1.06957238      -0.87647588      -1.26284519
H        2.52934019       2.02564595       0.33662747
H        2.94435622       0.69090822      -0.72932568
H        3.61996371       0.70700453       0.86091340
18
Frame=16 idx=000734 GeodesicLength=0.9638279321008697 rxn_smarts="[C:1]([C:2]([C:3]([C:4]([O:5][C:6]([H:16])([H:17])[H:18])([H:14])[H:15])([H:12])[H:13])([H:10])[H:11])([H:7])([H:8])[H:9]>>[C:1]([C:2]([C:3](=[C:4]([H:14])[H:15])[H:13])([H:10])[H:11])([H:7])([H:8])[H:9].[O:5]([C:6]([H:16])([H:17])[H:18])[H:12]"
C       -2.52957388       0.55714148       0.04978174
C       -1.55019067      -0.35261458      -0.68810852
C       -0.47352810      -0.85385853       0.23904496
C        0.83021915      -1.12964986      -0.25420910
O        1.63108851       0.33026610       0.94206113
C        2.72695127       0.93378998       0.32049633
H       -3.01793964       0.02760685       0.87127578
H       -3.30926271       0.92053829      -0.62144942
H       -2.00097037       1.41392744       0.47668560
H       -1.10706129       0.19889939      -1.52334788
H       -2.06601986      -1.21743053      -1.11669141
H        0.21794905       0.27678719       1.04621922
H       -0.84546543      -1.52353041       1.01524110
H        1.24296971      -2.10222018       0.01167309
H        1.05545564      -0.84428620      -1.28445968
H        2.55175435       2.01411142       0.26842046
H        3.02870302       0.61686850      -0.68539907
H        3.61492125       0.73365363       0.93276567
