16
Frame=0 idx=006830 GeodesicLength=0.0 rxn_smarts="[C:1]([C@@:2]1([H:11])[C:3]([H:12])([H:13])[C:4]([H:14])([H:15])/[C:5]1=[N:6]\[O:7][H:16])([H:8])([H:9])[H:10]>>[C:1]([C@@:2]([C:3]([C:4]([H:14])([H:15])[H:16])([H:12])[H:13])([C:5]#[N+:6][O-:7])[H:11])([H:8])([H:9])[H:10]"
C       -1.68028621      -1.26966665      -0.22499298
C       -0.53250382      -0.36271591      -0.63366929
C       -0.45174955       1.03010667       0.03142130
C        1.07762967       1.24750144       0.17082417
C        0.80040610      -0.70346435      -0.11667317
N        1.68241753      -1.32835789       0.43395563
O        2.61998619      -0.71540374       1.06985876
H       -2.62567116      -0.83596921      -0.55559150
H       -1.71282668      -1.38800939       0.85904549
H       -1.58603318      -2.25818770      -0.67527629
H       -0.48848322      -0.26417040      -1.72219794
H       -0.95694383       1.81878864      -0.52890788
H       -0.90716886       0.96719972       1.02144787
H        1.28313924       2.03371499       0.90573105
H        1.51171035       1.56667562      -0.77794931
H        1.96637739       0.46195822       0.74297410
16
Frame=1 idx=006830 GeodesicLength=0.08433759927079883 rxn_smarts="[C:1]([C@@:2]1([H:11])[C:3]([H:12])([H:13])[C:4]([H:14])([H:15])/[C:5]1=[N:6]\[O:7][H:16])([H:8])([H:9])[H:10]>>[C:1]([C@@:2]([C:3]([C:4]([H:14])([H:15])[H:16])([H:12])[H:13])([C:5]#[N+:6][O-:7])[H:11])([H:8])([H:9])[H:10]"
C       -1.68059334      -1.26807187      -0.22399266
C       -0.53242737      -0.36147492      -0.63221210
C       -0.45604620       1.03307018       0.02937181
C        1.07249930       1.24926796       0.17488495
C        0.79955906      -0.70602995      -0.11389209
N        1.67940173      -1.33784652       0.43099245
O        2.64233945      -0.73608224       1.04088466
H       -2.62490640      -0.83767709      -0.56195278
H       -1.71874735      -1.38044356       0.86056655
H       -1.58144682      -2.25954528      -0.66668315
H       -0.48450817      -0.26643771      -1.72089845
H       -0.96101415       1.81597725      -0.53906853
H       -0.91666007       0.97660644       1.01738259
H        1.27236528       2.04284470       0.90322226
H        1.50822272       1.57174045      -0.77253088
H        1.98196233       0.46410216       0.77392537
16
Frame=2 idx=006830 GeodesicLength=0.16864147517216777 rxn_smarts="[C:1]([C@@:2]1([H:11])[C:3]([H:12])([H:13])[C:4]([H:14])([H:15])/[C:5]1=[N:6]\[O:7][H:16])([H:8])([H:9])[H:10]>>[C:1]([C@@:2]([C:3]([C:4]([H:14])([H:15])[H:16])([H:12])[H:13])([C:5]#[N+:6][O-:7])[H:11])([H:8])([H:9])[H:10]"
C       -1.68086622      -1.26650864      -0.22291616
C       -0.53237385      -0.36025214      -0.63081128
C       -0.46027946       1.03600088       0.02724696
C        1.06742631       1.25094174       0.17890631
C        0.79871367      -0.70876409      -0.11136307
N        1.67694785      -1.34700683       0.42739428
O        2.66300629      -0.75578816       1.01212896
H       -2.62411330      -0.83943844      -0.56806584
H       -1.72451095      -1.37293850       0.86210522
H       -1.57697668      -2.26085617      -0.65802238
H       -0.48070111      -0.26867997      -1.71963559
H       -0.96492597       1.81313244      -0.54921716
H       -0.92603194       0.98597407       1.01319769
H        1.26181745       2.05161728       0.90073891
H        1.50474456       1.57674279      -0.76715290
H        1.99812335       0.46582373       0.80546605
16
Frame=3 idx=006830 GeodesicLength=0.2528921192360927 rxn_smarts="[C:1]([C@@:2]1([H:11])[C:3]([H:12])([H:13])[C:4]([H:14])([H:15])/[C:5]1=[N:6]\[O:7][H:16])([H:8])([H:9])[H:10]>>[C:1]([C@@:2]([C:3]([C:4]([H:14])([H:15])[H:16])([H:12])[H:13])([C:5]#[N+:6][O-:7])[H:11])([H:8])([H:9])[H:10]"
C       -1.68106035      -1.26499505      -0.22174083
C       -0.53236766      -0.35900882      -0.62950945
C       -0.46445773       1.03890868       0.02506270
C        1.06240059       1.25257553       0.18276349
C        0.79790437      -0.71159862      -0.10927142
N        1.67517244      -1.35584362       0.42272182
O        2.68153230      -0.77468238       0.98468814
H       -2.62329392      -0.84129077      -0.57380753
H       -1.72997157      -1.36555741       0.86368376
H       -1.57257998      -2.26211815      -0.64932264
H       -0.47719759      -0.27080450      -1.71845206
H       -0.96876277       1.81027585      -0.55925578
H       -0.93519751       0.99525193       1.00894918
H        1.25156830       2.05999701       0.89824308
H        1.50122195       1.58175296      -0.76194913
H        2.01508914       0.46713733       0.83719668
16
Frame=4 idx=006830 GeodesicLength=0.33709684295436054 rxn_smarts="[C:1]([C@@:2]1([H:11])[C:3]([H:12])([H:13])[C:4]([H:14])([H:15])/[C:5]1=[N:6]\[O:7][H:16])([H:8])([H:9])[H:10]>>[C:1]([C@@:2]([C:3]([C:4]([H:14])([H:15])[H:16])([H:12])[H:13])([C:5]#[N+:6][O-:7])[H:11])([H:8])([H:9])[H:10]"
C       -1.68116745      -1.26353395      -0.22047063
C       -0.53242047      -0.35772758      -0.62832308
C       -0.46860816       1.04180455       0.02282252
C        1.05739154       1.25421280       0.18639100
C        0.79714482      -0.71448431      -0.10767410
N        1.67401358      -1.36439319       0.41690869
O        2.69799212      -0.79290115       0.95894657
H       -2.62245752      -0.84324577      -0.57916013
H       -1.73509266      -1.35831744       0.86530276
H       -1.56823202      -2.26333010      -0.64060343
H       -0.47404211      -0.27277858      -1.71736835
H       -0.97259356       1.80741649      -0.56915479
H       -0.94414813       1.00442796       1.00465994
H        1.24162779       2.06797319       0.89573926
H        1.49761795       1.58681667      -0.75698432
H        2.03297428       0.46806041       0.86896809
16
Frame=5 idx=006830 GeodesicLength=0.4212767416612201 rxn_smarts="[C:1]([C@@:2]1([H:11])[C:3]([H:12])([H:13])[C:4]([H:14])([H:15])/[C:5]1=[N:6]\[O:7][H:16])([H:8])([H:9])[H:10]>>[C:1]([C@@:2]([C:3]([C:4]([H:14])([H:15])[H:16])([H:12])[H:13])([C:5]#[N+:6][O-:7])[H:11])([H:8])([H:9])[H:10]"
C       -1.68119699      -1.26212115      -0.21911940
C       -0.53253612      -0.35640392      -0.62725479
C       -0.47276243       1.04469821       0.02052090
C        1.05236551       1.25588527       0.18975971
C        0.79643838      -0.71738939      -0.10656146
N        1.67334518      -1.37269113       0.41007538
O        2.71266558      -0.81054473       0.93488183
H       -2.62161630      -0.84530243      -0.58415456
H       -1.73989262      -1.35121210       0.86695509
H       -1.56392043      -2.26449189      -0.63187487
H       -0.47123021      -0.27460345      -1.71639301
H       -0.97646963       1.80455586      -0.57892500
H       -0.95291381       1.01351023       1.00033185
H        1.23197606       2.07554815       0.89325201
H        1.49391175       1.59196227      -0.75228228
H        2.05183608       0.46860020       0.90078861
16
Frame=6 idx=006830 GeodesicLength=0.5054451836693061 rxn_smarts="[C:1]([C@@:2]1([H:11])[C:3]([H:12])([H:13])[C:4]([H:14])([H:15])/[C:5]1=[N:6]\[O:7][H:16])([H:8])([H:9])[H:10]>>[C:1]([C@@:2]([C:3]([C:4]([H:14])([H:15])[H:16])([H:12])[H:13])([C:5]#[N+:6][O-:7])[H:11])([H:8])([H:9])[H:10]"
C       -1.68116337      -1.26075036      -0.21770225
C       -0.53271490      -0.35504018      -0.62629966
C       -0.47694764       1.04759748       0.01814704
C        1.04729061       1.25761521       0.19285966
C        0.79577867      -0.72029419      -0.10589552
N        1.67303265      -1.38076086       0.40240134
O        2.72587216      -0.82767927       0.91228754
H       -2.62077769      -0.84745668      -0.58883816
H       -1.74441065      -1.34422241       0.86862973
H       -1.55964022      -2.26560483      -0.62313738
H       -0.46873716      -0.27629787      -1.71552415
H       -0.98042186       1.80169046      -0.58859524
H       -0.96153470       1.02251656       0.99595207
H        1.22258342       2.08272908       0.89081222
H        1.49009109       1.59720758      -0.74784285
H        2.07169960       0.46875027       0.93274559
16
Frame=7 idx=006830 GeodesicLength=0.5896093490607474 rxn_smarts="[C:1]([C@@:2]1([H:11])[C:3]([H:12])([H:13])[C:4]([H:14])([H:15])/[C:5]1=[N:6]\[O:7][H:16])([H:8])([H:9])[H:10]>>[C:1]([C@@:2]([C:3]([C:4]([H:14])([H:15])[H:16])([H:12])[H:13])([C:5]#[N+:6][O-:7])[H:11])([H:8])([H:9])[H:10]"
C       -1.68107764      -1.25941681      -0.21622934
C       -0.53295752      -0.35363816      -0.62545449
C       -0.48118691       1.05050960       0.01568812
C        1.04214087       1.25942109       0.19568111
C        0.79516057      -0.72318207      -0.10564600
N        1.67297500      -1.38861275       0.39403112
O        2.73785622      -0.84435816       0.89097146
H       -2.61994826      -0.84970691      -0.59324653
H       -1.74867707      -1.33733215       0.87032034
H       -1.55538635      -2.26667026      -0.61438813
H       -0.46654339      -0.27787893      -1.71476145
H       -0.98447541       1.79881733      -0.59819560
H       -0.97004644       1.03146397       0.99150599
H        1.21342372       2.08952517       0.88844420
H        1.48614841       1.60256789      -0.74366643
H        2.09259419       0.46849115       0.96494562
16
Frame=8 idx=006830 GeodesicLength=0.6737740476058971 rxn_smarts="[C:1]([C@@:2]1([H:11])[C:3]([H:12])([H:13])[C:4]([H:14])([H:15])/[C:5]1=[N:6]\[O:7][H:16])([H:8])([H:9])[H:10]>>[C:1]([C@@:2]([C:3]([C:4]([H:14])([H:15])[H:16])([H:12])[H:13])([C:5]#[N+:6][O-:7])[H:11])([H:8])([H:9])[H:10]"
C       -1.68094846      -1.25811742      -0.21470737
C       -0.53326507      -0.35219934      -0.62471728
C       -0.48550034       1.05344226       0.01313025
C        1.03689391       1.26131991       0.19821311
C        0.79457942      -0.72603863      -0.10578886
N        1.67309365      -1.39624870       0.38508183
O        2.74880980      -0.86062363       0.87075990
H       -2.61913338      -0.85205398      -0.59740707
H       -1.75271629      -1.33052728       0.87202329
H       -1.55115381      -2.26769101      -0.60562183
H       -0.46463318      -0.27936244      -1.71410509
H       -0.98865130       1.79593514      -0.60775540
H       -0.97848049       1.04036933       0.98697795
H        1.20447403       2.09594751       0.88616680
H        1.48207781       1.60805909      -0.73975498
H        2.11455370       0.46778920       0.99750475
16
Frame=9 idx=006830 GeodesicLength=0.7579383398617536 rxn_smarts="[C:1]([C@@:2]1([H:11])[C:3]([H:12])([H:13])[C:4]([H:14])([H:15])/[C:5]1=[N:6]\[O:7][H:16])([H:8])([H:9])[H:10]>>[C:1]([C@@:2]([C:3]([C:4]([H:14])([H:15])[H:16])([H:12])[H:13])([C:5]#[N+:6][O-:7])[H:11])([H:8])([H:9])[H:10]"
C       -1.68078372      -1.25684655      -0.21314008
C       -0.53363964      -0.35072606      -0.62408550
C       -0.48990462       1.05640044       0.01045661
C        1.03152880       1.26332335       0.20044708
C        0.79402617      -0.72885192      -0.10629795
N        1.67333341      -1.40366829       0.37564746
O        2.75890325      -0.87649098       0.85146324
H       -2.61833642      -0.85449760      -0.60134489
H       -1.75655131      -1.32378697       0.87373691
H       -1.54693978      -2.26866602      -0.59682731
H       -0.46299369      -0.28076789      -1.71355382
H       -0.99296335       1.79303702      -0.61730909
H       -0.98686496       1.04925105       0.98234679
H        1.19571375       2.10200311       0.88399649
H        1.47787417       1.61368948      -0.73610699
H        2.13759795       0.46659782       1.03057106
16
Frame=10 idx=006830 GeodesicLength=0.8421029118829129 rxn_smarts="[C:1]([C@@:2]1([H:11])[C:3]([H:12])([H:13])[C:4]([H:14])([H:15])/[C:5]1=[N:6]\[O:7][H:16])([H:8])([H:9])[H:10]>>[C:1]([C@@:2]([C:3]([C:4]([H:14])([H:15])[H:16])([H:12])[H:13])([C:5]#[N+:6][O-:7])[H:11])([H:8])([H:9])[H:10]"
C       -1.68058253      -1.25560566      -0.21152779
C       -0.53408507      -0.34921397      -0.62356595
C       -0.49441653       1.05939389       0.00765404
C        1.02603018       1.26545218       0.20235374
C        0.79350469      -0.73160279      -0.10718455
N        1.67365255      -1.41086633       0.36577094
O        2.76821205      -0.89199965       0.83304418
H       -2.61756291      -0.85704425      -0.60505723
H       -1.76017571      -1.31711266       0.87546429
H       -1.54273348      -2.26959842      -0.58800520
H       -0.46163145      -0.28209581      -1.71311707
H       -0.99743994       1.79012811      -0.62687098
H       -0.99521348       1.05811794       0.97760524
H        1.18713251       2.10770772       0.88193027
H        1.47352758       1.61948399      -0.73274704
H        2.16178152       0.46485572       1.06425313
16
Frame=11 idx=006830 GeodesicLength=0.9262640891366198 rxn_smarts="[C:1]([C@@:2]1([H:11])[C:3]([H:12])([H:13])[C:4]([H:14])([H:15])/[C:5]1=[N:6]\[O:7][H:16])([H:8])([H:9])[H:10]>>[C:1]([C@@:2]([C:3]([C:4]([H:14])([H:15])[H:16])([H:12])[H:13])([C:5]#[N+:6][O-:7])[H:11])([H:8])([H:9])[H:10]"
C       -1.68034472      -1.25439298      -0.20986887
C       -0.53460564      -0.34766029      -0.62316370
C       -0.49905098       1.06243009       0.00470589
C        1.02038213       1.26772318       0.20390717
C        0.79301368      -0.73427390      -0.10845228
N        1.67402272      -1.41783516       0.35548859
O        2.77681806      -0.90716434       0.81542315
H       -2.61681661      -0.85969867      -0.60854429
H       -1.76358678      -1.31049623       0.87720978
H       -1.53852612      -2.27048785      -0.57914905
H       -0.46055194      -0.28335295      -1.71280169
H       -1.00210323       1.78720722      -0.63646340
H       -1.00354000       1.06698228       0.97273924
H        1.17871975       2.11307330       0.87996474
H        1.46902808       1.62546052      -0.72969497
H        2.18714162       0.46248579       1.09869969
16
Frame=12 idx=006830 GeodesicLength=1.010422342025189 rxn_smarts="[C:1]([C@@:2]1([H:11])[C:3]([H:12])([H:13])[C:4]([H:14])([H:15])/[C:5]1=[N:6]\[O:7][H:16])([H:8])([H:9])[H:10]>>[C:1]([C@@:2]([C:3]([C:4]([H:14])([H:15])[H:16])([H:12])[H:13])([C:5]#[N+:6][O-:7])[H:11])([H:8])([H:9])[H:10]"
C       -1.68006805      -1.25320765      -0.20815930
C       -0.53520644      -0.34606080      -0.62288587
C       -0.50382307       1.06551796       0.00159423
C        1.01456967       1.27015573       0.20507559
C        0.79255383      -0.73684599      -0.11011230
N        1.67442427      -1.42456285       0.34481973
O        2.78478396      -0.92199608       0.79854275
H       -2.61610153      -0.86246757      -0.61179949
H       -1.76677562      -1.30393163       0.87898041
H       -1.53430677      -2.27133458      -0.57025142
H       -0.45976546      -0.28454366      -1.71261682
H       -1.00697832       1.78427493      -0.64610771
H       -1.01185595       1.07585630       0.96773532
H        1.17046698       2.11811399       0.87808962
H        1.46436360       1.63164100      -0.72697788
H        2.21371889       0.45939090       1.13407315
16
Frame=13 idx=006830 GeodesicLength=1.0945798491408845 rxn_smarts="[C:1]([C@@:2]1([H:11])[C:3]([H:12])([H:13])[C:4]([H:14])([H:15])/[C:5]1=[N:6]\[O:7][H:16])([H:8])([H:9])[H:10]>>[C:1]([C@@:2]([C:3]([C:4]([H:14])([H:15])[H:16])([H:12])[H:13])([C:5]#[N+:6][O-:7])[H:11])([H:8])([H:9])[H:10]"
C       -1.67974791      -1.25204909      -0.20639282
C       -0.53589328      -0.34440991      -0.62274141
C       -0.50874794       1.06866733      -0.00170034
C        1.00857845       1.27277173       0.20582063
C        0.79212722      -0.73929734      -0.11218266
N        1.67484505      -1.43103346       0.33376918
O        2.79215858      -0.93649928       0.78236186
H       -2.61542142      -0.86535880      -0.61480948
H       -1.76972647      -1.29741401       0.88078567
H       -1.53006241      -2.27213825      -0.56130436
H       -0.45928727      -0.28567042      -1.71257355
H       -1.01209354       1.78133208      -0.65582432
H       -1.02016925       1.08475195       0.96258039
H        1.16236817       2.12284606       0.87628622
H        1.45951895       1.63805032      -0.72463107
H        2.24155307       0.45545111       1.17055608
16
Frame=14 idx=006830 GeodesicLength=1.17873787600217 rxn_smarts="[C:1]([C@@:2]1([H:11])[C:3]([H:12])([H:13])[C:4]([H:14])([H:15])/[C:5]1=[N:6]\[O:7][H:16])([H:8])([H:9])[H:10]>>[C:1]([C@@:2]([C:3]([C:4]([H:14])([H:15])[H:16])([H:12])[H:13])([C:5]#[N+:6][O-:7])[H:11])([H:8])([H:9])[H:10]"
C       -1.67937689      -1.25091711      -0.20456061
C       -0.53667275      -0.34270030      -0.62274149
C       -0.51384124       1.07188942      -0.00519883
C        1.00239434       1.27559666       0.20609654
C        0.79173791      -0.74160280      -0.11468933
N        1.67527957      -1.43722646       0.32232720
O        2.79897605      -0.95067195       0.76685885
H       -2.61477963      -0.86838251      -0.61755452
H       -1.77241652      -1.29093913       0.88263792
H       -1.52577646      -2.27289851      -0.55229796
H       -0.45913806      -0.28673347      -1.71268526
H       -1.01748143       1.77838016      -0.66563287
H       -1.02848471       1.09368135       0.95726178
H        1.15441921       2.12728796       0.87452782
H        1.45447471       1.64471826      -0.72269887
H        2.27068590       0.45051842       1.20834964
16
Frame=15 idx=006830 GeodesicLength=1.262898663325357 rxn_smarts="[C:1]([C@@:2]1([H:11])[C:3]([H:12])([H:13])[C:4]([H:14])([H:15])/[C:5]1=[N:6]\[O:7][H:16])([H:8])([H:9])[H:10]>>[C:1]([C@@:2]([C:3]([C:4]([H:14])([H:15])[H:16])([H:12])[H:13])([C:5]#[N+:6][O-:7])[H:11])([H:8])([H:9])[H:10]"
C       -1.67894451      -1.24981163      -0.20265103
C       -0.53755209      -0.34092292      -0.62289934
C       -0.51911921       1.07519690      -0.00892437
C        0.99600337       1.27866023       0.20584873
C        0.79139195      -0.74373330      -0.11766604
N        1.67572816      -1.44311588       0.31047240
O        2.80526186      -0.96450381       0.75202457
H       -2.61417903      -0.87155016      -0.62000689
H       -1.77481449      -1.28450383       0.88455276
H       -1.52142901      -2.27361421      -0.54322144
H       -0.45934392      -0.28773131      -1.71296761
H       -1.02317958       1.77542083      -0.67555251
H       -1.03680345       1.10265690       0.95176712
H        1.14661819       2.13146196       0.87277660
H        1.44920669       1.65167901      -0.72123669
H        2.30115507       0.44441123       1.24768373
16
Frame=16 idx=006830 GeodesicLength=1.3470654844020498 rxn_smarts="[C:1]([C@@:2]1([H:11])[C:3]([H:12])([H:13])[C:4]([H:14])([H:15])/[C:5]1=[N:6]\[O:7][H:16])([H:8])([H:9])[H:10]>>[C:1]([C@@:2]([C:3]([C:4]([H:14])([H:15])[H:16])([H:12])[H:13])([C:5]#[N+:6][O-:7])[H:11])([H:8])([H:9])[H:10]"
C       -1.67843636      -1.24873260      -0.20064794
C       -0.53853929      -0.33906675      -0.62323059
C       -0.52459879       1.07860458      -0.01290348
C        0.98939162       1.28199746       0.20501274
C        0.79109774      -0.74565491      -0.12115550
N        1.67620031      -1.44866835       0.29816540
O        2.81103419      -0.97797472       0.73786032
H       -2.61362161      -0.87487593      -0.62212977
H       -1.77687982      -1.27810392       0.88655082
H       -1.51699511      -2.27428392      -0.53405942
H       -0.45993749      -0.28866129      -1.71343888
H       -1.02923072       1.77245607      -0.68560390
H       -1.04512336       1.11169299       0.94608294
H        1.13896511       2.13539505       0.87098265
H        1.44368580       1.65897229      -0.72031217
H        2.33298777       0.43690393       1.28882678
