15
Frame=0 idx=010506 GeodesicLength=0.0 rxn_smarts="[C:1]([C:2]([C:3]([C:4](=[O:5])[C:6](=[O:7])[H:15])([H:13])[H:14])([H:11])[H:12])([H:8])([H:9])[H:10]>>[C:1]([C:2]([C:4]([C:3]([C:6](=[O:7])[H:15])([H:13])[H:14])=[O:5])([H:11])[H:12])([H:8])([H:9])[H:10]"
C       -1.35408769      -0.45577931      -0.90931574
C       -0.62791618      -0.67625448       0.39209196
C        0.32068123       1.59559331       0.47378994
C        0.69072435       0.31522948       0.89687503
O        1.08263606      -0.04532031       2.03785861
C        1.64091390      -0.33040314      -0.29912689
O        1.66309470      -0.10380095      -1.45576043
H       -1.98102810       0.43503751      -0.87986208
H       -1.99982333      -1.31799105      -1.09484579
H       -0.67453649      -0.37410253      -1.75815506
H       -0.16260623      -1.66077376       0.46780973
H       -1.25490924      -0.54022888       1.26922417
H        0.09484672       1.78334756      -0.56798446
H        0.28957399       2.42518465       1.17225335
H        2.27243636      -1.04973816       0.25514772
15
Frame=1 idx=010506 GeodesicLength=0.1332883036270919 rxn_smarts="[C:1]([C:2]([C:3]([C:4](=[O:5])[C:6](=[O:7])[H:15])([H:13])[H:14])([H:11])[H:12])([H:8])([H:9])[H:10]>>[C:1]([C:2]([C:4]([C:3]([C:6](=[O:7])[H:15])([H:13])[H:14])=[O:5])([H:11])[H:12])([H:8])([H:9])[H:10]"
C       -1.38093226      -0.45117488      -0.90769486
C       -0.64239993      -0.67008715       0.38824864
C        0.31618817       1.56194997       0.45849846
C        0.69234833       0.29483309       0.92234685
O        1.06095648      -0.05932283       2.06728503
C        1.67771570      -0.29832109      -0.28632125
O        1.69720977      -0.09019119      -1.44767630
H       -2.01153150       0.43695538      -0.87139750
H       -2.02689077      -1.31344113      -1.09131393
H       -0.70432966      -0.36773488      -1.75891786
H       -0.17855817      -1.65722523       0.44529517
H       -1.27139823      -0.55416500       1.26729434
H        0.09574237       1.75525172      -0.58322032
H        0.34200170       2.41153311       1.13315147
H        2.33387801      -0.99885990       0.26442207
15
Frame=2 idx=010506 GeodesicLength=0.266782587321558 rxn_smarts="[C:1]([C:2]([C:3]([C:4](=[O:5])[C:6](=[O:7])[H:15])([H:13])[H:14])([H:11])[H:12])([H:8])([H:9])[H:10]>>[C:1]([C:2]([C:4]([C:3]([C:6](=[O:7])[H:15])([H:13])[H:14])=[O:5])([H:11])[H:12])([H:8])([H:9])[H:10]"
C       -1.40930811      -0.44560062      -0.90554792
C       -0.65714195      -0.66392966       0.38397297
C        0.31374811       1.52705617       0.44266636
C        0.69448567       0.27322712       0.94595429
O        1.03914583      -0.07351441       2.09506004
C        1.71587564      -0.26603017      -0.27274552
O        1.73369631      -0.07845016      -1.43886065
H       -2.04221672       0.44069717      -0.86160951
H       -2.05666261      -1.30718229      -1.08656232
H       -0.73658524      -0.36111434      -1.75994529
H       -0.19509052      -1.65349189       0.42171948
H       -1.28723247      -0.56818499       1.26515570
H        0.09862289       1.72599170      -0.59900562
H        0.39008127       2.39296075       1.09284270
H        2.39858190      -0.94243435       0.27690528
15
Frame=3 idx=010506 GeodesicLength=0.40045742003882245 rxn_smarts="[C:1]([C:2]([C:3]([C:4](=[O:5])[C:6](=[O:7])[H:15])([H:13])[H:14])([H:11])[H:12])([H:8])([H:9])[H:10]>>[C:1]([C:2]([C:4]([C:3]([C:6](=[O:7])[H:15])([H:13])[H:14])=[O:5])([H:11])[H:12])([H:8])([H:9])[H:10]"
C       -1.43927394      -0.43897433      -0.90279434
C       -0.67211241      -0.65784308       0.37921107
C        0.31349165       1.49074749       0.42590364
C        0.69729839       0.25023950       0.96750447
O        1.01737935      -0.08786999       2.12097480
C        1.75553594      -0.23368619      -0.25842613
O        1.77293030      -0.06889169      -1.42924617
H       -2.07302145       0.44641893      -0.85033356
H       -2.08928722      -1.29906091      -1.08044373
H       -0.77150493      -0.35420463      -1.76124764
H       -0.21227635      -1.64964083       0.39695512
H       -1.30231177      -0.58229829       1.26279164
H        0.10370068       1.69523280      -0.61576334
H        0.43310497       2.36979826       1.05211639
H        2.46634679      -0.87996705       0.29279777
15
Frame=4 idx=010506 GeodesicLength=0.5342887935618689 rxn_smarts="[C:1]([C:2]([C:3]([C:4](=[O:5])[C:6](=[O:7])[H:15])([H:13])[H:14])([H:11])[H:12])([H:8])([H:9])[H:10]>>[C:1]([C:2]([C:4]([C:3]([C:6](=[O:7])[H:15])([H:13])[H:14])=[O:5])([H:11])[H:12])([H:8])([H:9])[H:10]"
C       -1.47088420      -0.43123944      -0.89935053
C       -0.68728824      -0.65192715       0.37390546
C        0.31544806       1.45281928       0.40788112
C        0.70091118       0.22568984       0.98684129
O        0.99580097      -0.10237554       2.14485028
C        1.79684463      -0.20134721      -0.24334535
O        1.81535030      -0.06171437      -1.41869427
H       -2.10389619       0.45423134      -0.83739361
H       -2.12488146      -1.28896143      -1.07282449
H       -0.80928713      -0.34695744      -1.76282086
H       -0.23017237      -1.64576486       0.37084549
H       -1.31656218      -0.59660094       1.26017790
H        0.11112465       1.66261301      -0.63386723
H        0.47074800       2.34250590       1.01155345
H        2.53674397      -0.81097101       0.31224136
15
Frame=5 idx=010506 GeodesicLength=0.6681612135719738 rxn_smarts="[C:1]([C:2]([C:3]([C:4](=[O:5])[C:6](=[O:7])[H:15])([H:13])[H:14])([H:11])[H:12])([H:8])([H:9])[H:10]>>[C:1]([C:2]([C:4]([C:3]([C:6](=[O:7])[H:15])([H:13])[H:14])=[O:5])([H:11])[H:12])([H:8])([H:9])[H:10]"
C       -1.50411027      -0.42234744      -0.89509362
C       -0.70263018      -0.64630486       0.36801353
C        0.31955497       1.41301777       0.38828454
C        0.70538511       0.19938537       1.00381319
O        0.97446219      -0.11703526       2.16650035
C        1.83988450      -0.16891870      -0.22744481
O        1.86137987      -0.05690689      -1.40697912
H       -2.13468862       0.46419609      -0.82259056
H       -2.16344120      -1.27676801      -1.06352212
H       -0.85005834      -0.33928692      -1.76460178
H       -0.24882573      -1.64194176       0.34325822
H       -1.32990165      -0.61125858       1.25728540
H        0.12098357       1.62771875      -0.65367124
H        0.50303289       2.31148616       0.97147241
H        2.60897286      -0.73503572       0.33527560
15
Frame=6 idx=010506 GeodesicLength=0.8021302566376857 rxn_smarts="[C:1]([C:2]([C:3]([C:4](=[O:5])[C:6](=[O:7])[H:15])([H:13])[H:14])([H:11])[H:12])([H:8])([H:9])[H:10]>>[C:1]([C:2]([C:4]([C:3]([C:6](=[O:7])[H:15])([H:13])[H:14])=[O:5])([H:11])[H:12])([H:8])([H:9])[H:10]"
C       -1.53900478      -0.41224964      -0.88991568
C       -0.71810661      -0.64111777       0.36148123
C        0.32578555       1.37111813       0.36688552
C        0.71085495       0.17115284       1.01831983
O        0.95353026      -0.13178826       2.18579691
C        1.88484385      -0.13625688      -0.21060597
O        1.91166287      -0.05437217      -1.39380107
H       -2.16535949       0.47640173      -0.80569843
H       -2.20506747      -1.26238187      -1.05240414
H       -0.89402230      -0.33110193      -1.76654144
H       -0.26825559      -1.63829646       0.31399481
H       -1.34227408      -0.62645723       1.25408133
H        0.13333673       1.59012234      -0.67546605
H        0.52991597       2.27720431       0.93196676
H        2.68216012      -0.65197714       0.36190638
15
Frame=7 idx=010506 GeodesicLength=0.9361490455200319 rxn_smarts="[C:1]([C:2]([C:3]([C:4](=[O:5])[C:6](=[O:7])[H:15])([H:13])[H:14])([H:11])[H:12])([H:8])([H:9])[H:10]>>[C:1]([C:2]([C:4]([C:3]([C:6](=[O:7])[H:15])([H:13])[H:14])=[O:5])([H:11])[H:12])([H:8])([H:9])[H:10]"
C       -1.57552107      -0.40087952      -0.88364942
C       -0.73366335      -0.63651582       0.35427545
C        0.33407010       1.32683062       0.34344031
C        0.71740451       0.14079350       1.03024151
O        0.93307277      -0.14658667       2.20257237
C        1.93179222      -0.10306543      -0.19266885
O        1.96683027      -0.05371772      -1.37875399
H       -2.19572562       0.49091007      -0.78645280
H       -2.24972609      -1.24566090      -1.03925451
H       -0.94130703      -0.32224986      -1.76850760
H       -0.28849174      -1.63491855       0.28290132
H       -1.35359629      -0.64242595       1.25052449
H        0.14819468       1.54930636      -0.69954563
H        0.55156183       2.23995162       0.89281539
H        2.75510481      -0.56177175       0.39206196
15
Frame=8 idx=010506 GeodesicLength=1.0702920567705063 rxn_smarts="[C:1]([C:2]([C:3]([C:4](=[O:5])[C:6](=[O:7])[H:15])([H:13])[H:14])([H:11])[H:12])([H:8])([H:9])[H:10]>>[C:1]([C:2]([C:4]([C:3]([C:6](=[O:7])[H:15])([H:13])[H:14])=[O:5])([H:11])[H:12])([H:8])([H:9])[H:10]"
C       -1.61363675      -0.38814576      -0.87612186
C       -0.74926594      -0.63267139       0.34638701
C        0.34438402       1.27982701       0.31770221
C        0.72514968       0.10807112       1.03948827
O        0.91318057      -0.16139550       2.21670984
C        1.98076998      -0.06900274      -0.17344278
O        2.02760219      -0.05430627      -1.36141120
H       -2.22559710       0.50781797      -0.76459638
H       -2.29744378      -1.22641654      -1.02384090
H       -0.99206554      -0.31254523      -1.77037538
H       -0.30961379      -1.63192572       0.24986080
H       -1.36382016      -0.65941884       1.24660919
H        0.16557549       1.50466646      -0.72623942
H        0.56816333       2.19989911       0.85356028
H        2.82661780      -0.46445367       0.42571031
15
Frame=9 idx=010506 GeodesicLength=1.2041905901509837 rxn_smarts="[C:1]([C:2]([C:3]([C:4](=[O:5])[C:6](=[O:7])[H:15])([H:13])[H:14])([H:11])[H:12])([H:8])([H:9])[H:10]>>[C:1]([C:2]([C:4]([C:3]([C:6](=[O:7])[H:15])([H:13])[H:14])=[O:5])([H:11])[H:12])([H:8])([H:9])[H:10]"
C       -1.65303577      -0.37398749      -0.86707226
C       -0.76477737      -0.62967696       0.33778494
C        0.35657283       1.22982900       0.28941547
C        0.73415091       0.07284527       1.04585712
O        0.89384389      -0.17597817       2.22789463
C        2.03157233      -0.03344491      -0.15273355
O        2.09437229      -0.05527458      -1.34112459
H       -2.25444747       0.52715507      -0.73981863
H       -2.34781559      -1.20450423      -1.00585967
H       -1.04621436      -0.30184668      -1.77180695
H       -0.33165087      -1.62935725       0.21479715
H       -1.37277092      -0.67746541       1.24219961
H        0.18532021       1.45557112      -0.75581297
H        0.57985306       2.15708493       0.81378976
H        2.89502683      -0.36094970       0.46248995
15
Frame=10 idx=010506 GeodesicLength=1.3381563456185466 rxn_smarts="[C:1]([C:2]([C:3]([C:4](=[O:5])[C:6](=[O:7])[H:15])([H:13])[H:14])([H:11])[H:12])([H:8])([H:9])[H:10]>>[C:1]([C:2]([C:4]([C:3]([C:6](=[O:7])[H:15])([H:13])[H:14])=[O:5])([H:11])[H:12])([H:8])([H:9])[H:10]"
C       -1.69371541      -0.35822825      -0.85630518
C       -0.78024820      -0.62774172       0.32852448
C        0.37076727       1.17631171       0.25830430
C        0.74459484       0.03470819       1.04928121
O        0.87522771      -0.19045504       2.23599898
C        2.08406937       0.00391744      -0.13033909
O        2.16797046      -0.05542551      -1.31745348
H       -2.28198259       0.54914736      -0.71191958
H       -2.40100201      -1.17954934      -0.98500540
H       -1.10388844      -0.28992557      -1.77264258
H       -0.35493075      -1.62742086       0.17775790
H       -1.38054460      -0.69674840       1.23736468
H        0.20753611       1.40110723      -0.78866920
H        0.58675265       2.11135650       0.77257864
H        2.95939360      -0.25105373       0.50252433
15
Frame=11 idx=010506 GeodesicLength=1.472100465619796 rxn_smarts="[C:1]([C:2]([C:3]([C:4](=[O:5])[C:6](=[O:7])[H:15])([H:13])[H:14])([H:11])[H:12])([H:8])([H:9])[H:10]>>[C:1]([C:2]([C:4]([C:3]([C:6](=[O:7])[H:15])([H:13])[H:14])=[O:5])([H:11])[H:12])([H:8])([H:9])[H:10]"
C       -1.73538378      -0.34067675      -0.84355034
C       -0.79565579      -0.62702516       0.31864880
C        0.38705072       1.11870079       0.22407025
C        0.75662549      -0.00674431       1.04959087
O        0.85744056      -0.20489365       2.24066983
C        2.13780742       0.04354865      -0.10605655
O        2.24877503      -0.05339842      -1.28978486
H       -2.30749626       0.57402488      -0.68067995
H       -2.45681118      -1.15111822      -0.96090064
H       -1.16497729      -0.27658351      -1.77252100
H       -0.37984400      -1.62630569       0.13886020
H       -1.38714878      -0.71723998       1.23206978
H        0.23229110       1.34019075      -0.82516132
H        0.58898539       2.06233447       0.72901512
H        3.01834137      -0.13481384       0.54572981
15
Frame=12 idx=010506 GeodesicLength=1.6060854395564292 rxn_smarts="[C:1]([C:2]([C:3]([C:4](=[O:5])[C:6](=[O:7])[H:15])([H:13])[H:14])([H:11])[H:12])([H:8])([H:9])[H:10]>>[C:1]([C:2]([C:4]([C:3]([C:6](=[O:7])[H:15])([H:13])[H:14])=[O:5])([H:11])[H:12])([H:8])([H:9])[H:10]"
C       -1.77768976      -0.32106625      -0.82857249
C       -0.81102633      -0.62771071       0.30827240
C        0.40560194       1.05627265       0.18641259
C        0.77044652      -0.05205995       1.04668130
O        0.84071762      -0.21959836       2.24160826
C        2.19218669       0.08583189      -0.07971340
O        2.33699771      -0.04758978      -1.25758883
H       -2.33011996       0.60213099      -0.64602248
H       -2.51508754      -1.11860936      -0.93317907
H       -1.22925685      -0.26159761      -1.77110984
H       -0.40698201      -1.62630709       0.09842429
H       -1.39271478      -0.73879911       1.22639153
H        0.25975768       1.27148127      -0.86570086
H        0.58669246       2.00940472       0.68204745
H        3.07047660      -0.01178331       0.59204915
15
Frame=13 idx=010506 GeodesicLength=1.7397997334342932 rxn_smarts="[C:1]([C:2]([C:3]([C:4](=[O:5])[C:6](=[O:7])[H:15])([H:13])[H:14])([H:11])[H:12])([H:8])([H:9])[H:10]>>[C:1]([C:2]([C:4]([C:3]([C:6](=[O:7])[H:15])([H:13])[H:14])=[O:5])([H:11])[H:12])([H:8])([H:9])[H:10]"
C       -1.81975088      -0.29912988      -0.81114380
C       -0.82624038      -0.62980273       0.29759625
C        0.42634553       0.98831208       0.14517967
C        0.78622790      -0.10172902       1.04035896
O        0.82533816      -0.23489733       2.23825850
C        2.24611850       0.13157848      -0.05132324
O        2.43204869      -0.03617904      -1.22028237
H       -2.34853948       0.63373761      -0.60809445
H       -2.57491120      -1.08139385      -0.90152192
H       -1.29579361      -0.24482803      -1.76785571
H       -0.43684740      -1.62762645       0.05716166
H       -1.39733644      -0.76068982       1.22040684
H        0.28983582       1.19354804      -0.91043747
H        0.57968802       1.95176945       0.63082964
H        3.11381676       0.11733048       0.64086742
15
Frame=14 idx=010506 GeodesicLength=1.873515642816025 rxn_smarts="[C:1]([C:2]([C:3]([C:4](=[O:5])[C:6](=[O:7])[H:15])([H:13])[H:14])([H:11])[H:12])([H:8])([H:9])[H:10]>>[C:1]([C:2]([C:4]([C:3]([C:6](=[O:7])[H:15])([H:13])[H:14])=[O:5])([H:11])[H:12])([H:8])([H:9])[H:10]"
C       -1.86086370      -0.27443672      -0.79119865
C       -0.84133779      -0.63349332       0.28692919
C        0.44968052       0.91381209       0.10026291
C        0.80428428      -0.15655559       1.03076300
O        0.81191164      -0.25182082       2.23048774
C        2.29835762       0.18088047      -0.02087232
O        2.53316815      -0.01693695      -1.17763402
H       -2.36131925       0.66938669      -0.56731892
H       -2.63594715      -1.03848531      -0.86573586
H       -1.36380590      -0.22602777      -1.76252864
H       -0.47041696      -1.63078695       0.01599898
H       -1.40136544      -0.78238074       1.21448184
H        0.32296707       1.10447519      -0.95960114
H        0.56838964       1.88835591       0.57410862
H        3.14629727       0.25401383       0.69185727
15
Frame=15 idx=010506 GeodesicLength=2.0070146973912033 rxn_smarts="[C:1]([C:2]([C:3]([C:4](=[O:5])[C:6](=[O:7])[H:15])([H:13])[H:14])([H:11])[H:12])([H:8])([H:9])[H:10]>>[C:1]([C:2]([C:4]([C:3]([C:6](=[O:7])[H:15])([H:13])[H:14])=[O:5])([H:11])[H:12])([H:8])([H:9])[H:10]"
C       -1.89948075      -0.24660876      -0.76877522
C       -0.85602055      -0.63865106       0.27667664
C        0.47551053       0.83201770       0.05197275
C        0.82481151      -0.21703580       1.01802191
O        0.80101410      -0.27129057       2.21799253
C        2.34678641       0.23443609       0.01125785
O        2.63803783       0.01232910      -1.12951359
H       -2.36648632       0.70936083      -0.52444193
H       -2.69654752      -0.98898911      -0.82587354
H       -1.43133892      -0.20503158      -1.75468744
H       -0.50816732      -1.63600713      -0.02370310
H       -1.40495504      -0.80256437       1.20896887
H        0.35911064       1.00248029      -1.01276493
H        0.55280774       1.81805119       0.51120907
H        3.16491767       0.39750320       0.74366014
15
Frame=16 idx=010506 GeodesicLength=2.1404797118958374 rxn_smarts="[C:1]([C:2]([C:3]([C:4](=[O:5])[C:6](=[O:7])[H:15])([H:13])[H:14])([H:11])[H:12])([H:8])([H:9])[H:10]>>[C:1]([C:2]([C:4]([C:3]([C:6](=[O:7])[H:15])([H:13])[H:14])=[O:5])([H:11])[H:12])([H:8])([H:9])[H:10]"
C       -1.93391959      -0.21516455      -0.74418433
C       -0.86992026      -0.64522411       0.26732466
C        0.50393938       0.74228529       0.00102237
C        0.84800013      -0.28360900       1.00285145
O        0.79334665      -0.29463134       2.20122870
C        2.38890005       0.29203496       0.04448410
O        2.74320152       0.05365074      -1.07641760
H       -2.36194077       0.75398134      -0.48053141
H       -2.75506206      -0.93185426      -0.78242138
H       -1.49621565      -0.18145436      -1.74427633
H       -0.55044308      -1.64355264      -0.06049062
H       -1.40828194      -0.82022636       1.20440276
H        0.39847219       0.88579504      -1.06907477
H        0.53367890       1.73981926       0.44157661
H        3.16624455       0.54814999       0.79450579
