15
Frame=0 idx=009329 GeodesicLength=0.0 rxn_smarts="[C:1]([n:2]1[c:3]([H:11])[c:4]([C:5]([H:12])([H:13])[H:14])[c:6]([H:15])[n:7]1)([H:8])([H:9])[H:10]>>[C:1]([N+:2]([C:3](=[C:4]=[C:6]([C:5]([H:12])([H:13])[H:14])[H:15])[H:11])=[N-:7])([H:8])([H:9])[H:10]"
C       -2.28750428      -0.32375994       0.15284968
N       -0.92482605       0.03198697      -0.19456713
C       -0.11429121      -0.63910583      -1.02295064
C        1.12227728       0.04772570      -1.16273766
C        1.99516474      -0.03767093       0.58612388
C        0.87621590       1.10054970      -0.19851745
N       -0.39992429       1.10801780       0.33176034
H       -2.93575852       0.52791272      -0.04090987
H       -2.33550679      -0.57951572       1.20971261
H       -2.59456317      -1.17507218      -0.45025772
H       -0.48078552      -1.52413391      -1.52263313
H        2.95205155       0.45922664       0.48953075
H        2.11405126      -1.08597180       0.34656622
H        1.58320834       0.06477056       1.58876216
H        1.43019070       2.02504027      -0.11273200
15
Frame=1 idx=009329 GeodesicLength=0.122476062289459 rxn_smarts="[C:1]([n:2]1[c:3]([H:11])[c:4]([C:5]([H:12])([H:13])[H:14])[c:6]([H:15])[n:7]1)([H:8])([H:9])[H:10]>>[C:1]([N+:2]([C:3](=[C:4]=[C:6]([C:5]([H:12])([H:13])[H:14])[H:15])[H:11])=[N-:7])([H:8])([H:9])[H:10]"
C       -2.31349940      -0.32463629       0.13989016
N       -0.93923679       0.02489990      -0.16853292
C       -0.12172489      -0.63844636      -1.00408212
C        1.10716239       0.05242868      -1.13911013
C        2.03225585      -0.03975410       0.57609149
C        0.88207803       1.10288255      -0.17690036
N       -0.42089806       1.09914981       0.36224161
H       -2.95748903       0.51594751      -0.10968392
H       -2.39801038      -0.54215802       1.20297034
H       -2.59835520      -1.19942726      -0.44027183
H       -0.48829440      -1.51144265      -1.52469642
H        2.98696594       0.45801804       0.45814187
H        2.14967312      -1.08951381       0.33967730
H        1.65159327       0.05845647       1.59172546
H        1.42777954       2.03359552      -0.10746053
15
Frame=2 idx=009329 GeodesicLength=0.24474830425632466 rxn_smarts="[C:1]([n:2]1[c:3]([H:11])[c:4]([C:5]([H:12])([H:13])[H:14])[c:6]([H:15])[n:7]1)([H:8])([H:9])[H:10]>>[C:1]([N+:2]([C:3](=[C:4]=[C:6]([C:5]([H:12])([H:13])[H:14])[H:15])[H:11])=[N-:7])([H:8])([H:9])[H:10]"
C       -2.33928657      -0.32551134       0.12652449
N       -0.95463591       0.01849168      -0.14297640
C       -0.12954042      -0.63710826      -0.98501921
C        1.09211904       0.05717850      -1.11404524
C        2.06901016      -0.04191587       0.56548598
C        0.88819866       1.10531730      -0.15424071
N       -0.44303914       1.09062496       0.39298752
H       -2.97663174       0.50222972      -0.17801357
H       -2.46052360      -0.50470006       1.19322470
H       -2.60286187      -1.22266757      -0.42926407
H       -0.49491713      -1.49956665      -1.52451733
H        3.02117866       0.45638283       0.42565984
H        2.18482525      -1.09315275       0.33225496
H        1.72073141       0.05235813       1.59332868
H        1.42537319       2.04203937      -0.10138965
15
Frame=3 idx=009329 GeodesicLength=0.3667273703979764 rxn_smarts="[C:1]([n:2]1[c:3]([H:11])[c:4]([C:5]([H:12])([H:13])[H:14])[c:6]([H:15])[n:7]1)([H:8])([H:9])[H:10]>>[C:1]([N+:2]([C:3](=[C:4]=[C:6]([C:5]([H:12])([H:13])[H:14])[H:15])[H:11])=[N-:7])([H:8])([H:9])[H:10]"
C       -2.36476132      -0.32640673       0.11279990
N       -0.97114499       0.01305008      -0.11827149
C       -0.13774192      -0.63497859      -0.96588846
C        1.07722925       0.06194841      -1.08749716
C        2.10525798      -0.04422151       0.55437919
C        0.89464613       1.10786325      -0.13055168
N       -0.46647953       1.08269684       0.42365938
H       -2.99343124       0.48672057      -0.24533150
H       -2.52233662      -0.46743106       1.18049951
H       -2.60801094      -1.24473245      -0.41737111
H       -0.50050052      -1.48853696      -1.52204117
H        3.05452094       0.45416251       0.39217251
H        2.21927896      -1.09697200       0.32444852
H        1.79038930       0.04650096       1.59354438
H        1.42308449       2.05033667      -0.09455080
15
Frame=4 idx=009329 GeodesicLength=0.48854435928726675 rxn_smarts="[C:1]([n:2]1[c:3]([H:11])[c:4]([C:5]([H:12])([H:13])[H:14])[c:6]([H:15])[n:7]1)([H:8])([H:9])[H:10]>>[C:1]([N+:2]([C:3](=[C:4]=[C:6]([C:5]([H:12])([H:13])[H:14])[H:15])[H:11])=[N-:7])([H:8])([H:9])[H:10]"
C       -2.39006040      -0.32725963       0.09862580
N       -0.98882110       0.00847452      -0.09430347
C       -0.14629702      -0.63226164      -0.94640071
C        1.06245997       0.06665945      -1.05929742
C        2.14119435      -0.04663328       0.54271453
C        0.90142043       1.11042967      -0.10565698
N       -0.49133637       1.07524749       0.45437701
H       -3.00802428       0.46953903      -0.31171674
H       -2.58374455      -0.43034591       1.16470943
H       -2.61389754      -1.26548355      -0.40485852
H       -0.50505843      -1.47828536      -1.51724867
H        3.08706065       0.45148621       0.35739992
H        2.25330723      -1.10093305       0.31622608
H        1.86099531       0.04091463       1.59231338
H        1.42080176       2.05845140      -0.08688364
15
Frame=5 idx=009329 GeodesicLength=0.6100301117719789 rxn_smarts="[C:1]([n:2]1[c:3]([H:11])[c:4]([C:5]([H:12])([H:13])[H:14])[c:6]([H:15])[n:7]1)([H:8])([H:9])[H:10]>>[C:1]([N+:2]([C:3](=[C:4]=[C:6]([C:5]([H:12])([H:13])[H:14])[H:15])[H:11])=[N-:7])([H:8])([H:9])[H:10]"
C       -2.41563618      -0.32781082       0.08348204
N       -1.00758267       0.00421622      -0.07034907
C       -0.15502250      -0.62953850      -0.92564814
C        1.04754783       0.07116055      -1.02904367
C        2.17747486      -0.04889402       0.53014937
C        0.90835450       1.11270550      -0.07898630
N       -0.51752813       1.06768325       0.48604155
H       -3.02020316       0.45163530      -0.37780106
H       -2.64605224      -0.39348209       1.14528399
H       -2.62139937      -1.28446459      -0.39265431
H       -0.50869025      -1.46951826      -1.50933471
H        3.11905555       0.44904976       0.32048597
H        2.28789814      -1.10470063       0.30708571
H        1.93383923       0.03567172       1.58936039
H        1.41794440       2.06628661      -0.07807177
15
Frame=6 idx=009329 GeodesicLength=0.7313027402806663 rxn_smarts="[C:1]([n:2]1[c:3]([H:11])[c:4]([C:5]([H:12])([H:13])[H:14])[c:6]([H:15])[n:7]1)([H:8])([H:9])[H:10]>>[C:1]([N+:2]([C:3](=[C:4]=[C:6]([C:5]([H:12])([H:13])[H:14])[H:15])[H:11])=[N-:7])([H:8])([H:9])[H:10]"
C       -2.44120467      -0.32822120       0.06768916
N       -1.02760746       0.00074555      -0.04703285
C       -0.16399955      -0.62657442      -0.90400550
C        1.03272843       0.07538579      -0.99669669
C        2.21370039      -0.05117340       0.51690980
C        0.91563182       1.11477594      -0.05069025
N       -0.54533360       1.06051102       0.51784150
H       -3.03031885       0.43240780      -0.44302865
H       -2.70809349      -0.35681827       1.12260469
H       -2.62993388      -1.30199706      -0.38030311
H       -0.51136823      -1.46154381      -1.49900973
H        3.15016696       0.44643071       0.28182179
H        2.32248840      -1.10850487       0.29741949
H        2.00825758       0.03079667       1.58467511
H        1.41488615       2.07377955      -0.06819477
15
Frame=7 idx=009329 GeodesicLength=0.8522246937101141 rxn_smarts="[C:1]([n:2]1[c:3]([H:11])[c:4]([C:5]([H:12])([H:13])[H:14])[c:6]([H:15])[n:7]1)([H:8])([H:9])[H:10]>>[C:1]([N+:2]([C:3](=[C:4]=[C:6]([C:5]([H:12])([H:13])[H:14])[H:15])[H:11])=[N-:7])([H:8])([H:9])[H:10]"
C       -2.46666345      -0.32847629       0.05123573
N       -1.04896504      -0.00173089      -0.02454463
C       -0.17321966      -0.62328633      -0.88148405
C        1.01803426       0.07928989      -0.96208930
C        2.24975097      -0.05351069       0.50298260
C        0.92330031       1.11660558      -0.02063416
N       -0.57489710       1.05392062       0.54956107
H       -3.03850271       0.41184718      -0.50720144
H       -2.76937434      -0.32041772       1.09670284
H       -2.63939258      -1.31812010      -0.36790359
H       -0.51298385      -1.45443165      -1.48620870
H        3.18016495       0.44354716       0.24133369
H        2.35694967      -1.11239130       0.28725305
H        2.08417906       0.02630015       1.57810861
H        1.41161952       2.08085440      -0.05711172
15
Frame=8 idx=009329 GeodesicLength=0.9729450888072348 rxn_smarts="[C:1]([n:2]1[c:3]([H:11])[c:4]([C:5]([H:12])([H:13])[H:14])[c:6]([H:15])[n:7]1)([H:8])([H:9])[H:10]>>[C:1]([N+:2]([C:3](=[C:4]=[C:6]([C:5]([H:12])([H:13])[H:14])[H:15])[H:11])=[N-:7])([H:8])([H:9])[H:10]"
C       -2.49224601      -0.32848584       0.03392688
N       -1.07167065      -0.00343712      -0.00255292
C       -0.18262913      -0.62006698      -0.85749392
C        1.00344016       0.08266598      -0.92483784
C        2.28594770      -0.05580255       0.48822035
C        0.93135844       1.11799351       0.01152104
N       -0.60631986       1.04770128       0.58149933
H       -3.04464439       0.39018702      -0.57077824
H       -2.83056488      -0.28410364       1.06737581
H       -2.65001762      -1.33272179      -0.35571469
H       -0.51371854      -1.44807770      -1.47089635
H        3.20905649       0.44070927       0.19855687
H        2.39180508      -1.11623642       0.27644345
H        2.16225253       0.02230734       1.56937896
H        1.40795067       2.08736763      -0.04464874
15
Frame=9 idx=009329 GeodesicLength=1.09290608705935 rxn_smarts="[C:1]([n:2]1[c:3]([H:11])[c:4]([C:5]([H:12])([H:13])[H:14])[c:6]([H:15])[n:7]1)([H:8])([H:9])[H:10]>>[C:1]([N+:2]([C:3](=[C:4]=[C:6]([C:5]([H:12])([H:13])[H:14])[H:15])[H:11])=[N-:7])([H:8])([H:9])[H:10]"
C       -2.51780118      -0.32805431       0.01546552
N       -1.09570762      -0.00446865       0.01888682
C       -0.19210546      -0.61689987      -0.83198407
C        0.98874651       0.08539981      -0.88460962
C        2.32232831      -0.05792403       0.47241508
C        0.93973252       1.11872059       0.04627196
N       -0.63964165       1.04177400       0.61363161
H       -3.04869293       0.36801212      -0.63367890
H       -2.89136160      -0.24780731       1.03416575
H       -2.66223892      -1.34565052      -0.34412500
H       -0.51338915      -1.44347630      -1.45213463
H        3.23659551       0.43819172       0.15315768
H        2.42714555      -1.11988047       0.26458147
H        2.24288878       0.01886765       1.55813399
H        1.40350134       2.09319556      -0.03017766
15
Frame=10 idx=009329 GeodesicLength=1.2128105664946816 rxn_smarts="[C:1]([n:2]1[c:3]([H:11])[c:4]([C:5]([H:12])([H:13])[H:14])[c:6]([H:15])[n:7]1)([H:8])([H:9])[H:10]>>[C:1]([N+:2]([C:3](=[C:4]=[C:6]([C:5]([H:12])([H:13])[H:14])[H:15])[H:11])=[N-:7])([H:8])([H:9])[H:10]"
C       -2.54359822      -0.32722434      -0.00417682
N       -1.12113182      -0.00484680       0.04016092
C       -0.20169776      -0.61425016      -0.80417008
C        0.97416307       0.08716507      -0.84093187
C        2.35907568      -0.05985373       0.45549367
C        0.94861989       1.11865876       0.08376734
N       -0.67504948       1.03614190       0.64623803
H       -3.05046789       0.34505164      -0.69648739
H       -2.95245162      -0.21135650       0.99712719
H       -2.67596433      -1.35694852      -0.33320048
H       -0.51229905      -1.43971011      -1.43055646
H        3.26259337       0.43608378       0.10471251
H        2.46336751      -1.12331067       0.25182691
H        2.32641945       0.01627105       1.54399337
H        1.39842121       2.09812862      -0.01379683
15
Frame=11 idx=009329 GeodesicLength=1.3321265360875552 rxn_smarts="[C:1]([n:2]1[c:3]([H:11])[c:4]([C:5]([H:12])([H:13])[H:14])[c:6]([H:15])[n:7]1)([H:8])([H:9])[H:10]>>[C:1]([N+:2]([C:3](=[C:4]=[C:6]([C:5]([H:12])([H:13])[H:14])[H:15])[H:11])=[N-:7])([H:8])([H:9])[H:10]"
C       -2.56896877      -0.32629941      -0.02456468
N       -1.14793020      -0.00369574       0.06024506
C       -0.21150222      -0.61103387      -0.77523094
C        0.95991651       0.08827599      -0.79384898
C        2.39539176      -0.06196270       0.43767731
C        0.95816840       1.11803917       0.12398368
N       -0.71289254       1.03204581       0.67762495
H       -3.05046332       0.32010738      -0.75845277
H       -3.01198913      -0.17479913       0.95693238
H       -2.69004175      -1.36717537      -0.32187209
H       -0.51011461      -1.43640209      -1.40656116
H        3.28638979       0.43362980       0.05396690
H        2.49940233      -1.12689956       0.23832020
H        2.41144412       0.01401613       1.52688089
H        1.39318963       2.10215359       0.00489924
15
Frame=12 idx=009329 GeodesicLength=1.4518372486264006 rxn_smarts="[C:1]([n:2]1[c:3]([H:11])[c:4]([C:5]([H:12])([H:13])[H:14])[c:6]([H:15])[n:7]1)([H:8])([H:9])[H:10]>>[C:1]([N+:2]([C:3](=[C:4]=[C:6]([C:5]([H:12])([H:13])[H:14])[H:15])[H:11])=[N-:7])([H:8])([H:9])[H:10]"
C       -2.59490438      -0.32469816      -0.04683014
N       -1.17614516      -0.00216193       0.08094736
C       -0.22132651      -0.60919924      -0.74233452
C        0.94572038       0.08766108      -0.74195113
C        2.43255501      -0.06353034       0.41821760
C        0.96842156       1.11605230       0.16788308
N       -0.75297588       1.02798517       0.71044588
H       -3.04741865       0.29510904      -0.82126645
H       -3.07292169      -0.13784940       0.91174042
H       -2.70659404      -1.37542790      -0.31209058
H       -0.50741929      -1.43434260      -1.37885013
H        3.30800997       0.43228848      -0.00118373
H        2.53723398      -1.12987143       0.22348784
H        2.50078370       0.01327688       1.50563564
H        1.38698099       2.10470805       0.02614887
15
Frame=13 idx=009329 GeodesicLength=1.5702210096752982 rxn_smarts="[C:1]([n:2]1[c:3]([H:11])[c:4]([C:5]([H:12])([H:13])[H:14])[c:6]([H:15])[n:7]1)([H:8])([H:9])[H:10]>>[C:1]([N+:2]([C:3](=[C:4]=[C:6]([C:5]([H:12])([H:13])[H:14])[H:15])[H:11])=[N-:7])([H:8])([H:9])[H:10]"
C       -2.61990125      -0.32333084      -0.06958691
N       -1.20555897       0.00176266       0.09930924
C       -0.23138307      -0.60570573      -0.70944421
C        0.93202979       0.08630411      -0.68605676
C        2.46875584      -0.06551587       0.39791270
C        0.97962918       1.11335791       0.21523910
N       -0.79581826       1.02706868       0.73981086
H       -3.04327166       0.26701495      -0.88265074
H       -3.13115668      -0.10095709       0.86370478
H       -2.72262380      -1.38313493      -0.30087105
H       -0.50356195      -1.43261852      -1.34868565
H        3.32651997       0.43025844      -0.05820746
H        2.57417743      -1.13322665       0.20760303
H        2.59095480       0.01263983       1.48083865
H        1.38120862       2.10608307       0.05108441
15
Frame=14 idx=009329 GeodesicLength=1.6890652106781086 rxn_smarts="[C:1]([n:2]1[c:3]([H:11])[c:4]([C:5]([H:12])([H:13])[H:14])[c:6]([H:15])[n:7]1)([H:8])([H:9])[H:10]>>[C:1]([N+:2]([C:3](=[C:4]=[C:6]([C:5]([H:12])([H:13])[H:14])[H:15])[H:11])=[N-:7])([H:8])([H:9])[H:10]"
C       -2.64506735      -0.32123975      -0.09446830
N       -1.23641040       0.00644354       0.11802930
C       -0.24154084      -0.60364663      -0.67206363
C        0.91850404       0.08248313      -0.62393889
C        2.50543610      -0.06691248       0.37568410
C        0.99185543       1.10885886       0.26716659
N       -0.84123483       1.02680832       0.77005423
H       -3.03554397       0.23847469      -0.94501295
H       -3.19009268      -0.06335706       0.81001271
H       -2.74093804      -1.38883736      -0.29110038
H       -0.49924355      -1.43209383      -1.31444489
H        3.34134066       0.42941249      -0.12023976
H        2.61282370      -1.13588688       0.19016833
H        2.68548765       0.01405997       1.45058549
H        1.37462408       2.10543298       0.07956804
15
Frame=15 idx=009329 GeodesicLength=1.8077364003714624 rxn_smarts="[C:1]([n:2]1[c:3]([H:11])[c:4]([C:5]([H:12])([H:13])[H:14])[c:6]([H:15])[n:7]1)([H:8])([H:9])[H:10]>>[C:1]([N+:2]([C:3](=[C:4]=[C:6]([C:5]([H:12])([H:13])[H:14])[H:15])[H:11])=[N-:7])([H:8])([H:9])[H:10]"
C       -2.66947563      -0.31927051      -0.12049369
N       -1.26838709       0.01352129       0.13516112
C       -0.25189906      -0.60058682      -0.63288554
C        0.90559516       0.07688630      -0.55563759
C        2.54128862      -0.06844923       0.35210482
C        1.00550278       1.10302090       0.32364525
N       -0.88954722       1.02989182       0.79769756
H       -3.02571746       0.20695805      -1.00693312
H       -3.24727347      -0.02584992       0.75216027
H       -2.75934253      -1.39367666      -0.28050744
H       -0.49398864      -1.43149352      -1.27754398
H        3.35148672       0.42830999      -0.18571529
H        2.65129176      -1.13860176       0.17151234
H        2.78196111       0.01647331       1.41506694
H        1.36850495       2.10286675       0.11236835
15
Frame=16 idx=009329 GeodesicLength=1.926406258054817 rxn_smarts="[C:1]([n:2]1[c:3]([H:11])[c:4]([C:5]([H:12])([H:13])[H:14])[c:6]([H:15])[n:7]1)([H:8])([H:9])[H:10]>>[C:1]([N+:2]([C:3](=[C:4]=[C:6]([C:5]([H:12])([H:13])[H:14])[H:15])[H:11])=[N-:7])([H:8])([H:9])[H:10]"
C       -2.69315097      -0.31629673      -0.14906532
N       -1.30157284       0.02170901       0.15210837
C       -0.26235253      -0.59862661      -0.58916327
C        0.89282941       0.06774722      -0.47881114
C        2.57668615      -0.06928348       0.32606188
C        1.02039579       1.09476615       0.38621517
N       -0.94054738       1.03406818       0.82540356
H       -3.01116139       0.17461329      -1.06986716
H       -3.30374021       0.01316902       0.68751398
H       -2.77955273      -1.39614824      -0.27123481
H       -0.48776355      -1.43302316      -1.23504482
H        3.35515703       0.42851826      -0.25706332
H        2.69107487      -1.14044133       0.15053458
H        2.88237415       0.02161483       1.37199431
H        1.36132419       2.09761360       0.15041802
