13
Frame=0 idx=009465 GeodesicLength=0.0 rxn_smarts="[O:1]([C@@:2]1([H:9])[C:3]([H:10])([H:11])[C@:4]1([O:5][C:6](=[O:7])[H:13])[H:12])[H:8]>>[O:1]([C:2][C@@:4]([C:3]([H:9])([H:10])[H:11])([O:5][C:6](=[O:7])[H:13])[H:12])[H:8]"
O       -0.69287122       1.34070111       0.86413912
C       -0.70523007      -0.01731199       0.99152578
C       -1.26841220      -0.72657062      -0.65338369
C        0.10894161      -0.65062749      -0.11166316
O        0.94117899       0.21743753      -0.85449864
C        2.10823069       0.53081292      -0.28132850
O        2.51182496       0.11038334       0.75976924
H       -1.19840181       1.69459335       1.59751081
H       -1.80299999      -0.49882421       0.60340981
H       -1.72633563      -1.70194425      -0.76787299
H       -1.54030659       0.04590798      -1.36084892
H        0.61521686      -1.57414951       0.14620611
H        2.64916437       1.22959185      -0.93296492
13
Frame=1 idx=009465 GeodesicLength=0.054900430707985545 rxn_smarts="[O:1]([C@@:2]1([H:9])[C:3]([H:10])([H:11])[C@:4]1([O:5][C:6](=[O:7])[H:13])[H:12])[H:8]>>[O:1]([C:2][C@@:4]([C:3]([H:9])([H:10])[H:11])([O:5][C:6](=[O:7])[H:13])[H:12])[H:8]"
O       -0.68845258       1.34509819       0.86188047
C       -0.71296926      -0.01180840       0.98196271
C       -1.27307020      -0.73056420      -0.65820237
C        0.10399849      -0.65199758      -0.11335025
O        0.94073822       0.20883735      -0.86072116
C        2.10209899       0.53219646      -0.28206978
O        2.48561786       0.14679630       0.78027352
H       -1.13911892       1.70074988       1.62966841
H       -1.81862060      -0.51622503       0.60138302
H       -1.71512718      -1.71088339      -0.79082876
H       -1.54377202       0.04080179      -1.36773138
H        0.60892612      -1.57260491       0.15786947
H        2.64975108       1.21960354      -0.94013389
13
Frame=2 idx=009465 GeodesicLength=0.10930720033263373 rxn_smarts="[O:1]([C@@:2]1([H:9])[C:3]([H:10])([H:11])[C@:4]1([O:5][C:6](=[O:7])[H:13])[H:12])[H:8]>>[O:1]([C:2][C@@:4]([C:3]([H:9])([H:10])[H:11])([O:5][C:6](=[O:7])[H:13])[H:12])[H:8]"
O       -0.68337883       1.35008154       0.85881062
C       -0.72103154      -0.00543235       0.97221537
C       -1.27789017      -0.73477553      -0.66259977
C        0.09880148      -0.65377549      -0.11426952
O        0.94060452       0.19873021      -0.86654645
C        2.09631324       0.53201306      -0.28273003
O        2.46153582       0.17877708       0.79739462
H       -1.07671535       1.70680441       1.65725210
H       -1.83424303      -0.53364358       0.59959036
H       -1.70408958      -1.71942372      -0.81318255
H       -1.54687660       0.03515330      -1.37469487
H        0.60154143      -1.57150913       0.17085618
H        2.64542860       1.21700021      -0.94209605
13
Frame=3 idx=009465 GeodesicLength=0.16354776813874347 rxn_smarts="[O:1]([C@@:2]1([H:9])[C:3]([H:10])([H:11])[C@:4]1([O:5][C:6](=[O:7])[H:13])[H:12])[H:8]>>[O:1]([C:2][C@@:4]([C:3]([H:9])([H:10])[H:11])([O:5][C:6](=[O:7])[H:13])[H:12])[H:8]"
O       -0.67900207       1.35550400       0.85633615
C       -0.72994033       0.00143689       0.96272220
C       -1.28276390      -0.73895308      -0.66675103
C        0.09338300      -0.65512477      -0.11446435
O        0.94036865       0.18908776      -0.87146803
C        2.09023654       0.53264829      -0.28254674
O        2.43893678       0.20859188       0.81241512
H       -1.01323954       1.71173537       1.68181009
H       -1.85001673      -0.55202742       0.59809606
H       -1.69243353      -1.72761329      -0.83578805
H       -1.54993851       0.02958487      -1.38145667
H        0.59368403      -1.56992963       0.18458362
H        2.64072562       1.21505912      -0.94348837
13
Frame=4 idx=009465 GeodesicLength=0.21746093939573355 rxn_smarts="[O:1]([C@@:2]1([H:9])[C:3]([H:10])([H:11])[C@:4]1([O:5][C:6](=[O:7])[H:13])[H:12])[H:8]>>[O:1]([C:2][C@@:4]([C:3]([H:9])([H:10])[H:11])([O:5][C:6](=[O:7])[H:13])[H:12])[H:8]"
O       -0.67682173       1.36086781       0.85585840
C       -0.73996892       0.00833096       0.95373866
C       -1.28756246      -0.74267341      -0.67072614
C        0.08785164      -0.65497812      -0.11409797
O        0.93924223       0.18214044      -0.87499815
C        2.08291498       0.53641723      -0.28092638
O        2.41648395       0.23950258       0.82672695
H       -0.95096625       1.71383563       1.70488232
H       -1.86569724      -0.57236048       0.59686377
H       -1.67922674      -1.73501303      -0.85925569
H       -1.55363480       0.02476479      -1.38745022
H        0.58636533      -1.56646515       0.19833013
H        2.64102001       1.20563076      -0.94894567
13
Frame=5 idx=009465 GeodesicLength=0.27119429989210303 rxn_smarts="[O:1]([C@@:2]1([H:9])[C:3]([H:10])([H:11])[C@:4]1([O:5][C:6](=[O:7])[H:13])[H:12])[H:8]>>[O:1]([C:2][C@@:4]([C:3]([H:9])([H:10])[H:11])([O:5][C:6](=[O:7])[H:13])[H:12])[H:8]"
O       -0.67390961       1.36660160       0.85570866
C       -0.75017600       0.01577855       0.94486848
C       -1.29247244      -0.74629557      -0.67421628
C        0.08214267      -0.65479853      -0.11314423
O        0.93827735       0.17475700      -0.87801192
C        2.07578578       0.53973113      -0.27918363
O        2.39577222       0.26740816       0.83896123
H       -0.88874365       1.71509450       1.72359063
H       -1.88102189      -0.59325258       0.59614776
H       -1.66593822      -1.74169203      -0.88242173
H       -1.55715489       0.02007217      -1.39297288
H        0.57823727      -1.56302021       0.21269093
H        2.63920142       1.19961581      -0.95201703
13
Frame=6 idx=009465 GeodesicLength=0.32484067388968296 rxn_smarts="[O:1]([C@@:2]1([H:9])[C:3]([H:10])([H:11])[C@:4]1([O:5][C:6](=[O:7])[H:13])[H:12])[H:8]>>[O:1]([C:2][C@@:4]([C:3]([H:9])([H:10])[H:11])([O:5][C:6](=[O:7])[H:13])[H:12])[H:8]"
O       -0.67119643       1.37265327       0.85624026
C       -0.76087762       0.02371150       0.93616630
C       -1.29745546      -0.74976277      -0.67737562
C        0.07629978      -0.65420356      -0.11164794
O        0.93720081       0.16771311      -0.88040780
C        2.06849583       0.54350736      -0.27711087
O        2.37654612       0.29333092       0.84978808
H       -0.82700840       1.71510156       1.73924195
H       -1.89606995      -0.61499016       0.59583397
H       -1.65209803      -1.74763909      -0.90558798
H       -1.56077543       0.01559074      -1.39812607
H        0.56976850      -1.55908643       0.22757778
H        2.63717028       1.19407355      -0.95459206
13
Frame=7 idx=009465 GeodesicLength=0.37846600585443335 rxn_smarts="[O:1]([C@@:2]1([H:9])[C:3]([H:10])([H:11])[C@:4]1([O:5][C:6](=[O:7])[H:13])[H:12])[H:8]>>[O:1]([C:2][C@@:4]([C:3]([H:9])([H:10])[H:11])([O:5][C:6](=[O:7])[H:13])[H:12])[H:8]"
O       -0.66864953       1.37899839       0.85762776
C       -0.77199769       0.03208579       0.92763907
C       -1.30249019      -0.75304963      -0.68022247
C        0.07034697      -0.65312026      -0.10968807
O        0.93596111       0.16120682      -0.88222413
C        2.06099931       0.54792548      -0.27475122
O        2.35864046       0.31767828       0.85946954
H       -0.76641635       1.71375178       1.75214572
H       -1.91070337      -0.63762893       0.59593331
H       -1.63770428      -1.75280636      -0.92873914
H       -1.56453817       0.01139264      -1.40286680
H        0.56103784      -1.55459063       0.24284254
H        2.63551389       1.18815662      -0.95716611
13
Frame=8 idx=009465 GeodesicLength=0.4321243935054087 rxn_smarts="[O:1]([C@@:2]1([H:9])[C:3]([H:10])([H:11])[C@:4]1([O:5][C:6](=[O:7])[H:13])[H:12])[H:8]>>[O:1]([C:2][C@@:4]([C:3]([H:9])([H:10])[H:11])([O:5][C:6](=[O:7])[H:13])[H:12])[H:8]"
O       -0.66609945       1.38563911       0.85973524
C       -0.78347003       0.04095223       0.91920345
C       -1.30759383      -0.75619281      -0.68276413
C        0.06428929      -0.65162630      -0.10729262
O        0.93462313       0.15503225      -0.88353800
C        2.05339749       0.55276532      -0.27221285
O        2.34219179       0.34026033       0.86807861
H       -0.70704789       1.71118980       1.76239353
H       -1.92488010      -0.66102403       0.59640475
H       -1.62284312      -1.75718312      -0.95178038
H       -1.56841518       0.00738973      -1.40725630
H        0.55199878      -1.54960760       0.25851176
H        2.63384912       1.18240511      -0.95948304
13
Frame=9 idx=009465 GeodesicLength=0.48575214474539513 rxn_smarts="[O:1]([C@@:2]1([H:9])[C:3]([H:10])([H:11])[C@:4]1([O:5][C:6](=[O:7])[H:13])[H:12])[H:8]>>[O:1]([C:2][C@@:4]([C:3]([H:9])([H:10])[H:11])([O:5][C:6](=[O:7])[H:13])[H:12])[H:8]"
O       -0.66346843       1.39247158       0.86251705
C       -0.79526512       0.05027422       0.91076649
C       -1.31271194      -0.75917162      -0.68494862
C        0.05810429      -0.64967459      -0.10447956
O        0.93318388       0.14925307      -0.88432732
C        2.04563360       0.55808788      -0.26952481
O        2.32701218       0.36119232       0.87558189
H       -0.64905154       1.70722137       1.76998834
H       -1.93851080      -0.68515470       0.59720900
H       -1.60751788      -1.76067580      -0.97456169
H       -1.57228892       0.00357816      -1.41120872
H        0.54256045      -1.54403578       0.27455880
H        2.63232022       1.17663391      -0.96157085
13
Frame=10 idx=009465 GeodesicLength=0.5395750084184409 rxn_smarts="[O:1]([C@@:2]1([H:9])[C:3]([H:10])([H:11])[C@:4]1([O:5][C:6](=[O:7])[H:13])[H:12])[H:8]>>[O:1]([C:2][C@@:4]([C:3]([H:9])([H:10])[H:11])([O:5][C:6](=[O:7])[H:13])[H:12])[H:8]"
O       -0.66091603       1.39954077       0.86625588
C       -0.80739497       0.06002355       0.90241782
C       -1.31788796      -0.76202441      -0.68689681
C        0.05183622      -0.64720134      -0.10135292
O        0.93155962       0.14410912      -0.88472416
C        2.03767234       0.56419108      -0.26675011
O        2.31301749       0.38111705       0.88231828
H       -0.59301247       1.70200651       1.77574583
H       -1.95156057      -0.71013246       0.59835607
H       -1.59167621      -1.76337051      -0.99727494
H       -1.57637386      -0.00001166      -1.41483447
H        0.53296557      -1.53782974       0.29084395
H        2.63177084       1.16958204      -0.96410443
13
Frame=11 idx=009465 GeodesicLength=0.593437916120672 rxn_smarts="[O:1]([C@@:2]1([H:9])[C:3]([H:10])([H:11])[C@:4]1([O:5][C:6](=[O:7])[H:13])[H:12])[H:8]>>[O:1]([C:2][C@@:4]([C:3]([H:9])([H:10])[H:11])([O:5][C:6](=[O:7])[H:13])[H:12])[H:8]"
O       -0.65792663       1.40685351       0.87024535
C       -0.81969808       0.07038776       0.89388725
C       -1.32309923      -0.76479764      -0.68854470
C        0.04547156      -0.64457584      -0.09782935
O        0.93003033       0.13863739      -0.88476267
C        2.02982840       0.56996214      -0.26402602
O        2.30059794       0.39868122       0.88817968
H       -0.53798206       1.69590216       1.77893882
H       -1.96404428      -0.73536318       0.59972779
H       -1.57551966      -1.76521352      -1.01957202
H       -1.58035025      -0.00360048      -1.41827713
H        0.52287615      -1.53138711       0.30769143
H        2.62981582       1.16451360      -0.96565843
13
Frame=12 idx=009465 GeodesicLength=0.6474546168889931 rxn_smarts="[O:1]([C@@:2]1([H:9])[C:3]([H:10])([H:11])[C@:4]1([O:5][C:6](=[O:7])[H:13])[H:12])[H:8]>>[O:1]([C:2][C@@:4]([C:3]([H:9])([H:10])[H:11])([O:5][C:6](=[O:7])[H:13])[H:12])[H:8]"
O       -0.65520483       1.41420486       0.87565219
C       -0.83227956       0.08101022       0.88548089
C       -1.32830573      -0.76738380      -0.68998983
C        0.03910054      -0.64115602      -0.09418299
O        0.92813182       0.13446373      -0.88451933
C        2.02157363       0.57724238      -0.26133436
O        2.28870950       0.41669480       0.89348689
H       -0.48632336       1.68827268       1.78150007
H       -1.97571383      -0.76166857       0.60143309
H       -1.55873250      -1.76613608      -1.04181732
H       -1.58472600      -0.00682383      -1.42124450
H        0.51298680      -1.52395280       0.32439185
H        2.63078352       1.15523243      -0.96885666
13
Frame=13 idx=009465 GeodesicLength=0.7015598708453884 rxn_smarts="[O:1]([C@@:2]1([H:9])[C:3]([H:10])([H:11])[C@:4]1([O:5][C:6](=[O:7])[H:13])[H:12])[H:8]>>[O:1]([C:2][C@@:4]([C:3]([H:9])([H:10])[H:11])([O:5][C:6](=[O:7])[H:13])[H:12])[H:8]"
O       -0.65179017       1.42169250       0.88124620
C       -0.84489678       0.09224040       0.87677980
C       -1.33353554      -0.76992101      -0.69117427
C        0.03265991      -0.63766304      -0.09024250
O        0.92644843       0.12979932      -0.88404397
C        2.01361287       0.58395508      -0.25883798
O        2.27816760       0.43273193       0.89804841
H       -0.43605113       1.67982342       1.78205340
H       -1.98680375      -0.78800762       0.60329603
H       -1.54181780      -1.76621121      -1.06348404
H       -1.58890141      -0.01011657      -1.42410351
H        0.50257163      -1.51632150       0.34158670
H        2.63033615       1.14799830      -0.97112427
13
Frame=14 idx=009465 GeodesicLength=0.7557610815034951 rxn_smarts="[O:1]([C@@:2]1([H:9])[C:3]([H:10])([H:11])[C@:4]1([O:5][C:6](=[O:7])[H:13])[H:12])[H:8]>>[O:1]([C:2][C@@:4]([C:3]([H:9])([H:10])[H:11])([O:5][C:6](=[O:7])[H:13])[H:12])[H:8]"
O       -0.64830892       1.42919660       0.88788727
C       -0.85761947       0.10382330       0.86801538
C       -1.33874245      -0.77234352      -0.69218586
C        0.02622963      -0.63360855      -0.08622668
O        0.92456024       0.12591326      -0.88342691
C        2.00544582       0.59159306      -0.25655197
O        2.26817466       0.44883831       0.90205950
H       -0.38879302       1.67018749       1.78215091
H       -1.99705458      -0.81502246       0.60538385
H       -1.52448526      -1.76542212      -1.08485508
H       -1.59331507      -0.01321132      -1.42666790
H        0.49222985      -1.50795281       0.35872228
H        2.63167856       1.13800874      -0.97430478
13
Frame=15 idx=009465 GeodesicLength=0.80999132778376 rxn_smarts="[O:1]([C@@:2]1([H:9])[C:3]([H:10])([H:11])[C@:4]1([O:5][C:6](=[O:7])[H:13])[H:12])[H:8]>>[O:1]([C:2][C@@:4]([C:3]([H:9])([H:10])[H:11])([O:5][C:6](=[O:7])[H:13])[H:12])[H:8]"
O       -0.64440436       1.43670205       0.89520283
C       -0.87031479       0.11586506       0.85901553
C       -1.34392128      -0.77468743      -0.69302016
C        0.01981598      -0.62922269      -0.08213008
O        0.92267474       0.12223599      -0.88272992
C        1.99734267       0.59945923      -0.25458267
O        2.25882595       0.46452798       0.90548423
H       -0.34413053       1.65955921       1.78165576
H       -2.00652696      -0.84232634       0.60762570
H       -1.50695338      -1.76379466      -1.10571897
H       -1.59776718      -0.01624767      -1.42906547
H        0.48177590      -1.49907721       0.37595000
H        2.63358323       1.12700647      -0.97768679
13
Frame=16 idx=009465 GeodesicLength=0.8642237395826541 rxn_smarts="[O:1]([C@@:2]1([H:9])[C:3]([H:10])([H:11])[C@:4]1([O:5][C:6](=[O:7])[H:13])[H:12])[H:8]>>[O:1]([C:2][C@@:4]([C:3]([H:9])([H:10])[H:11])([O:5][C:6](=[O:7])[H:13])[H:12])[H:8]"
O       -0.63988376       1.44419024       0.90304205
C       -0.88288126       0.12840880       0.84968963
C       -1.34906927      -0.77697720      -0.69370392
C        0.01343268      -0.62462143      -0.07798496
O        0.92089712       0.11851560      -0.88201997
C        1.98945176       0.60723388      -0.25299809
O        2.25006106       0.47977571       0.90835681
H       -0.30196603       1.64804248       1.78075540
H       -2.01526311      -0.86971684       0.60998230
H       -1.48938443      -1.76139478      -1.12596243
H       -1.60216504      -0.01929091      -1.43139922
H        0.47114463      -1.48981234       0.39330340
H        2.63562565       1.11564680      -0.98106102
