14
Frame=0 idx=004594 GeodesicLength=0.0 rxn_smarts="[C:1]([C@@:2]1([H:9])[C:3]([H:10])([H:11])[N:4]1[C:5]([H:12])([H:13])[H:14])([H:6])([H:7])[H:8]>>[C:1]([H:6])([H:7])([H:8])[H:10].[C:2]1([H:9])=[C:3]([H:11])[N:4]1[C:5]([H:12])([H:13])[H:14]"
C       -1.61571081       0.28989617      -0.60647517
C       -0.17159609       0.30963087       1.03208789
C       -0.03561473      -1.20559844       1.00631985
N        0.96588972      -0.15470908       0.65498417
C        1.78785587       0.08496983      -0.49836872
H       -2.46840096       0.70944789      -0.07230023
H       -1.08165410       1.08341320      -1.13151604
H       -1.99770650      -0.39291959      -1.37448068
H       -0.55455390       1.24871112       1.39759504
H       -1.05238621      -0.73272442       0.02143137
H        0.24860762      -1.66067462       1.95834346
H        2.00581649       1.14988410      -0.58697388
H        2.71853349      -0.47256048      -0.41086389
H        1.25092006      -0.25676657      -1.38978322
14
Frame=1 idx=004594 GeodesicLength=0.10965104373156638 rxn_smarts="[C:1]([C@@:2]1([H:9])[C:3]([H:10])([H:11])[N:4]1[C:5]([H:12])([H:13])[H:14])([H:6])([H:7])[H:8]>>[C:1]([H:6])([H:7])([H:8])[H:10].[C:2]1([H:9])=[C:3]([H:11])[N:4]1[C:5]([H:12])([H:13])[H:14]"
C       -1.64516026       0.28316627      -0.60257858
C       -0.17016923       0.31511210       1.00958956
C       -0.04770579      -1.19266607       1.02734811
N        0.95566456      -0.18061390       0.60984328
C        1.81969703       0.08466523      -0.50016846
H       -2.50292665       0.68647015      -0.06353183
H       -1.13960305       1.09386916      -1.13027109
H       -2.01719255      -0.39601693      -1.37838977
H       -0.51942828       1.26499531       1.38015635
H       -1.08051205      -0.75925901       0.02552152
H        0.25457709      -1.63930072       1.97689282
H        2.06419406       1.14775773      -0.52688364
H        2.73054430      -0.50447385      -0.40863590
H        1.29802082      -0.20370548      -1.41889235
14
Frame=2 idx=004594 GeodesicLength=0.2214322926563909 rxn_smarts="[C:1]([C@@:2]1([H:9])[C:3]([H:10])([H:11])[N:4]1[C:5]([H:12])([H:13])[H:14])([H:6])([H:7])[H:8]>>[C:1]([H:6])([H:7])([H:8])[H:10].[C:2]1([H:9])=[C:3]([H:11])[N:4]1[C:5]([H:12])([H:13])[H:14]"
C       -1.67928274       0.27486523      -0.59770889
C       -0.16833622       0.32196336       0.98224465
C       -0.05903514      -1.17688431       1.04656968
N        0.94246701      -0.20792736       0.55729182
C        1.85541922       0.08432142      -0.49956513
H       -2.54005391       0.66306931      -0.05188909
H       -1.20392240       1.10069818      -1.13070734
H       -2.04417628      -0.40218074      -1.37851937
H       -0.48192743       1.28260347       1.35631877
H       -1.11109023      -0.78640235       0.03106674
H        0.26350195      -1.61347371       1.99323030
H        2.13101495       1.13973006      -0.45344148
H        2.74125186      -0.54212903      -0.40749980
H        1.35416935      -0.13825351      -1.44739086
14
Frame=3 idx=004594 GeodesicLength=0.3353232616349331 rxn_smarts="[C:1]([C@@:2]1([H:9])[C:3]([H:10])([H:11])[N:4]1[C:5]([H:12])([H:13])[H:14])([H:6])([H:7])[H:8]>>[C:1]([H:6])([H:7])([H:8])[H:10].[C:2]1([H:9])=[C:3]([H:11])[N:4]1[C:5]([H:12])([H:13])[H:14]"
C       -1.71901303       0.26491870      -0.59153571
C       -0.16599122       0.33046838       0.94864196
C       -0.06861911      -1.15756220       1.06265375
N        0.92552650      -0.23632428       0.49497566
C        1.89543145       0.08358142      -0.49549783
H       -2.57993293       0.64014278      -0.03648718
H       -1.27538813       1.10299361      -1.13343997
H       -2.08078893      -0.41205050      -1.37364828
H       -0.44199339       1.30169467       1.32442413
H       -1.14482571      -0.81394720       0.03876888
H        0.27702936      -1.58229708       2.00563070
H        2.20541654       1.12278953      -0.36395118
H        2.75038285      -0.58535553      -0.40761014
H        1.42276576      -0.05905228      -1.47292479
14
Frame=4 idx=004594 GeodesicLength=0.45028142774012336 rxn_smarts="[C:1]([C@@:2]1([H:9])[C:3]([H:10])([H:11])[N:4]1[C:5]([H:12])([H:13])[H:14])([H:6])([H:7])[H:8]>>[C:1]([H:6])([H:7])([H:8])[H:10].[C:2]1([H:9])=[C:3]([H:11])[N:4]1[C:5]([H:12])([H:13])[H:14]"
C       -1.76468065       0.25366481      -0.58359914
C       -0.16310252       0.34087559       0.90745938
C       -0.07484693      -1.13394215       1.07351973
N        0.90420336      -0.26469880       0.42065938
C        1.93934526       0.08167243      -0.48676115
H       -2.62232935       0.61852754      -0.01635856
H       -1.35431797       1.10063566      -1.13845108
H       -2.12803567      -0.42555722      -1.36267842
H       -0.40015939       1.32202569       1.28326837
H       -1.18201158      -0.84125874       0.04946569
H        0.29702531      -1.54526973       2.01142272
H        2.28347886       1.09350815      -0.25804251
H        2.75804689      -0.63249696      -0.40820843
H        1.50738440       0.03231373      -1.49169598
14
Frame=5 idx=004594 GeodesicLength=0.564199601576323 rxn_smarts="[C:1]([C@@:2]1([H:9])[C:3]([H:10])([H:11])[N:4]1[C:5]([H:12])([H:13])[H:14])([H:6])([H:7])[H:8]>>[C:1]([H:6])([H:7])([H:8])[H:10].[C:2]1([H:9])=[C:3]([H:11])[N:4]1[C:5]([H:12])([H:13])[H:14]"
C       -1.81505595       0.24189391      -0.57371821
C       -0.15971801       0.35354840       0.85852292
C       -0.07530788      -1.10555820       1.07680726
N        0.87897446      -0.29062401       0.33444040
C        1.98490656       0.07742728      -0.47250409
H       -2.66629919       0.59801357       0.00868707
H       -1.44016415       1.09523567      -1.14444791
H       -2.18376403      -0.44165880      -1.34597280
H       -0.35773508       1.34333872       1.23329168
H       -1.22123022      -0.86749975       0.06336910
H        0.32490843      -1.50277424       2.00797033
H        2.35813589       1.04955541      -0.13921956
H        2.76395422      -0.68113304      -0.40813259
H        1.60839497       0.13023509      -1.49909358
14
Frame=6 idx=004594 GeodesicLength=0.6750658757540491 rxn_smarts="[C:1]([C@@:2]1([H:9])[C:3]([H:10])([H:11])[N:4]1[C:5]([H:12])([H:13])[H:14])([H:6])([H:7])[H:8]>>[C:1]([H:6])([H:7])([H:8])[H:10].[C:2]1([H:9])=[C:3]([H:11])[N:4]1[C:5]([H:12])([H:13])[H:14]"
C       -1.86634687       0.23061735      -0.56266697
C       -0.15609500       0.36879478       0.80473781
C       -0.06806471      -1.07276190       1.07200781
N        0.85269751      -0.31112302       0.24195723
C        2.02764832       0.06990011      -0.45358885
H       -2.71017341       0.57662579       0.03666281
H       -1.53006639       1.09025892      -1.14870857
H       -2.24071411      -0.45834448      -1.32707925
H       -0.31681759       1.36569083       1.17812528
H       -1.25856408      -0.89218485       0.07926834
H        0.35952096      -1.45647730       1.99563975
H        2.42147066       0.99167145      -0.01596823
H        2.76697109      -0.72884875      -0.40850794
H        1.71853362       0.22618107      -1.49187922
14
Frame=7 idx=004594 GeodesicLength=0.7814333530747313 rxn_smarts="[C:1]([C@@:2]1([H:9])[C:3]([H:10])([H:11])[N:4]1[C:5]([H:12])([H:13])[H:14])([H:6])([H:7])[H:8]>>[C:1]([H:6])([H:7])([H:8])[H:10].[C:2]1([H:9])=[C:3]([H:11])[N:4]1[C:5]([H:12])([H:13])[H:14]"
C       -1.91332793       0.22043936      -0.55176033
C       -0.15271011       0.38623504       0.75106700
C       -0.05398610      -1.03678779       1.06173826
N        0.82883414      -0.32493525       0.15245111
C        2.06313706       0.05934619      -0.43283630
H       -2.75139384       0.55215418       0.06401333
H       -1.61853708       1.08830946      -1.14896198
H       -2.28961847      -0.47363399      -1.31047894
H       -0.27900667       1.38882045       1.12274472
H       -1.28976102      -0.91547943       0.09551666
H        0.39610653      -1.40869668       1.97867077
H        2.46923582       0.92351885       0.10146706
H        2.76545886      -0.77332011      -0.41332460
H        1.82556881       0.31402974      -1.47030678
14
Frame=8 idx=004594 GeodesicLength=0.8832376999824764 rxn_smarts="[C:1]([C@@:2]1([H:9])[C:3]([H:10])([H:11])[N:4]1[C:5]([H:12])([H:13])[H:14])([H:6])([H:7])[H:8]>>[C:1]([H:6])([H:7])([H:8])[H:10].[C:2]1([H:9])=[C:3]([H:11])[N:4]1[C:5]([H:12])([H:13])[H:14]"
C       -1.95319373       0.21172796      -0.54151992
C       -0.14968130       0.40472749       0.70102972
C       -0.03620896      -0.99931867       1.04876513
N        0.80887434      -0.33337420       0.07155520
C        2.09013786       0.04708768      -0.41293118
H       -2.78831795       0.52410748       0.08873770
H       -1.70100178       1.09000411      -1.14396117
H       -2.32633927      -0.48583806      -1.29830517
H       -0.24382836       1.41163480       1.07062582
H       -1.31383496      -0.93777449       0.11097716
H        0.42976113      -1.36183126       1.96051356
H        2.50075777       0.85161306       0.20556347
H        2.76080240      -0.81181649      -0.42236745
H        1.92207280       0.38905058      -1.43868286
14
Frame=9 idx=004594 GeodesicLength=0.9823964648010939 rxn_smarts="[C:1]([C@@:2]1([H:9])[C:3]([H:10])([H:11])[N:4]1[C:5]([H:12])([H:13])[H:14])([H:6])([H:7])[H:8]>>[C:1]([H:6])([H:7])([H:8])[H:10].[C:2]1([H:9])=[C:3]([H:11])[N:4]1[C:5]([H:12])([H:13])[H:14]"
C       -1.98655477       0.20463091      -0.53211847
C       -0.14676619       0.42347338       0.65558237
C       -0.01665868      -0.96161021       1.03457735
N        0.79268259      -0.33841524      -0.00004043
C        2.11002107       0.03410902      -0.39473365
H       -2.82115863       0.49339441       0.11041526
H       -1.77720846       1.09477068      -1.13419160
H       -2.35235064      -0.49436547      -1.29078245
H       -0.21024410       1.43353937       1.02286836
H       -1.33183426      -0.95950603       0.12514627
H        0.45944310      -1.31727550       1.94274325
H        2.51882235       0.78060061       0.29460992
H        2.75492208      -0.84386685      -0.43289269
H        2.00688454       0.45052091      -1.40118350
14
Frame=10 idx=004594 GeodesicLength=1.0796082797629216 rxn_smarts="[C:1]([C@@:2]1([H:9])[C:3]([H:10])([H:11])[N:4]1[C:5]([H:12])([H:13])[H:14])([H:6])([H:7])[H:8]>>[C:1]([H:6])([H:7])([H:8])[H:10].[C:2]1([H:9])=[C:3]([H:11])[N:4]1[C:5]([H:12])([H:13])[H:14]"
C       -2.01446788       0.19889369      -0.52319721
C       -0.14386618       0.44213016       0.61424434
C        0.00310522      -0.92422459       1.01965170
N        0.77933692      -0.34142283      -0.06379364
C        2.12446346       0.02116908      -0.37837119
H       -2.85020522       0.46056305       0.12962769
H       -1.84747188       1.10158651      -1.12008873
H       -2.36989675      -0.49942204      -1.28686285
H       -0.17730135       1.45438389       0.97885554
H       -1.34524472      -0.98107741       0.13806700
H        0.48453376      -1.27537694       1.92554222
H        2.52661673       0.71311088       0.37013439
H        2.74883068      -0.87023824      -0.44295633
H        2.08156722       0.49992479      -1.36085295
14
Frame=11 idx=004594 GeodesicLength=1.1760918647971008 rxn_smarts="[C:1]([C@@:2]1([H:9])[C:3]([H:10])([H:11])[N:4]1[C:5]([H:12])([H:13])[H:14])([H:6])([H:7])[H:8]>>[C:1]([H:6])([H:7])([H:8])[H:10].[C:2]1([H:9])=[C:3]([H:11])[N:4]1[C:5]([H:12])([H:13])[H:14]"
C       -2.03824190       0.19443469      -0.51468106
C       -0.14098541       0.46058361       0.57657937
C        0.02262902      -0.88765716       1.00441353
N        0.76829896      -0.34340156      -0.12121903
C        2.13494747       0.00857672      -0.36370980
H       -2.87618023       0.42654742       0.14674609
H       -1.91291327       1.10980488      -1.10273446
H       -2.38122498      -0.50134348      -1.28584450
H       -0.14486685       1.47433179       0.93821483
H       -1.35510930      -1.00285876       0.14996895
H        0.50565454      -1.23645703       1.90925066
H        2.52683473       0.65037167       0.43416382
H        2.74329892      -0.89216821      -0.45145430
H        2.14785831       0.53923542      -1.31969411
14
Frame=12 idx=004594 GeodesicLength=1.2723634523589742 rxn_smarts="[C:1]([C@@:2]1([H:9])[C:3]([H:10])([H:11])[N:4]1[C:5]([H:12])([H:13])[H:14])([H:6])([H:7])[H:8]>>[C:1]([H:6])([H:7])([H:8])[H:10].[C:2]1([H:9])=[C:3]([H:11])[N:4]1[C:5]([H:12])([H:13])[H:14]"
C       -2.05885673       0.19107259      -0.50643514
C       -0.13809880       0.47883449       0.54199955
C        0.04165056      -0.85198447       0.98895844
N        0.75911021      -0.34487254      -0.17357761
C        2.14252548      -0.00350556      -0.35048179
H       -2.89961590       0.39188575       0.16204723
H       -1.97440071       1.11872417      -1.08284589
H       -2.38804434      -0.50053886      -1.28694715
H       -0.11275942       1.49347141       0.90030588
H       -1.36222282      -1.02501751       0.16105990
H        0.52333224      -1.20030055       1.89374606
H        2.52162565       0.59253538       0.48893488
H        2.73853145      -0.91075164      -0.45808652
H        2.20722311       0.57044734      -1.27867785
14
Frame=13 idx=004594 GeodesicLength=1.3684472404792345 rxn_smarts="[C:1]([C@@:2]1([H:9])[C:3]([H:10])([H:11])[N:4]1[C:5]([H:12])([H:13])[H:14])([H:6])([H:7])[H:8]>>[C:1]([H:6])([H:7])([H:8])[H:10].[C:2]1([H:9])=[C:3]([H:11])[N:4]1[C:5]([H:12])([H:13])[H:14]"
C       -2.07685997       0.18861617      -0.49841041
C       -0.13507864       0.49680197       0.51005789
C        0.06002654      -0.81721662       0.97336743
N        0.75140053      -0.34614985      -0.22172210
C        2.14773440      -0.01495401      -0.33846686
H       -2.92059938       0.35714334       0.17563767
H       -2.03231195       1.12766151      -1.06130852
H       -2.39152012      -0.49745179      -1.28938816
H       -0.08081834       1.51170171       0.86457824
H       -1.36714597      -1.04760485       0.17174385
H        0.53796491      -1.16662427       1.87882288
H        2.51248389       0.53913810       0.53602004
H        2.73413598      -0.92656787      -0.46301197
H        2.26058811       0.59550646      -1.23791998
14
Frame=14 idx=004594 GeodesicLength=1.464367770810982 rxn_smarts="[C:1]([C@@:2]1([H:9])[C:3]([H:10])([H:11])[N:4]1[C:5]([H:12])([H:13])[H:14])([H:6])([H:7])[H:8]>>[C:1]([H:6])([H:7])([H:8])[H:10].[C:2]1([H:9])=[C:3]([H:11])[N:4]1[C:5]([H:12])([H:13])[H:14]"
C       -2.09279332       0.18695247      -0.49040565
C       -0.13196693       0.51464055       0.48023450
C        0.07759792      -0.78322888       0.95748002
N        0.74483921      -0.34728708      -0.26646139
C        2.15117752      -0.02577221      -0.32743351
H       -2.93957722       0.32205969       0.18778997
H       -2.08735200       1.13646022      -1.03783170
H       -2.39236798      -0.49212910      -1.29285156
H       -0.04893509       1.52916253       0.83051767
H       -1.37026763      -1.07068210       0.18186338
H        0.54983448      -1.13512211       1.86412763
H        2.50041403       0.49031536       0.57693645
H        2.73027343      -0.94042939      -0.46581179
H        2.30912357       0.61506005      -1.19815401
14
Frame=15 idx=004594 GeodesicLength=1.5601629143733537 rxn_smarts="[C:1]([C@@:2]1([H:9])[C:3]([H:10])([H:11])[N:4]1[C:5]([H:12])([H:13])[H:14])([H:6])([H:7])[H:8]>>[C:1]([H:6])([H:7])([H:8])[H:10].[C:2]1([H:9])=[C:3]([H:11])[N:4]1[C:5]([H:12])([H:13])[H:14]"
C       -2.10697817       0.18599749      -0.48238350
C       -0.12872621       0.53236079       0.45226641
C        0.09434168      -0.75001864       0.94134938
N        0.73921585      -0.34841362      -0.30831504
C        2.15315072      -0.03594328      -0.31724411
H       -2.95668687       0.28685037       0.19856977
H       -2.13980708       1.14487843      -1.01281497
H       -2.39113666      -0.48476745      -1.29700355
H       -0.01710033       1.54585565       0.79788907
H       -1.37185497      -1.09430510       0.19160300
H        0.55926791      -1.10562742       1.84953750
H        2.48613050       0.44581024       0.61263774
H        2.72672008      -0.95273791      -0.46656854
H        2.35346356       0.63006046      -1.15952318
14
Frame=16 idx=004594 GeodesicLength=1.6558524207127463 rxn_smarts="[C:1]([C@@:2]1([H:9])[C:3]([H:10])([H:11])[N:4]1[C:5]([H:12])([H:13])[H:14])([H:6])([H:7])[H:8]>>[C:1]([H:6])([H:7])([H:8])[H:10].[C:2]1([H:9])=[C:3]([H:11])[N:4]1[C:5]([H:12])([H:13])[H:14]"
C       -2.11966862       0.18568049      -0.47432123
C       -0.12534289       0.55000678       0.42595695
C        0.11025149      -0.71755578       0.92501935
N        0.73434584      -0.34959321      -0.34767881
C        2.15389122      -0.04547375      -0.30779020
H       -2.97208675       0.25162300       0.20799070
H       -2.18993150       1.15275269      -0.98650572
H       -2.38821594      -0.47552200      -1.30162313
H        0.01469330       1.56181799       0.76653683
H       -1.37211772      -1.11851203       0.20109354
H        0.56655936      -1.07796151       1.83494959
H        2.47018383       0.40536195       0.64395036
H        2.72331078      -0.96384641      -0.46540892
H        2.39412760       0.64122178      -1.12216931
