17
Frame=0 idx=008923 GeodesicLength=0.0 rxn_smarts="[C:1]([O:2][C:3]([C@@:4]([O:5][H:14])([C:6]([O:7][H:17])([H:15])[H:16])[H:13])([H:11])[H:12])([H:8])([H:9])[H:10]>>[C:1]([O:2][C:3]([C@@:4]([O:5][H:14])([C:6](=[O:7])[H:15])[H:13])([H:11])[H:12])([H:8])([H:9])[H:10].[H:16][H:17]"
C        2.66800660       0.51547012      -0.10558452
O        1.54030436      -0.09699609       0.46907566
C        0.36615448       0.08938928      -0.28566879
C       -0.77103900      -0.46996449       0.54161828
O       -0.84013570       0.15216414       1.80169808
C       -2.13012861      -0.19033307      -0.10455235
O       -2.30083249       0.85025314      -0.89634511
H        3.51052353       0.33743202       0.56078215
H        2.51883425       1.59594766      -0.21942025
H        2.89404619       0.08741144      -1.08980499
H        0.18296632       1.15183732      -0.48113796
H        0.43131582      -0.43174450      -1.25200794
H       -0.64316600      -1.55632372       0.65978992
H        0.06737281       0.28417658       2.09424241
H       -2.95061369      -0.48377834       0.57073186
H       -2.20822914      -1.35366251      -0.92676867
H       -2.33537966      -0.48127902      -1.33664774
17
Frame=1 idx=008923 GeodesicLength=0.10755156050846502 rxn_smarts="[C:1]([O:2][C:3]([C@@:4]([O:5][H:14])([C:6]([O:7][H:17])([H:15])[H:16])[H:13])([H:11])[H:12])([H:8])([H:9])[H:10]>>[C:1]([O:2][C:3]([C@@:4]([O:5][H:14])([C:6](=[O:7])[H:15])[H:13])([H:11])[H:12])([H:8])([H:9])[H:10].[H:16][H:17]"
C        2.66851174       0.51094375      -0.10939985
O        1.53939454      -0.08944191       0.47506479
C        0.36444147       0.09175176      -0.27991254
C       -0.77219314      -0.46563678       0.54934202
O       -0.84153508       0.16265916       1.80658193
C       -2.13313790      -0.20105986      -0.09643992
O       -2.32722123       0.84841095      -0.86855761
H        3.51184973       0.33810188       0.55728681
H        2.52362019       1.59041961      -0.23759340
H        2.89104193       0.06913936      -1.08835416
H        0.18330133       1.15357361      -0.48083184
H        0.43022989      -0.43517538      -1.24292692
H       -0.63907515      -1.55077363       0.67332160
H        0.06554856       0.29304804       2.10099486
H       -2.94853072      -0.50511103       0.58073019
H       -2.19389238      -1.35116583      -0.96704399
H       -2.32235377      -0.45968371      -1.37226196
17
Frame=2 idx=008923 GeodesicLength=0.21488755161472942 rxn_smarts="[C:1]([O:2][C:3]([C@@:4]([O:5][H:14])([C:6]([O:7][H:17])([H:15])[H:16])[H:13])([H:11])[H:12])([H:8])([H:9])[H:10]>>[C:1]([O:2][C:3]([C@@:4]([O:5][H:14])([C:6](=[O:7])[H:15])[H:13])([H:11])[H:12])([H:8])([H:9])[H:10].[H:16][H:17]"
C        2.66885746       0.50642351      -0.11319842
O        1.53847873      -0.08184530       0.48099179
C        0.36267780       0.09388844      -0.27417751
C       -0.77332307      -0.46150070       0.55717403
O       -0.84290478       0.17327737       1.81139231
C       -2.13616342      -0.21243118      -0.08801496
O       -2.35388883       0.84430411      -0.84136891
H        3.51306315       0.33898011       0.55376473
H        2.52805063       1.58465202      -0.25587949
H        2.88789700       0.05086413      -1.08664802
H        0.18343768       1.15500203      -0.48075932
H        0.42912206      -0.43896670      -1.23374888
H       -0.63484105      -1.54533213       0.68714540
H        0.06373799       0.30207753       2.10769033
H       -2.94609606      -0.52637200       0.59162416
H       -2.17943925      -1.34713050      -1.00783570
H       -2.30866602      -0.43589072      -1.40815154
17
Frame=3 idx=008923 GeodesicLength=0.3223634040532297 rxn_smarts="[C:1]([O:2][C:3]([C@@:4]([O:5][H:14])([C:6]([O:7][H:17])([H:15])[H:16])[H:13])([H:11])[H:12])([H:8])([H:9])[H:10]>>[C:1]([O:2][C:3]([C@@:4]([O:5][H:14])([C:6](=[O:7])[H:15])[H:13])([H:11])[H:12])([H:8])([H:9])[H:10].[H:16][H:17]"
C        2.66903627       0.50190437      -0.11699031
O        1.53755569      -0.07421603       0.48685679
C        0.36085355       0.09577687      -0.26845012
C       -0.77442540      -0.45757024       0.56514971
O       -0.84424128       0.18406777       1.81613163
C       -2.13920808      -0.22452875      -0.07918452
O       -2.38080207       0.83775249      -0.81496083
H        3.51416778       0.34005065       0.55018492
H        2.53211111       1.57864111      -0.27426706
H        2.88459270       0.03259696      -1.08470589
H        0.18336269       1.15609135      -0.48091324
H        0.42796985      -0.44314962      -1.22445222
H       -0.63042562      -1.53999910       0.70134654
H        0.06194562       0.31130510       2.11433738
H       -2.94333005      -0.54759926       0.60352485
H       -2.16487256      -1.34140893      -1.04921150
H       -2.29429019      -0.40971474      -1.44439612
17
Frame=4 idx=008923 GeodesicLength=0.430091707005422 rxn_smarts="[C:1]([O:2][C:3]([C@@:4]([O:5][H:14])([C:6]([O:7][H:17])([H:15])[H:16])[H:13])([H:11])[H:12])([H:8])([H:9])[H:10]>>[C:1]([O:2][C:3]([C@@:4]([O:5][H:14])([C:6](=[O:7])[H:15])[H:13])([H:11])[H:12])([H:8])([H:9])[H:10].[H:16][H:17]"
C        2.66904181       0.49737791      -0.12078579
O        1.53662307      -0.06654930       0.49266562
C        0.35896017       0.09738714      -0.26271876
C       -0.77549290      -0.45387068       0.57330070
O       -0.84555788       0.19508224       1.82078425
C       -2.14226619      -0.23748527      -0.06988176
O       -2.40793834       0.82854713      -0.78952381
H        3.51516466       0.34131463       0.54652396
H        2.53578509       1.57236718      -0.29277590
H        2.88112137       0.01432008      -1.08252462
H        0.18305518       1.15680263      -0.48129417
H        0.42675973      -0.44776700      -1.21501466
H       -0.62576742      -1.53477937       0.71602093
H        0.06015516       0.32079192       2.12093173
H       -2.94023427      -0.56886325       0.61653845
H       -2.15018169      -1.33380042      -1.09124250
H       -2.27922755      -0.38087556      -1.48100366
17
Frame=5 idx=008923 GeodesicLength=0.5370107803566728 rxn_smarts="[C:1]([O:2][C:3]([C@@:4]([O:5][H:14])([C:6]([O:7][H:17])([H:15])[H:16])[H:13])([H:11])[H:12])([H:8])([H:9])[H:10]>>[C:1]([O:2][C:3]([C@@:4]([O:5][H:14])([C:6](=[O:7])[H:15])[H:13])([H:11])[H:12])([H:8])([H:9])[H:10].[H:16][H:17]"
C        2.66889069       0.49281842      -0.12456864
O        1.53565218      -0.05882805       0.49840059
C        0.35701588       0.09873408      -0.25704284
C       -0.77653731      -0.45039380       0.58152705
O       -0.84697615       0.20634018       1.82520079
C       -2.14530432      -0.25142623      -0.06039060
O       -2.43531866       0.81693761      -0.76469111
H        3.51603472       0.34271653       0.54281949
H        2.53913722       1.56580482      -0.31138417
H        2.87752313      -0.00398327      -1.08008279
H        0.18258190       1.15714781      -0.48194831
H        0.42554054      -0.45278589      -1.20548961
H       -0.62083294      -1.52961160       0.73114648
H        0.05821784       0.33064029       2.12734472
H       -2.93672275      -0.59022339       0.63048004
H       -2.13540605      -1.32448718      -1.13368909
H       -2.26349590      -0.34940033      -1.51763198
17
Frame=6 idx=008923 GeodesicLength=0.6441226681760072 rxn_smarts="[C:1]([O:2][C:3]([C@@:4]([O:5][H:14])([C:6]([O:7][H:17])([H:15])[H:16])[H:13])([H:11])[H:12])([H:8])([H:9])[H:10]>>[C:1]([O:2][C:3]([C@@:4]([O:5][H:14])([C:6](=[O:7])[H:15])[H:13])([H:11])[H:12])([H:8])([H:9])[H:10].[H:16][H:17]"
C        2.66856073       0.48822120      -0.12837197
O        1.53465410      -0.05104103       0.50409327
C        0.35499637       0.09975351      -0.25136715
C       -0.77753460      -0.44719804       0.58995171
O       -0.84845755       0.21791877       1.82945504
C       -2.14832383      -0.26652693      -0.05039281
O       -2.46284549       0.80235987      -0.74102707
H        3.51678321       0.34432205       0.53902208
H        2.54210200       1.55892960      -0.33019648
H        2.87376636      -0.02238386      -1.07737375
H        0.18186681       1.15705130      -0.48286687
H        0.42425878      -0.45831068      -1.19580719
H       -0.61553734      -1.52455120       0.74691429
H        0.05617825       0.34092274       2.13365383
H       -2.93286252      -0.61179453       0.64562869
H       -2.12045066      -1.31296018      -1.17684927
H       -2.24715460      -0.31471261      -1.55446634
17
Frame=7 idx=008923 GeodesicLength=0.7516026821185217 rxn_smarts="[C:1]([O:2][C:3]([C@@:4]([O:5][H:14])([C:6]([O:7][H:17])([H:15])[H:16])[H:13])([H:11])[H:12])([H:8])([H:9])[H:10]>>[C:1]([O:2][C:3]([C@@:4]([O:5][H:14])([C:6](=[O:7])[H:15])[H:13])([H:11])[H:12])([H:8])([H:9])[H:10].[H:16][H:17]"
C        2.66804406       0.48357265      -0.13220512
O        1.53362229      -0.04319441       0.50974256
C        0.35289677       0.10041205      -0.24568128
C       -0.77847802      -0.44430569       0.59860109
O       -0.85003527       0.22987731       1.83350073
C       -2.15130224      -0.28291750      -0.03984540
O       -2.49044451       0.78462709      -0.71867595
H        3.51740745       0.34610832       0.53510891
H        2.54466876       1.55172315      -0.34921374
H        2.86983834      -0.04089016      -1.07440887
H        0.18090932       1.15645602      -0.48405268
H        0.42289938      -0.46437522      -1.18593999
H       -0.60982433      -1.51957802       0.76343221
H        0.05399846       0.35173624       2.13982793
H       -2.92865403      -0.63362294       0.66204466
H       -2.10523758      -1.29907024      -1.22078714
H       -2.23030882      -0.27655866      -1.59144793
17
Frame=8 idx=008923 GeodesicLength=0.8594222554522045 rxn_smarts="[C:1]([O:2][C:3]([C@@:4]([O:5][H:14])([C:6]([O:7][H:17])([H:15])[H:16])[H:13])([H:11])[H:12])([H:8])([H:9])[H:10]>>[C:1]([O:2][C:3]([C@@:4]([O:5][H:14])([C:6](=[O:7])[H:15])[H:13])([H:11])[H:12])([H:8])([H:9])[H:10].[H:16][H:17]"
C        2.66733531       0.47885254      -0.13607386
O        1.53255124      -0.03526882       0.51535454
C        0.35071444       0.10065658      -0.23998656
C       -0.77934878      -0.44176942       0.60749660
O       -0.85176985       0.24227714       1.83727148
C       -2.15419039      -0.30083928      -0.02871312
O       -2.51801790       0.76343855      -0.69787462
H        3.51790046       0.34810178       0.53106975
H        2.54681602       1.54412830      -0.36848566
H        2.86575320      -0.05955929      -1.07113998
H        0.17968129       1.15529048      -0.48553575
H        0.42146186      -0.47104525      -1.17587299
H       -0.60358471      -1.51469287       0.78082670
H        0.05160156       0.36321211       2.14580876
H       -2.92407765      -0.65578536       0.67981993
H       -2.08967455      -1.28250574      -1.26554386
H       -2.21315156      -0.23449145      -1.62842136
17
Frame=9 idx=008923 GeodesicLength=0.9663285948377036 rxn_smarts="[C:1]([O:2][C:3]([C@@:4]([O:5][H:14])([C:6]([O:7][H:17])([H:15])[H:16])[H:13])([H:11])[H:12])([H:8])([H:9])[H:10]>>[C:1]([O:2][C:3]([C@@:4]([O:5][H:14])([C:6](=[O:7])[H:15])[H:13])([H:11])[H:12])([H:8])([H:9])[H:10].[H:16][H:17]"
C        2.66646782       0.47402720      -0.13994221
O        1.53140039      -0.02725461       0.52088901
C        0.34847545       0.10054937      -0.23437252
C       -0.78017761      -0.43954267       0.61647210
O       -0.85381872       0.25508930       1.84054840
C       -2.15692826      -0.32029053      -0.01741454
O       -2.54553272       0.73916841      -0.67804605
H        3.51824396       0.35018640       0.52697157
H        2.54867399       1.53612622      -0.38793422
H        2.86155578      -0.07837863      -1.06755584
H        0.17830907       1.15362993      -0.48736172
H        0.41998922      -0.47819972      -1.16571518
H       -0.59686462      -1.50976545       0.79897284
H        0.04879841       0.37543472       2.15139645
H       -2.91902677      -0.67829278       0.69850812
H       -2.07377522      -1.26375580      -1.31063320
H       -2.19579017      -0.18873136      -1.66478301
17
Frame=10 idx=008923 GeodesicLength=1.0734009943140925 rxn_smarts="[C:1]([O:2][C:3]([C@@:4]([O:5][H:14])([C:6]([O:7][H:17])([H:15])[H:16])[H:13])([H:11])[H:12])([H:8])([H:9])[H:10]>>[C:1]([O:2][C:3]([C@@:4]([O:5][H:14])([C:6](=[O:7])[H:15])[H:13])([H:11])[H:12])([H:8])([H:9])[H:10].[H:16][H:17]"
C        2.66541258       0.46907503      -0.14384672
O        1.53018473      -0.01911494       0.52639982
C        0.34616192       0.09995541      -0.22877419
C       -0.78090892      -0.43775983       0.62569196
O       -0.85619212       0.26844278       1.84337754
C       -2.15945959      -0.34171685      -0.00556015
O       -2.57272199       0.71094565      -0.66012318
H        3.51843285       0.35250667       0.52277419
H        2.55012860       1.52763812      -0.40777002
H        2.85724140      -0.09751978      -1.06358339
H        0.17667278       1.15130340      -0.48957111
H        0.41845152      -0.48603515      -1.15537008
H       -0.58946089      -1.50490181       0.81820233
H        0.04557214       0.38860127       2.15665725
H       -2.91358525      -0.70123342       0.71857045
H       -2.05721050      -1.24191567      -1.35654155
H       -2.17871925      -0.13827087      -1.70053315
17
Frame=11 idx=008923 GeodesicLength=1.1807377315193965 rxn_smarts="[C:1]([O:2][C:3]([C@@:4]([O:5][H:14])([C:6]([O:7][H:17])([H:15])[H:16])[H:13])([H:11])[H:12])([H:8])([H:9])[H:10]>>[C:1]([O:2][C:3]([C@@:4]([O:5][H:14])([C:6](=[O:7])[H:15])[H:13])([H:11])[H:12])([H:8])([H:9])[H:10].[H:16][H:17]"
C        2.66416585       0.46397111      -0.14778574
O        1.52889286      -0.01085287       0.53187985
C        0.34377507       0.09882727      -0.22319837
C       -0.78153133      -0.43646847       0.63515344
O       -0.85897346       0.28237422       1.84564118
C       -2.16170624      -0.36531814       0.00682411
O       -2.59935300       0.67854158      -0.64429412
H        3.51845911       0.35504557       0.51847889
H        2.55117620       1.51861809      -0.42799566
H        2.85281884      -0.11700854      -1.05919483
H        0.17477600       1.14823642      -0.49218728
H        0.41684268      -0.49457327      -1.14483418
H       -0.58129844      -1.50006122       0.83861321
H        0.04182305       0.40284711       2.16148424
H       -2.90774994      -0.72453395       0.73999205
H       -2.03975424      -1.21685690      -1.40322476
H       -2.16236302      -0.08278801      -1.73535204
17
Frame=12 idx=008923 GeodesicLength=1.288129290525066 rxn_smarts="[C:1]([O:2][C:3]([C@@:4]([O:5][H:14])([C:6]([O:7][H:17])([H:15])[H:16])[H:13])([H:11])[H:12])([H:8])([H:9])[H:10]>>[C:1]([O:2][C:3]([C@@:4]([O:5][H:14])([C:6](=[O:7])[H:15])[H:13])([H:11])[H:12])([H:8])([H:9])[H:10].[H:16][H:17]"
C        2.66274484       0.45868512      -0.15173563
O        1.52751139      -0.00244842       0.53730406
C        0.34133025       0.09713923      -0.21767952
C       -0.78202993      -0.43570967       0.64480762
O       -0.86227373       0.29689317       1.84717372
C       -2.16356461      -0.39129934       0.01964772
O       -2.62514254       0.64173853      -0.63078018
H        3.51831802       0.35779561       0.51411183
H        2.55185484       1.50898349      -0.44861429
H        2.84833012      -0.13688259      -1.05430058
H        0.17264498       1.14437880      -0.49525771
H        0.41517980      -0.50380562      -1.13414534
H       -0.57230617      -1.49519378       0.86025466
H        0.03741242       0.41829824       2.16571728
H       -2.90152320      -0.74810601       0.76269998
H       -2.02117441      -1.18848243      -1.45052273
H       -2.14731206      -0.02198434      -1.76868090
17
Frame=13 idx=008923 GeodesicLength=1.3945575100145922 rxn_smarts="[C:1]([O:2][C:3]([C@@:4]([O:5][H:14])([C:6]([O:7][H:17])([H:15])[H:16])[H:13])([H:11])[H:12])([H:8])([H:9])[H:10]>>[C:1]([O:2][C:3]([C@@:4]([O:5][H:14])([C:6](=[O:7])[H:15])[H:13])([H:11])[H:12])([H:8])([H:9])[H:10].[H:16][H:17]"
C        2.66120209       0.45318437      -0.15563752
O        1.52602001       0.00611006       0.54264574
C        0.33887001       0.09494423      -0.21231654
C       -0.78241229      -0.43545861       0.65448645
O       -0.86624979       0.31194537       1.84775320
C       -2.16489876      -0.41964646       0.03257922
O       -2.64981374       0.60075274      -0.61936427
H        3.51800942       0.36067986       0.50979457
H        2.55229377       1.49871218      -0.46956200
H        2.84386124      -0.15717471      -1.04885042
H        0.17038702       1.13981717      -0.49886414
H        0.41352829      -0.51362884      -1.12345938
H       -0.56252385      -1.49018820       0.88296378
H        0.03215035       0.43501651       2.16916882
H       -2.89484887      -0.77181659       0.78616723
H       -2.00132799      -1.15716260      -1.49794849
H       -2.13424689       0.04391353      -1.79955624
17
Frame=14 idx=008923 GeodesicLength=1.501034176100021 rxn_smarts="[C:1]([O:2][C:3]([C@@:4]([O:5][H:14])([C:6]([O:7][H:17])([H:15])[H:16])[H:13])([H:11])[H:12])([H:8])([H:9])[H:10]>>[C:1]([O:2][C:3]([C@@:4]([O:5][H:14])([C:6](=[O:7])[H:15])[H:13])([H:11])[H:12])([H:8])([H:9])[H:10].[H:16][H:17]"
C        2.65952821       0.44743391      -0.15950223
O        1.52441934       0.01486854       0.54792806
C        0.33639651       0.09212584      -0.20708863
C       -0.78263246      -0.43584767       0.66426167
O       -0.87098216       0.32759415       1.84731048
C       -2.16558409      -0.45078301       0.04580366
O       -2.67287977       0.55495917      -0.61087266
H        3.51752050       0.36382524       0.50552808
H        2.55243271       1.48768444      -0.49102573
H        2.83944876      -0.17805422      -1.04271229
H        0.16793626       1.13438326      -0.50308531
H        0.41190006      -0.52417537      -1.11272450
H       -0.55178412      -1.48510078       0.90698718
H        0.02593313       0.45319961       2.17178401
H       -2.88784381      -0.79549703       0.81067548
H       -1.97975515      -1.12233351      -1.54573299
H       -2.12405392       0.11571743      -1.82753427
17
Frame=15 idx=008923 GeodesicLength=1.6075137171847926 rxn_smarts="[C:1]([O:2][C:3]([C@@:4]([O:5][H:14])([C:6]([O:7][H:17])([H:15])[H:16])[H:13])([H:11])[H:12])([H:8])([H:9])[H:10]>>[C:1]([O:2][C:3]([C@@:4]([O:5][H:14])([C:6](=[O:7])[H:15])[H:13])([H:11])[H:12])([H:8])([H:9])[H:10].[H:16][H:17]"
C        2.65775643       0.44141200      -0.16328591
O        1.52270333       0.02382163       0.55312271
C        0.33393990       0.08868207      -0.20204939
C       -0.78268118      -0.43689709       0.67403726
O       -0.87656756       0.34378752       1.84566430
C       -2.16547947      -0.48474277       0.05918747
O       -2.69386906       0.50435935      -0.60549462
H        3.51685774       0.36719306       0.50137913
H        2.55234039       1.47586184      -0.51294130
H        2.83514906      -0.19952139      -1.03582829
H        0.16534951       1.12806187      -0.50798929
H        0.41033110      -0.53539916      -1.10201517
H       -0.54010236      -1.47985999       0.93225702
H        0.01864137       0.47289476       2.17339958
H       -2.88057783      -0.81882175       0.83592213
H       -1.95616685      -1.08417575      -1.59356757
H       -2.11762451       0.19334376      -1.85179805
17
Frame=16 idx=008923 GeodesicLength=1.7138183163477523 rxn_smarts="[C:1]([O:2][C:3]([C@@:4]([O:5][H:14])([C:6]([O:7][H:17])([H:15])[H:16])[H:13])([H:11])[H:12])([H:8])([H:9])[H:10]>>[C:1]([O:2][C:3]([C@@:4]([O:5][H:14])([C:6](=[O:7])[H:15])[H:13])([H:11])[H:12])([H:8])([H:9])[H:10].[H:16][H:17]"
C        2.65594173       0.43508908      -0.16693114
O        1.52087122       0.03299495       0.55821284
C        0.33155297       0.08462008      -0.19727703
C       -0.78253969      -0.43861573       0.68369849
O       -0.88311386       0.36047034       1.84264530
C       -2.16441267      -0.52151854       0.07256951
O       -2.71225141       0.44900131      -0.60348528
H        3.51602836       0.37079178       0.49746535
H        2.55210784       1.46317990      -0.53531224
H        2.83107346      -0.22164853      -1.02808220
H        0.16269454       1.12086478      -0.51370327
H        0.40891179      -0.54728045      -1.09144179
H       -0.52750207      -1.47440559       0.95866666
H        0.01013271       0.49414184       2.17387019
H       -2.87313956      -0.84146116       0.86150716
H       -1.93027925      -1.04285507      -1.64117079
H       -2.11607610       0.27663103      -1.87123175
