10
Frame=0 idx=010934 GeodesicLength=0.0 rxn_smarts="[N:1]([c:2]1[n:3][c:4]([H:10])[n:5][n:6][n:7]1)([H:8])[H:9]>>[N:1]([C+:2]([N+:3]#[C:4][H:10])[N-:7][N:6]=[N-:5])([H:8])[H:9]"
N        1.84145725      -0.02789297       0.21768740
C        0.51861676       0.07079656      -0.09457630
N       -0.33365307      -0.87690435       0.04716564
C       -1.54996854      -1.05141978       0.36616707
N       -2.07271196       1.20369799       0.35644797
N       -1.07466513       1.48401918      -0.10277738
N        0.08714988       1.31483742      -0.58910801
H        2.19964066      -0.95535824       0.36200839
H        2.44825431       0.60835280      -0.27121204
H       -2.06412016      -1.77012862      -0.29180273
10
Frame=1 idx=010934 GeodesicLength=0.03599456209311166 rxn_smarts="[N:1]([c:2]1[n:3][c:4]([H:10])[n:5][n:6][n:7]1)([H:8])[H:9]>>[N:1]([C+:2]([N+:3]#[C:4][H:10])[N-:7][N:6]=[N-:5])([H:8])[H:9]"
N        1.84340765      -0.03179809       0.21554354
C        0.51928363       0.07429496      -0.08660548
N       -0.33059685      -0.87875977       0.04061351
C       -1.54815921      -1.04242116       0.36621406
N       -2.07966676       1.18872322       0.34155061
N       -1.07941787       1.49252494      -0.10927625
N        0.09128391       1.32155043      -0.57160490
H        2.19908645      -0.96148193       0.35145763
H        2.45003596       0.60768154      -0.26918982
H       -2.06525690      -1.77031413      -0.27870290
10
Frame=2 idx=010934 GeodesicLength=0.07211388184691578 rxn_smarts="[N:1]([c:2]1[n:3][c:4]([H:10])[n:5][n:6][n:7]1)([H:8])[H:9]>>[N:1]([C+:2]([N+:3]#[C:4][H:10])[N-:7][N:6]=[N-:5])([H:8])[H:9]"
N        1.84531309      -0.03561078       0.21318186
C        0.51989090       0.07764523      -0.07841638
N       -0.32755907      -0.88056559       0.03444180
C       -1.54640333      -1.03356835       0.36604719
N       -2.08633475       1.17397147       0.32633281
N       -1.08411797       1.50100191      -0.11573586
N        0.09520366       1.32821238      -0.55331305
H        2.19845817      -0.96734835       0.34131710
H        2.45166003       0.60673021      -0.26797117
H       -2.06611071      -1.77046813      -0.26588430
10
Frame=3 idx=010934 GeodesicLength=0.1079280442705744 rxn_smarts="[N:1]([c:2]1[n:3][c:4]([H:10])[n:5][n:6][n:7]1)([H:8])[H:9]>>[N:1]([C+:2]([N+:3]#[C:4][H:10])[N-:7][N:6]=[N-:5])([H:8])[H:9]"
N        1.84704349      -0.03929972       0.21071416
C        0.52042201       0.08069592      -0.07036579
N       -0.32453546      -0.88243910       0.02856813
C       -1.54462464      -1.02486019       0.36573003
N       -2.09224156       1.15958060       0.31154005
N       -1.08889801       1.50915118      -0.12272726
N        0.09885688       1.33463667      -0.53454872
H        2.19776469      -0.97289664       0.33151977
H        2.45303787       0.60578895      -0.26702540
H       -2.06682527      -1.77035767      -0.25340496
10
Frame=4 idx=010934 GeodesicLength=0.14381095943063305 rxn_smarts="[N:1]([c:2]1[n:3][c:4]([H:10])[n:5][n:6][n:7]1)([H:8])[H:9]>>[N:1]([C+:2]([N+:3]#[C:4][H:10])[N-:7][N:6]=[N-:5])([H:8])[H:9]"
N        1.84864859      -0.04271983       0.20809959
C        0.52091604       0.08334602      -0.06275215
N       -0.32149037      -0.88447343       0.02324566
C       -1.54294849      -1.01639765       0.36520197
N       -2.09741073       1.14546215       0.29751171
N       -1.09359100       1.51707693      -0.12989486
N        0.10209057       1.34065306      -0.51566046
H        2.19708678      -0.97791297       0.32279425
H        2.45419821       0.60474366      -0.26682227
H       -2.06749959      -1.76977793      -0.24172345
10
Frame=5 idx=010934 GeodesicLength=0.17970516074069937 rxn_smarts="[N:1]([c:2]1[n:3][c:4]([H:10])[n:5][n:6][n:7]1)([H:8])[H:9]>>[N:1]([C+:2]([N+:3]#[C:4][H:10])[N-:7][N:6]=[N-:5])([H:8])[H:9]"
N        1.85011771      -0.04594921       0.20535713
C        0.52137327       0.08562496      -0.05555890
N       -0.31844231      -0.88665838       0.01836463
C       -1.54133880      -1.00811779       0.36452240
N       -2.10192598       1.13166523       0.28403540
N       -1.09817005       1.52477126      -0.13732775
N        0.10496561       1.34632776      -0.49652705
H        2.19642959      -0.98253742       0.31474520
H        2.45513606       0.60373830      -0.26703282
H       -2.06814508      -1.76886471      -0.23057825
10
Frame=6 idx=010934 GeodesicLength=0.2155153587400986 rxn_smarts="[N:1]([c:2]1[n:3][c:4]([H:10])[n:5][n:6][n:7]1)([H:8])[H:9]>>[N:1]([C+:2]([N+:3]#[C:4][H:10])[N-:7][N:6]=[N-:5])([H:8])[H:9]"
N        1.85148212      -0.04902751       0.20247884
C        0.52180268       0.08757315      -0.04872964
N       -0.31541071      -0.88897608       0.01392005
C       -1.53980596      -0.99998758       0.36372507
N       -2.10589605       1.11817562       0.27082601
N       -1.10262402       1.53226329      -0.14496566
N        0.10752488       1.35172643      -0.47699628
H        2.19581922      -0.98684937       0.30716517
H        2.45587659       0.60280429      -0.26759136
H       -2.06876874      -1.76770225      -0.21983219
10
Frame=7 idx=010934 GeodesicLength=0.2512763264776444 rxn_smarts="[N:1]([c:2]1[n:3][c:4]([H:10])[n:5][n:6][n:7]1)([H:8])[H:9]>>[N:1]([C+:2]([N+:3]#[C:4][H:10])[N-:7][N:6]=[N-:5])([H:8])[H:9]"
N        1.85277079      -0.05201862       0.19943164
C        0.52221258       0.08924267      -0.04214348
N       -0.31240911      -0.89138525       0.00991085
C       -1.53836358      -0.99195024       0.36284094
N       -2.10952376       1.10496194       0.25737299
N       -1.10687462       1.53965086      -0.15262932
N        0.10981713       1.35692769      -0.45684158
H        2.19526614      -0.99095813       0.29974956
H        2.45642911       0.60196464      -0.26843121
H       -2.06932468      -1.76643557      -0.20926040
10
Frame=8 idx=010934 GeodesicLength=0.2869919604006346 rxn_smarts="[N:1]([c:2]1[n:3][c:4]([H:10])[n:5][n:6][n:7]1)([H:8])[H:9]>>[N:1]([C+:2]([N+:3]#[C:4][H:10])[N-:7][N:6]=[N-:5])([H:8])[H:9]"
N        1.85399682      -0.05499197       0.19619857
C        0.52260841       0.09066509      -0.03574355
N       -0.30946224      -0.89385477       0.00629538
C       -1.53701059      -0.98395089       0.36192168
N       -2.11292204       1.09199310       0.24325185
N       -1.11087433       1.54699150      -0.16028013
N        0.11188970       1.36199761      -0.43583773
H        2.19478311      -0.99497891       0.29211544
H        2.45681022       0.60131563      -0.26933490
H       -2.06981905      -1.76518637      -0.19858661
10
Frame=9 idx=010934 GeodesicLength=0.32263921612518365 rxn_smarts="[N:1]([c:2]1[n:3][c:4]([H:10])[n:5][n:6][n:7]1)([H:8])[H:9]>>[N:1]([C+:2]([N+:3]#[C:4][H:10])[N-:7][N:6]=[N-:5])([H:8])[H:9]"
N        1.85519741      -0.05802069       0.19271114
C        0.52298928       0.09191258      -0.02926967
N       -0.30659141      -0.89631871       0.00311938
C       -1.53577724      -0.97592067       0.36097868
N       -2.11630383       1.07919703       0.22767896
N       -1.11454471       1.55444043      -0.16763302
N        0.11380480       1.36702683      -0.41361631
H        2.19436609      -0.99902755       0.28389039
H        2.45701217       0.60084267      -0.27033402
H       -2.07015255      -1.76413193      -0.18752554
10
Frame=10 idx=010934 GeodesicLength=0.35824212334698263 rxn_smarts="[N:1]([c:2]1[n:3][c:4]([H:10])[n:5][n:6][n:7]1)([H:8])[H:9]>>[N:1]([C+:2]([N+:3]#[C:4][H:10])[N-:7][N:6]=[N-:5])([H:8])[H:9]"
N        1.85640744      -0.06114623       0.18890795
C        0.52336167       0.09303400      -0.02251541
N       -0.30380291      -0.89873917       0.00043398
C       -1.53468697      -0.96780468       0.36002746
N       -2.11978265       1.06654136       0.21013859
N       -1.11784014       1.56202014      -0.17469282
N        0.11559317       1.37210696      -0.38971684
H        2.19402297      -1.00317291       0.27479788
H        2.45702820       0.60054022      -0.27149452
H       -2.07030077      -1.76337969      -0.17588627
10
Frame=11 idx=010934 GeodesicLength=0.3938355263781585 rxn_smarts="[N:1]([c:2]1[n:3][c:4]([H:10])[n:5][n:6][n:7]1)([H:8])[H:9]>>[N:1]([C+:2]([N+:3]#[C:4][H:10])[N-:7][N:6]=[N-:5])([H:8])[H:9]"
N        1.85754821      -0.06415513       0.18486475
C        0.52372383       0.09384576      -0.01609342
N       -0.30105447      -0.90132125      -0.00167149
C       -1.53374970      -0.95973780       0.35899518
N       -2.12290984       1.05404894       0.19183165
N       -1.12073760       1.56964075      -0.18139813
N        0.11704623       1.37684124      -0.36504357
H        2.19378094      -1.00707799       0.26578301
H        2.45680943       0.60042620      -0.27296755
H       -2.07045702      -1.76251072      -0.16430044
10
Frame=12 idx=010934 GeodesicLength=0.4294524849675068 rxn_smarts="[N:1]([c:2]1[n:3][c:4]([H:10])[n:5][n:6][n:7]1)([H:8])[H:9]>>[N:1]([C+:2]([N+:3]#[C:4][H:10])[N-:7][N:6]=[N-:5])([H:8])[H:9]"
N        1.85864775      -0.06711003       0.18053062
C        0.52407822       0.09439851      -0.00979292
N       -0.29835526      -0.90403352      -0.00312652
C       -1.53298776      -0.95165385       0.35792636
N       -2.12581059       1.04170931       0.17220874
N       -1.12316659       1.57730541      -0.18778473
N        0.11819373       1.38131960      -0.33916080
H        2.19365233      -1.01084662       0.25643005
H        2.45634055       0.60055336      -0.27469557
H       -2.07059239      -1.76164215      -0.15253523
10
Frame=13 idx=010934 GeodesicLength=0.4649752228165279 rxn_smarts="[N:1]([c:2]1[n:3][c:4]([H:10])[n:5][n:6][n:7]1)([H:8])[H:9]>>[N:1]([C+:2]([N+:3]#[C:4][H:10])[N-:7][N:6]=[N-:5])([H:8])[H:9]"
N        1.85971884      -0.07008309       0.17585819
C        0.52441737       0.09470775      -0.00347647
N       -0.29573888      -0.90686107      -0.00381755
C       -1.53243704      -0.94348087       0.35687687
N       -2.12851342       1.02946361       0.15057441
N       -1.12511204       1.58511002      -0.19374292
N        0.11908284       1.38555452      -0.31174235
H        2.19365979      -1.01458943       0.24618510
H        2.45561455       0.60105344      -0.27644579
H       -2.07069201      -1.76087490      -0.14026950
10
Frame=14 idx=010934 GeodesicLength=0.5005186494653289 rxn_smarts="[N:1]([c:2]1[n:3][c:4]([H:10])[n:5][n:6][n:7]1)([H:8])[H:9]>>[N:1]([C+:2]([N+:3]#[C:4][H:10])[N-:7][N:6]=[N-:5])([H:8])[H:9]"
N        1.86081172      -0.07319898       0.17068587
C        0.52474565       0.09484240       0.00331899
N       -0.29323842      -0.90972111      -0.00350565
C       -1.53219517      -0.93507481       0.35591423
N       -2.13122150       1.01716084       0.12532891
N       -1.12641106       1.59323614      -0.19897405
N        0.11977493       1.38967467      -0.28183250
H        2.19381642      -1.01848505       0.23413816
H        2.45458387       0.60202360      -0.27816063
H       -2.07066643      -1.76045770      -0.12691332
10
Frame=15 idx=010934 GeodesicLength=0.5360249963645906 rxn_smarts="[N:1]([c:2]1[n:3][c:4]([H:10])[n:5][n:6][n:7]1)([H:8])[H:9]>>[N:1]([C+:2]([N+:3]#[C:4][H:10])[N-:7][N:6]=[N-:5])([H:8])[H:9]"
N        1.86178980      -0.07614897       0.16523261
C        0.52503593       0.09457761       0.00970658
N       -0.29077856      -0.91292869      -0.00202145
C       -1.53221044      -0.92665081       0.35495513
N       -2.13316951       1.00498714       0.09903784
N       -1.12716180       1.60130773      -0.20391099
N        0.11997739       1.39308949      -0.25112777
H        2.19414148      -1.02206778       0.22159283
H        2.45319734       0.60353371      -0.27981028
H       -2.07082163      -1.75969942      -0.11365451
10
Frame=16 idx=010934 GeodesicLength=0.5715538242911048 rxn_smarts="[N:1]([c:2]1[n:3][c:4]([H:10])[n:5][n:6][n:7]1)([H:8])[H:9]>>[N:1]([C+:2]([N+:3]#[C:4][H:10])[N-:7][N:6]=[N-:5])([H:8])[H:9]"
N        1.86272362      -0.07904831       0.15932833
C        0.52529107       0.09399922       0.01616796
N       -0.28839003      -0.91640478       0.00095395
C       -1.53261289      -0.91806621       0.35403623
N       -2.13458348       0.99276779       0.06986278
N       -1.12721267       1.60961843      -0.20785886
N        0.11975291       1.39591418      -0.21886446
H        2.19466198      -1.02551073       0.20770514
H        2.45143317       0.60563759      -0.28143013
H       -2.07106368      -1.75890718      -0.09990095
