12
Frame=0 idx=004928 GeodesicLength=0.0 rxn_smarts="[O:1]=[C:2]1[C:3]([H:7])([H:8])[C:4]([H:9])([H:10])[O:5][C:6]1([H:11])[H:12]>>[H:9][H:10].[O:1]=[C:2]1[C:3]([H:7])([H:8])[C-:4]=[O+:5][C:6]1([H:11])[H:12]"
O        0.68268688       2.01643905       0.87475777
C        0.40652016       1.01502876       0.27944955
C       -0.92673873       0.58932879      -0.29461065
C       -0.74685170      -0.87555000      -0.62641561
O        0.56699170      -1.11354600      -0.69822594
C        1.36211727      -0.12222310      -0.03870942
H       -1.06630973       1.10930913      -1.24941025
H       -1.76959425       0.83503731       0.34584653
H       -1.11060637      -1.41672845       1.01917569
H       -1.34992401      -1.68335393       0.20232241
H        2.17473650       0.19858050      -0.69112334
H        1.77697228      -0.55232202       0.87694331
12
Frame=1 idx=004928 GeodesicLength=0.051731152818673645 rxn_smarts="[O:1]=[C:2]1[C:3]([H:7])([H:8])[C:4]([H:9])([H:10])[O:5][C:6]1([H:11])[H:12]>>[H:9][H:10].[O:1]=[C:2]1[C:3]([H:7])([H:8])[C-:4]=[O+:5][C:6]1([H:11])[H:12]"
O        0.69192627       2.03101094       0.85540252
C        0.41224302       1.02170180       0.27517058
C       -0.92362269       0.59189982      -0.29004741
C       -0.74323597      -0.87420443      -0.61390872
O        0.57155986      -1.11109575      -0.69324192
C        1.36659603      -0.11823619      -0.03647999
H       -1.07370772       1.10973318      -1.24420151
H       -1.76166997       0.83699966       0.35734441
H       -1.12506909      -1.43866334       1.00981063
H       -1.37572430      -1.70389895       0.18762132
H        2.18039077       0.19789095      -0.68968367
H        1.78031378      -0.54313768       0.88221375
12
Frame=2 idx=004928 GeodesicLength=0.10344108926445869 rxn_smarts="[O:1]=[C:2]1[C:3]([H:7])([H:8])[C:4]([H:9])([H:10])[O:5][C:6]1([H:11])[H:12]>>[H:9][H:10].[O:1]=[C:2]1[C:3]([H:7])([H:8])[C-:4]=[O+:5][C:6]1([H:11])[H:12]"
O        0.70124880       2.04570075       0.83543624
C        0.41812918       1.02857908       0.27061969
C       -0.92042519       0.59441783      -0.28518510
C       -0.73953287      -0.87301125      -0.60060410
O        0.57619034      -1.10867323      -0.68784232
C        1.37121241      -0.11411690      -0.03417869
H       -1.08134859       1.10976969      -1.23869705
H       -1.75340219       0.83900921       0.36933343
H       -1.14023493      -1.46124849       0.99993004
H       -1.40183802      -1.72405458       0.17189356
H        2.18611151       0.19713487      -0.68831950
H        1.78388954      -0.53350697       0.88761379
12
Frame=3 idx=004928 GeodesicLength=0.15510875564965695 rxn_smarts="[O:1]=[C:2]1[C:3]([H:7])([H:8])[C:4]([H:9])([H:10])[O:5][C:6]1([H:11])[H:12]>>[H:9][H:10].[O:1]=[C:2]1[C:3]([H:7])([H:8])[C-:4]=[O+:5][C:6]1([H:11])[H:12]"
O        0.71061306       2.06045115       0.81492057
C        0.42416935       1.03564816       0.26578277
C       -0.91714660       0.59687526      -0.28002820
C       -0.73574304      -0.87198298      -0.58644619
O        0.58087456      -1.10629121      -0.68200599
C        1.37596596      -0.10986474      -0.03181882
H       -1.08921310       1.10938896      -1.23290310
H       -1.74479490       0.84108668       0.38178223
H       -1.15609985      -1.48444019       0.98953582
H       -1.42822584      -1.74376877       0.15512272
H        2.19187917       0.19631770      -0.68706040
H        1.78772124      -0.52342001       0.89311859
12
Frame=4 idx=004928 GeodesicLength=0.20671376723582804 rxn_smarts="[O:1]=[C:2]1[C:3]([H:7])([H:8])[C:4]([H:9])([H:10])[O:5][C:6]1([H:11])[H:12]>>[H:9][H:10].[O:1]=[C:2]1[C:3]([H:7])([H:8])[C-:4]=[O+:5][C:6]1([H:11])[H:12]"
O        0.71997210       2.07519454       0.79394616
C        0.43035057       1.04289122       0.26065115
C       -0.91378832       0.59926460      -0.27458882
C       -0.73186985      -0.87113406      -0.57137271
O        0.58560077      -1.10396251      -0.67571581
C        1.38085565      -0.10547981      -0.02941867
H       -1.09727103       1.10855918      -1.22683837
H       -1.73586136       0.84326022       0.39464029
H       -1.17265335      -1.50818653       0.97863974
H       -1.45484114      -1.76298583       0.13730678
H        2.19766952       0.19545168      -0.68594402
H        1.79183644      -0.51287270       0.89869428
12
Frame=5 idx=004928 GeodesicLength=0.2582161299837513 rxn_smarts="[O:1]=[C:2]1[C:3]([H:7])([H:8])[C:4]([H:9])([H:10])[O:5][C:6]1([H:11])[H:12]>>[H:9][H:10].[O:1]=[C:2]1[C:3]([H:7])([H:8])[C-:4]=[O+:5][C:6]1([H:11])[H:12]"
O        0.72927236       2.08986185       0.77260925
C        0.43665164       1.05028093       0.25522901
C       -0.91035070       0.60157876      -0.26888085
C       -0.72791667      -0.87047571      -0.55531602
O        0.59035079      -1.10169465      -0.66896581
C        1.38587082      -0.10096666      -0.02699825
H       -1.10547660       1.10724587      -1.22052344
H       -1.72661951       0.84556617       0.40784480
H       -1.18986821      -1.53241994       0.96725632
H       -1.48161012      -1.78165021       0.11845306
H        2.20344594       0.19454567      -0.68500618
H        1.79625025      -0.50187208       0.90429812
12
Frame=6 idx=004928 GeodesicLength=0.3096003477956823 rxn_smarts="[O:1]=[C:2]1[C:3]([H:7])([H:8])[C:4]([H:9])([H:10])[O:5][C:6]1([H:11])[H:12]>>[H:9][H:10].[O:1]=[C:2]1[C:3]([H:7])([H:8])[C-:4]=[O+:5][C:6]1([H:11])[H:12]"
O        0.73846152       2.10437788       0.75104178
C        0.44305154       1.05778748       0.24952692
C       -0.90683879       0.60381046      -0.26292772
C       -0.72388988      -0.87002292      -0.53820147
O        0.59510840      -1.09950199      -0.66174129
C        1.39101080      -0.09632788      -0.02458300
H       -1.11377865       1.10541733      -1.21399792
H       -1.71710574       0.84804567       0.42131219
H       -1.20772813      -1.55707825       0.95541143
H       -1.50847323      -1.79970432       0.09858086
H        2.20917465       0.19362278      -0.68430187
H        1.80100750      -0.49042623       0.90988009
12
Frame=7 idx=004928 GeodesicLength=0.360835451826675 rxn_smarts="[O:1]=[C:2]1[C:3]([H:7])([H:8])[C:4]([H:9])([H:10])[O:5][C:6]1([H:11])[H:12]>>[H:9][H:10].[O:1]=[C:2]1[C:3]([H:7])([H:8])[C-:4]=[O+:5][C:6]1([H:11])[H:12]"
O        0.74748824       2.11867219       0.72937608
C        0.44952398       1.06537480       0.24356810
C       -0.90325491       0.60595077      -0.25675283
C       -0.71979572      -0.86978698      -0.51995042
O        0.59984889      -1.09739380      -0.65403733
C        1.39626423      -0.09156882      -0.02219876
H       -1.12211341       1.10303543      -1.20730174
H       -1.70735693       0.85074387       0.43495099
H       -1.22620081      -1.58208953       0.94313068
H       -1.53535019      -1.81709023       0.07771357
H        2.21480889       0.19270266      -0.68388249
H        1.80613773      -0.47855036       0.91538416
12
Frame=8 idx=004928 GeodesicLength=0.41193418820848016 rxn_smarts="[O:1]=[C:2]1[C:3]([H:7])([H:8])[C:4]([H:9])([H:10])[O:5][C:6]1([H:11])[H:12]>>[H:9][H:10].[O:1]=[C:2]1[C:3]([H:7])([H:8])[C-:4]=[O+:5][C:6]1([H:11])[H:12]"
O        0.75638036       2.13281105       0.70745200
C        0.45606474       1.07303585       0.23735230
C       -0.89960320       0.60798547      -0.25029779
C       -0.71561661      -0.86976278      -0.50047327
O        0.60456932      -1.09538811      -0.64577461
C        1.40163405      -0.08669240      -0.01982439
H       -1.13052023       1.10006608      -1.20036741
H       -1.69735163       0.85366902       0.44883789
H       -1.24535783      -1.60750431       0.93031116
H       -1.56220577      -1.83377035       0.05570324
H        2.22033702       0.19175050      -0.68375068
H        1.81166977      -0.46620001       0.92083155
12
Frame=9 idx=004928 GeodesicLength=0.4629146751248631 rxn_smarts="[O:1]=[C:2]1[C:3]([H:7])([H:8])[C:4]([H:9])([H:10])[O:5][C:6]1([H:11])[H:12]>>[H:9][H:10].[O:1]=[C:2]1[C:3]([H:7])([H:8])[C-:4]=[O+:5][C:6]1([H:11])[H:12]"
O        0.76513393       2.14679398       0.68525851
C        0.46266412       1.08075320       0.23088858
C       -0.89588965       0.60989925      -0.24354214
C       -0.71135193      -0.86995701      -0.47966647
O        0.60925214      -1.09350077      -0.63690491
C        1.40712194      -0.08169895      -0.01746365
H       -1.13899279       1.09646120      -1.19318658
H       -1.68710055       0.85685101       0.46297177
H       -1.26523714      -1.63331769       0.91690766
H       -1.58897914      -1.84969306       0.03247268
H        2.22573649       0.19076049      -0.68394414
H        1.81764259      -0.45335165       0.92620869
12
Frame=10 idx=004928 GeodesicLength=0.5137273899713265 rxn_smarts="[O:1]=[C:2]1[C:3]([H:7])([H:8])[C:4]([H:9])([H:10])[O:5][C:6]1([H:11])[H:12]>>[H:9][H:10].[O:1]=[C:2]1[C:3]([H:7])([H:8])[C-:4]=[O+:5][C:6]1([H:11])[H:12]"
O        0.77371675       2.16060048       0.66278776
C        0.46929633       1.08849845       0.22418897
C       -0.89211684       0.61167813      -0.23646183
C       -0.70698890      -0.87036978      -0.45739977
O        0.61387653      -1.09175054      -0.62736450
C        1.41271410      -0.07659940      -0.01512340
H       -1.14751263       1.09216570      -1.18573846
H       -1.67661197       0.86033638       0.47733501
H       -1.28585440      -1.65949846       0.90285748
H       -1.61555807      -1.86477869       0.00794027
H        2.23095258       0.18970985      -0.68450161
H        1.82408651      -0.43999213       0.93148007
12
Frame=11 idx=004928 GeodesicLength=0.5644408689822755 rxn_smarts="[O:1]=[C:2]1[C:3]([H:7])([H:8])[C:4]([H:9])([H:10])[O:5][C:6]1([H:11])[H:12]>>[H:9][H:10].[O:1]=[C:2]1[C:3]([H:7])([H:8])[C-:4]=[O+:5][C:6]1([H:11])[H:12]"
O        0.78217316       2.17430578       0.63984722
C        0.47596943       1.09627603       0.21724142
C       -0.88829472       0.61329915      -0.22897806
C       -0.70251836      -0.87100470      -0.43352279
O        0.61843240      -1.09016905      -0.61703465
C        1.41842651      -0.07138961      -0.01278090
H       -1.15614419       1.08711513      -1.17794542
H       -1.66586325       0.86414037       0.49203367
H       -1.30733082      -1.68611795       0.88801550
H       -1.64189328      -1.87896723      -0.01810460
H        2.23598302       0.18855794      -0.68544722
H        1.83106012      -0.42604587       0.93667581
12
Frame=12 idx=004928 GeodesicLength=0.6150541324728094 rxn_smarts="[O:1]=[C:2]1[C:3]([H:7])([H:8])[C:4]([H:9])([H:10])[O:5][C:6]1([H:11])[H:12]>>[H:9][H:10].[O:1]=[C:2]1[C:3]([H:7])([H:8])[C-:4]=[O+:5][C:6]1([H:11])[H:12]"
O        0.79053173       2.18798046       0.61616193
C        0.48268124       1.10408394       0.21001971
C       -0.88442586       0.61473514      -0.22097746
C       -0.69791733      -0.87185454      -0.40783398
O        0.62290028      -1.08878712      -0.60575879
C        1.42425346      -0.06607234      -0.01040403
H       -1.16496308       1.08121767      -1.16967963
H       -1.65479465       0.86828938       0.50721513
H       -1.32979488      -1.71322953       0.87217118
H       -1.66785810      -1.89216599      -0.04594344
H        2.24078930       0.18722174      -0.68679627
H        1.83859790      -0.41141881       0.94182564
12
Frame=13 idx=004928 GeodesicLength=0.6655208881390333 rxn_smarts="[O:1]=[C:2]1[C:3]([H:7])([H:8])[C:4]([H:9])([H:10])[O:5][C:6]1([H:11])[H:12]>>[H:9][H:10].[O:1]=[C:2]1[C:3]([H:7])([H:8])[C-:4]=[O+:5][C:6]1([H:11])[H:12]"
O        0.79872505       2.20152836       0.59185168
C        0.48939094       1.11187255       0.20255185
C       -0.88052067       0.61596134      -0.21245911
C       -0.69319012      -0.87292736      -0.38012864
O        0.62722932      -1.08762204      -0.59348491
C        1.43017105      -0.06066521      -0.00802453
H       -1.17390745       1.07437472      -1.16097214
H       -1.64346267       0.87286591       0.52278304
H       -1.35321362      -1.74074106       0.85528161
H       -1.69325650      -1.90421942      -0.07561877
H        2.24528847       0.18569148      -0.68863068
H        1.84674622      -0.39611926       0.94685062
12
Frame=14 idx=004928 GeodesicLength=0.7158832808480254 rxn_smarts="[O:1]=[C:2]1[C:3]([H:7])([H:8])[C:4]([H:9])([H:10])[O:5][C:6]1([H:11])[H:12]>>[H:9][H:10].[O:1]=[C:2]1[C:3]([H:7])([H:8])[C-:4]=[O+:5][C:6]1([H:11])[H:12]"
O        0.80678177       2.21501352       0.56662475
C        0.49609196       1.11963326       0.19482750
C       -0.87660025       0.61695225      -0.20329601
C       -0.68833572      -0.87421519      -0.35012061
O        0.63137475      -1.08672142      -0.58000168
C        1.43617806      -0.05517969      -0.00560936
H       -1.18306231       1.06648402      -1.15169279
H       -1.63183409       0.87793115       0.53887294
H       -1.37773606      -1.76868920       0.83709098
H       -1.71786843      -1.91502197      -0.10746178
H        2.24941704       0.18386918      -0.69099904
H        1.85559328      -0.38005591       0.95176508
12
Frame=15 idx=004928 GeodesicLength=0.7661513534848948 rxn_smarts="[O:1]=[C:2]1[C:3]([H:7])([H:8])[C:4]([H:9])([H:10])[O:5][C:6]1([H:11])[H:12]>>[H:9][H:10].[O:1]=[C:2]1[C:3]([H:7])([H:8])[C-:4]=[O+:5][C:6]1([H:11])[H:12]"
O        0.81470484       2.22846655       0.54019403
C        0.50277314       1.12735585       0.18679489
C       -0.87267373       0.61765768      -0.19333644
C       -0.68333488      -0.87572286      -0.31745291
O        0.63529525      -1.08615287      -0.56504814
C        1.44226504      -0.04962718      -0.00313792
H       -1.19251668       1.05737541      -1.14168373
H       -1.61985918       0.88354219       0.55564733
H       -1.40353035      -1.79709851       0.81728348
H       -1.74143898      -1.92434934      -0.14185292
H        2.25309620       0.18163687      -0.69397736
H        1.86521933      -0.36308380       0.95656969
12
Frame=16 idx=004928 GeodesicLength=0.8163424497971336 rxn_smarts="[O:1]=[C:2]1[C:3]([H:7])([H:8])[C:4]([H:9])([H:10])[O:5][C:6]1([H:11])[H:12]>>[H:9][H:10].[O:1]=[C:2]1[C:3]([H:7])([H:8])[C-:4]=[O+:5][C:6]1([H:11])[H:12]"
O        0.82248905       2.24190590       0.51219589
C        0.50941064       1.13501431       0.17840813
C       -0.86876852       0.61802487      -0.18239618
C       -0.67819072      -0.87744407      -0.28169315
O        0.63891652      -1.08598837      -0.54831280
C        1.44840818      -0.04403341      -0.00057947
H       -1.20238291       1.04686049      -1.13074905
H       -1.60748291       0.88978910       0.57329534
H       -1.43076546      -1.82593063       0.79546936
H       -1.76355404      -1.93196325      -0.17924613
H        2.25620736       0.17882808      -0.69765082
H        1.87571281      -0.34506301       0.96125887
