8
Frame=0 idx=004641 GeodesicLength=0.0 rxn_smarts="[C:1]([C:2](=[O:3])[C:4]#[N:5])([H:6])([H:7])[H:8]>>[C:1]([C:2](=[O:3])[N+:5]#[C-:4])([H:6])([H:7])[H:8]"
C       -0.85821314      -0.30966503       0.04705198
C        0.27163184       0.64948169      -0.00330693
O        0.33688476       1.80409873       0.09363593
C        1.75034475      -0.20391888      -0.74827158
N        1.85142512      -0.29176928       0.42284448
H       -1.79172202       0.24281142       0.13496124
H       -0.85022108      -0.92461240      -0.85151875
H       -0.71013020      -0.96642626       0.90460362
8
Frame=1 idx=004641 GeodesicLength=0.3044823844298286 rxn_smarts="[C:1]([C:2](=[O:3])[C:4]#[N:5])([H:6])([H:7])[H:8]>>[C:1]([C:2](=[O:3])[N+:5]#[C-:4])([H:6])([H:7])[H:8]"
C       -0.87015418      -0.30516578       0.04446766
C        0.27098342       0.64127018      -0.01653169
O        0.31940010       1.79771340       0.09151542
C        1.76096769      -0.18920880      -0.77273852
N        1.91925684      -0.30473708       0.46202585
H       -1.80282105       0.24763990       0.14089845
H       -0.87050027      -0.92405511      -0.85154790
H       -0.72713255      -0.96345673       0.90191073
8
Frame=2 idx=004641 GeodesicLength=0.6090091787499143 rxn_smarts="[C:1]([C:2](=[O:3])[C:4]#[N:5])([H:6])([H:7])[H:8]>>[C:1]([C:2](=[O:3])[N+:5]#[C-:4])([H:6])([H:7])[H:8]"
C       -0.88296599      -0.30078614       0.04142108
C        0.26949279       0.63252816      -0.03125153
O        0.30265831       1.79022561       0.09007641
C        1.77083986      -0.17362126      -0.79888132
N        1.99131866      -0.31714048       0.50447707
H       -1.81438909       0.25280907       0.14692467
H       -0.89250762      -0.92385638      -0.85176512
H       -0.74444692      -0.96015857       0.89899876
8
Frame=3 idx=004641 GeodesicLength=0.9136306443804266 rxn_smarts="[C:1]([C:2](=[O:3])[C:4]#[N:5])([H:6])([H:7])[H:8]>>[C:1]([C:2](=[O:3])[N+:5]#[C-:4])([H:6])([H:7])[H:8]"
C       -0.89679136      -0.29666859       0.03774477
C        0.26695038       0.62312440      -0.04778796
O        0.28706083       1.78141494       0.08959134
C        1.77974102      -0.15679952      -0.82722746
N        2.06814680      -0.32886572       0.55097233
H       -1.82637662       0.25845597       0.15301666
H       -0.91664275      -0.92426634      -0.85222248
H       -0.76208831      -0.95639515       0.89591279
8
Frame=4 idx=004641 GeodesicLength=1.2184027550937957 rxn_smarts="[C:1]([C:2](=[O:3])[C:4]#[N:5])([H:6])([H:7])[H:8]>>[C:1]([C:2](=[O:3])[N+:5]#[C-:4])([H:6])([H:7])[H:8]"
C       -0.91181245      -0.29294239       0.03325962
C        0.26313570       0.61289783      -0.06651265
O        0.27303776       1.77097881       0.09042881
C        1.78735250      -0.13856251      -0.85848620
N        2.15048548      -0.33957202       0.60252357
H       -1.83873755       0.26476435       0.15916543
H       -0.94339972      -0.92547260      -0.85299717
H       -0.78006172      -0.95209146       0.89261860
8
Frame=5 idx=004641 GeodesicLength=1.5234013795777175 rxn_smarts="[C:1]([C:2](=[O:3])[C:4]#[N:5])([H:6])([H:7])[H:8]>>[C:1]([C:2](=[O:3])[N+:5]#[C-:4])([H:6])([H:7])[H:8]"
C       -0.92826160      -0.28971332       0.02776315
C        0.25781420       0.60165300      -0.08788646
O        0.26109991       1.75845509       0.09321018
C        1.79319750      -0.11893912      -0.89368250
N        2.23935347      -0.34860436       0.66044816
H       -1.85142957       0.27199247       0.16530648
H       -0.97337350      -0.92763613      -0.85416327
H       -0.79840042      -0.94720763       0.88900426
8
Frame=6 idx=004641 GeodesicLength=1.8287529561362854 rxn_smarts="[C:1]([C:2](=[O:3])[C:4]#[N:5])([H:6])([H:7])[H:8]>>[C:1]([C:2](=[O:3])[N+:5]#[C-:4])([H:6])([H:7])[H:8]"
C       -0.94644427      -0.28704672       0.02100384
C        0.25073605       0.58913826      -0.11250612
O        0.25194328       1.74308052       0.09894584
C        1.79650464      -0.09841740      -0.93429084
N        2.33621015      -0.35464986       0.72657517
H       -1.86440052       0.28050998       0.17138581
H       -1.00737495      -0.93077527      -0.85587259
H       -0.81717438      -0.94183950       0.88475889
8
Frame=7 idx=004641 GeodesicLength=2.1347147425773514 rxn_smarts="[C:1]([C:2](=[O:3])[C:4]#[N:5])([H:6])([H:7])[H:8]>>[C:1]([C:2](=[O:3])[N+:5]#[C-:4])([H:6])([H:7])[H:8]"
C       -0.96679146      -0.28494255       0.01264188
C        0.24164213       0.57497726      -0.14109489
O        0.24667625       1.72351921       0.10920194
C        1.79598184      -0.07834090      -0.98244922
N        2.44324740      -0.35513112       0.80358096
H       -1.87755461       0.29086954       0.17750432
H       -1.04666300      -0.93450917      -0.85853108
H       -0.83653856      -0.93644226       0.87914608
8
Frame=8 idx=004641 GeodesicLength=2.4418757431664764 rxn_smarts="[C:1]([C:2](=[O:3])[C:4]#[N:5])([H:6])([H:7])[H:8]>>[C:1]([C:2](=[O:3])[N+:5]#[C-:4])([H:6])([H:7])[H:8]"
C       -0.98999523      -0.28330363       0.00218392
C        0.23033148       0.55840817      -0.17434505
O        0.24726448       1.69733090       0.12601682
C        1.78949257      -0.06163812      -1.04119646
N        2.56396300      -0.34495170       0.89570523
H       -1.89060159       0.30397531       0.18454572
H       -1.09361649      -0.93729673      -0.86331238
H       -0.85683821      -0.93252420       0.87040220
8
Frame=9 idx=004641 GeodesicLength=2.7516688721052733 rxn_smarts="[C:1]([C:2](=[O:3])[C:4]#[N:5])([H:6])([H:7])[H:8]>>[C:1]([C:2](=[O:3])[N+:5]#[C-:4])([H:6])([H:7])[H:8]"
C       -1.01737629      -0.28189484      -0.01114948
C        0.21698619       0.53730198      -0.21258702
O        0.25741019       1.65984233       0.15087811
C        1.77374657      -0.05449854      -1.11455968
N        2.70433204      -0.31338860       1.01056254
H       -1.90239275       0.32147251       0.19657966
H       -1.15390109      -0.93403834      -0.87365208
H       -0.87880485      -0.93479650       0.85392794
8
Frame=10 idx=004641 GeodesicLength=3.067630120362174 rxn_smarts="[C:1]([C:2](=[O:3])[C:4]#[N:5])([H:6])([H:7])[H:8]>>[C:1]([C:2](=[O:3])[N+:5]#[C-:4])([H:6])([H:7])[H:8]"
C       -1.05176625      -0.28022635      -0.02865712
C        0.20324249       0.50506494      -0.25518897
O        0.28434173       1.60161451       0.18214609
C        1.74424218      -0.06975761      -1.20761392
N        2.87509308      -0.23705664       1.16289258
H       -1.90868220       0.34615748       0.22678687
H       -1.24166801      -0.90973597      -0.89807861
H       -0.90480301      -0.95606037       0.81771308
8
Frame=11 idx=004641 GeodesicLength=3.401132093790501 rxn_smarts="[C:1]([C:2](=[O:3])[C:4]#[N:5])([H:6])([H:7])[H:8]>>[C:1]([C:2](=[O:3])[N+:5]#[C-:4])([H:6])([H:7])[H:8]"
C       -1.09920951      -0.27700428      -0.05358870
C        0.19329601       0.44284326      -0.30542412
O        0.34573608       1.49956263       0.21167790
C        1.69493610      -0.14102866      -1.32728179
N        3.09413951      -0.05655489       1.38677655
H       -1.89137223       0.37745569       0.31771544
H       -1.39489711      -0.81587825      -0.95408757
H       -0.94262885      -1.02939551       0.72421230
8
Frame=12 idx=004641 GeodesicLength=3.7705863125234744 rxn_smarts="[C:1]([C:2](=[O:3])[C:4]#[N:5])([H:6])([H:7])[H:8]>>[C:1]([C:2](=[O:3])[N+:5]#[C-:4])([H:6])([H:7])[H:8]"
C       -1.17148877      -0.26788372      -0.09246605
C        0.19845233       0.30183140      -0.34346829
O        0.47586729       1.28702699       0.26479924
C        1.59571428      -0.30972490      -1.50135327
N        3.41702239       0.33141885       1.71221431
H       -1.82240482       0.39651640       0.48247522
H       -1.62920314      -0.56729450      -1.03657913
H       -1.06395956      -1.17189053       0.51437797
8
Frame=13 idx=004641 GeodesicLength=4.131635737907807 rxn_smarts="[C:1]([C:2](=[O:3])[C:4]#[N:5])([H:6])([H:7])[H:8]>>[C:1]([C:2](=[O:3])[N+:5]#[C-:4])([H:6])([H:7])[H:8]"
C       -1.28553327      -0.22474991      -0.17742133
C        0.19339693       0.03354464      -0.30834794
O        0.68153655       0.70526384       0.54943987
C        1.42650256      -0.61430255      -1.63130543
N        3.98708901       1.08870690       1.98303844
H       -1.76390634       0.36508346       0.61118576
H       -1.80271235      -0.08096417      -1.12735011
H       -1.43637308      -1.27258221       0.10076075
8
Frame=14 idx=004641 GeodesicLength=4.4485163778461985 rxn_smarts="[C:1]([C:2](=[O:3])[C:4]#[N:5])([H:6])([H:7])[H:8]>>[C:1]([C:2](=[O:3])[N+:5]#[C-:4])([H:6])([H:7])[H:8]"
C       -1.34561824      -0.11311741      -0.27938966
C        0.10126089      -0.42362889      -0.00587956
O        0.47453857      -0.42573621       1.12956537
C        1.43789535      -0.83151479      -1.33228089
N        4.54537722       1.98548064       1.61080338
H       -1.88927487       0.21953865       0.60895452
H       -1.47846282       0.60608640      -1.08974231
H       -1.84571610      -1.01710840      -0.64203085
8
Frame=15 idx=004641 GeodesicLength=5.673950917754634 rxn_smarts="[C:1]([C:2](=[O:3])[C:4]#[N:5])([H:6])([H:7])[H:8]>>[C:1]([C:2](=[O:3])[N+:5]#[C-:4])([H:6])([H:7])[H:8]"
C       -1.17915167      -0.08396135      -0.32133175
C        0.08782415      -0.34137905       0.49097587
O       -0.02301382      -0.79850502       1.61600477
C        1.87266663      -0.01783371      -0.24530839
N        3.74544440       1.29716142       0.18265049
H       -2.11115569      -0.25538097       0.22766637
H       -1.18890467       0.93154453      -0.74248001
H       -1.20370932      -0.73164585      -1.20817734
8
Frame=16 idx=004641 GeodesicLength=8.835854732266565 rxn_smarts="[C:1]([C:2](=[O:3])[C:4]#[N:5])([H:6])([H:7])[H:8]>>[C:1]([C:2](=[O:3])[N+:5]#[C-:4])([H:6])([H:7])[H:8]"
C       -0.87744648       0.03131386      -0.31917036
C        0.31370582      -0.17948380       0.56930717
O        0.22784082      -0.63558043       1.67339329
C        1.99014730      -0.26889265      -0.35510012
N        1.85665925       0.78276507       0.09364113
H       -1.79162146      -0.25287567       0.19619102
H       -0.93929612       1.07763896      -0.62360289
H       -0.77998914      -0.55488534      -1.23465923
