16
Frame=0 idx=010833 GeodesicLength=0.0 rxn_smarts="[C:1]([C@@:2]([C:3]([C:4]([O:5][H:16])([H:14])[H:15])([H:12])[H:13])([C:6]#[N:7])[H:11])([H:8])([H:9])[H:10]>>[C:1]([C@@:2]1([H:11])[C:6]([C:3]([C:4]([O:5][H:16])([H:14])[H:15])([H:12])[H:13])=[N:7]1)([H:8])([H:9])[H:10]"
C       -1.94440343      -0.24961227      -0.60853829
C       -0.99835920      -1.09592755       0.15261218
C        0.34704846       0.79340141       0.71088378
C        1.62655468       0.59700397      -0.04658433
O        1.34274650       0.04180196      -1.31561280
C       -0.19458085      -0.71022595       1.26001341
N        0.43442053      -1.09274091       2.22867089
H       -1.46954941       0.24713234      -1.46536892
H       -2.43236859       0.50306136       0.01047571
H       -2.71368519      -0.90677027      -1.02237804
H       -0.66819287      -2.00401498      -0.34531991
H       -0.39618886       1.31556087       0.11327852
H        0.52236434       1.33568048       1.63411887
H        2.28920353      -0.04653945       0.54014743
H        2.10470633       1.58083619      -0.15440957
H        2.15028405      -0.30864718      -1.69198899
16
Frame=1 idx=010833 GeodesicLength=0.09590402138666933 rxn_smarts="[C:1]([C@@:2]([C:3]([C:4]([O:5][H:16])([H:14])[H:15])([H:12])[H:13])([C:6]#[N:7])[H:11])([H:8])([H:9])[H:10]>>[C:1]([C@@:2]1([H:11])[C:6]([C:3]([C:4]([O:5][H:16])([H:14])[H:15])([H:12])[H:13])=[N:7]1)([H:8])([H:9])[H:10]"
C       -1.96534471      -0.25738558      -0.59528226
C       -0.97958596      -1.07965563       0.14376971
C        0.34843587       0.80151633       0.69236445
C        1.63968998       0.59365900      -0.04332933
O        1.36947455       0.04877120      -1.31971132
C       -0.20944230      -0.68932885       1.27031011
N        0.39811047      -1.13795655       2.21913966
H       -1.51969436       0.23964872      -1.46716594
H       -2.44998938       0.49347544       0.02852976
H       -2.73439710      -0.92984822      -0.98391185
H       -0.63400110      -1.97737787      -0.36204147
H       -0.37677329       1.33495162       0.08213666
H        0.51480135       1.35016175       1.61441332
H        2.28573138      -0.06146045       0.54918720
H        2.13255297       1.57138231      -0.13864409
H        2.18043164      -0.30055323      -1.68976460
16
Frame=2 idx=010833 GeodesicLength=0.1919578493970152 rxn_smarts="[C:1]([C@@:2]([C:3]([C:4]([O:5][H:16])([H:14])[H:15])([H:12])[H:13])([C:6]#[N:7])[H:11])([H:8])([H:9])[H:10]>>[C:1]([C@@:2]1([H:11])[C:6]([C:3]([C:4]([O:5][H:16])([H:14])[H:15])([H:12])[H:13])=[N:7]1)([H:8])([H:9])[H:10]"
C       -1.98684835      -0.26546551      -0.58042469
C       -0.96131318      -1.06218391       0.13466640
C        0.35016496       0.80939715       0.67260695
C        1.65351959       0.59078731      -0.03996369
O        1.39870759       0.05502880      -1.32331515
C       -0.22218930      -0.66948721       1.27872061
N        0.35774037      -1.18429881       2.20637700
H       -1.57196660       0.23147576      -1.46708526
H       -2.46769096       0.48358026       0.04850833
H       -2.75474843      -0.95354608      -0.94278398
H       -0.60188775      -1.94916744      -0.38003894
H       -0.35626067       1.35349456       0.04931529
H        0.50641505       1.36533712       1.59297031
H        2.28274143      -0.07481476       0.55905739
H        2.15991629       1.56259593      -0.12267255
H        2.21369996      -0.29273319      -1.68593804
16
Frame=3 idx=010833 GeodesicLength=0.28815098955675145 rxn_smarts="[C:1]([C@@:2]([C:3]([C:4]([O:5][H:16])([H:14])[H:15])([H:12])[H:13])([C:6]#[N:7])[H:11])([H:8])([H:9])[H:10]>>[C:1]([C@@:2]1([H:11])[C:6]([C:3]([C:4]([O:5][H:16])([H:14])[H:15])([H:12])[H:13])=[N:7]1)([H:8])([H:9])[H:10]"
C       -2.00889267      -0.27382102      -0.56388210
C       -0.94364799      -1.04358875       0.12508985
C        0.35224284       0.81695767       0.65155174
C        1.66804534       0.58841757      -0.03647363
O        1.43051267       0.06040869      -1.32630512
C       -0.23262305      -0.65101154       1.28518242
N        0.31313490      -1.23127360       2.19033941
H       -1.62643781       0.22274197      -1.46487953
H       -2.48539409       0.47328180       0.07067085
H       -2.77462729      -0.97773701      -0.89901798
H       -0.57200175      -1.91942792      -0.39965926
H       -0.33463424       1.37105959       0.01477105
H        0.49713784       1.38111540       1.56967856
H        2.28034674      -0.08643181       0.56983183
H        2.18667504       1.55461514      -0.10658124
H        2.25016354      -0.28530619      -1.68031685
16
Frame=4 idx=010833 GeodesicLength=0.38463126722156477 rxn_smarts="[C:1]([C@@:2]([C:3]([C:4]([O:5][H:16])([H:14])[H:15])([H:12])[H:13])([C:6]#[N:7])[H:11])([H:8])([H:9])[H:10]>>[C:1]([C@@:2]1([H:11])[C:6]([C:3]([C:4]([O:5][H:16])([H:14])[H:15])([H:12])[H:13])=[N:7]1)([H:8])([H:9])[H:10]"
C       -2.03145788      -0.28240305      -0.54562641
C       -0.92664367      -1.02396887       0.11485066
C        0.35465783       0.82415775       0.62919417
C        1.68325847       0.58657294      -0.03286142
O        1.46493047       0.06477169      -1.32866784
C       -0.24055917      -0.63421191       1.28977517
N        0.26412610      -1.27842823       2.17109263
H       -1.68320806       0.21360881      -1.46042415
H       -2.50306946       0.46255866       0.09526328
H       -2.79389310      -1.00232557      -0.85271328
H       -0.54434475      -1.88826081      -0.42121919
H       -0.31193726       1.38760606      -0.02151414
H        0.48689875       1.39740852       1.54456431
H        2.27867565      -0.09622771       0.58158871
H        2.21270458       1.54759785      -0.09046812
H        2.28986150      -0.27845612      -1.67283438
16
Frame=5 idx=010833 GeodesicLength=0.4808275958154738 rxn_smarts="[C:1]([C@@:2]([C:3]([C:4]([O:5][H:16])([H:14])[H:15])([H:12])[H:13])([C:6]#[N:7])[H:11])([H:8])([H:9])[H:10]>>[C:1]([C@@:2]1([H:11])[C:6]([C:3]([C:4]([O:5][H:16])([H:14])[H:15])([H:12])[H:13])=[N:7]1)([H:8])([H:9])[H:10]"
C       -2.05430532      -0.29122805      -0.52563352
C       -0.91062031      -1.00326707       0.10384965
C        0.35742413       0.83081446       0.60547744
C        1.69901657       0.58531190      -0.02908998
O        1.50173370       0.06790080      -1.32993343
C       -0.24617795      -0.61916433       1.29224700
N        0.21114069      -1.32532578       2.14798165
H       -1.74187295       0.20410063      -1.45321234
H       -2.52034847       0.45115240       0.12219209
H       -2.81225050      -1.02716249      -0.80405014
H       -0.51948254      -1.85555831      -0.44464714
H       -0.28802423       1.40290998      -0.05940794
H        0.47577976       1.41386590       1.51738312
H        2.27770993      -0.10379938       0.59430634
H        2.23778040       1.54163510      -0.07451078
H        2.33249708      -0.27218575      -1.66295202
16
Frame=6 idx=010833 GeodesicLength=0.5770978690597175 rxn_smarts="[C:1]([C@@:2]([C:3]([C:4]([O:5][H:16])([H:14])[H:15])([H:12])[H:13])([C:6]#[N:7])[H:11])([H:8])([H:9])[H:10]>>[C:1]([C@@:2]1([H:11])[C:6]([C:3]([C:4]([O:5][H:16])([H:14])[H:15])([H:12])[H:13])=[N:7]1)([H:8])([H:9])[H:10]"
C       -2.07729175      -0.30023374      -0.50409676
C       -0.89552055      -0.98169553       0.09211170
C        0.36051424       0.83696192       0.58063351
C        1.71523283       0.58457727      -0.02525229
O        1.54066439       0.06983661      -1.33041284
C       -0.24930635      -0.60622423       1.29305890
N        0.15381192      -1.37129326       2.12165914
H       -1.80224382       0.19436534      -1.44346963
H       -2.53728122       0.43918613       0.15148396
H       -2.82936370      -1.05220355      -0.75356323
H       -0.49710166      -1.82168416      -0.46992736
H       -0.26311097       1.41716948      -0.09860040
H        0.46388318       1.43036864       1.48857894
H        2.27753025      -0.10945870       0.60785377
H        2.26181076       1.53680606      -0.05882920
H        2.37777244      -0.26647827      -1.65122820
16
Frame=7 idx=010833 GeodesicLength=0.6733599450573446 rxn_smarts="[C:1]([C@@:2]([C:3]([C:4]([O:5][H:16])([H:14])[H:15])([H:12])[H:13])([C:6]#[N:7])[H:11])([H:8])([H:9])[H:10]>>[C:1]([C@@:2]1([H:11])[C:6]([C:3]([C:4]([O:5][H:16])([H:14])[H:15])([H:12])[H:13])=[N:7]1)([H:8])([H:9])[H:10]"
C       -2.10016473      -0.30943941      -0.48113644
C       -0.88149556      -0.95928432       0.07964065
C        0.36395731       0.84246590       0.55475505
C        1.73175426       0.58436485      -0.02137019
O        1.58133078       0.07058793      -1.32989691
C       -0.25007293      -0.59553798       1.29220780
N        0.09226408      -1.41558359       2.09187203
H       -1.86386751       0.18436715      -1.43101424
H       -2.55358421       0.42649897       0.18296218
H       -2.84493587      -1.07736596      -0.70159726
H       -0.47736818      -1.78663117      -0.49686794
H       -0.23714197       1.43030629      -0.13876212
H        0.45140863       1.44653040       1.45820552
H        2.27807907      -0.11311711       0.62206446
H        2.28468049       1.53310461      -0.04355349
H        2.42515634      -0.26126655      -1.63750911
16
Frame=8 idx=010833 GeodesicLength=0.7698504971620759 rxn_smarts="[C:1]([C@@:2]([C:3]([C:4]([O:5][H:16])([H:14])[H:15])([H:12])[H:13])([C:6]#[N:7])[H:11])([H:8])([H:9])[H:10]>>[C:1]([C@@:2]1([H:11])[C:6]([C:3]([C:4]([O:5][H:16])([H:14])[H:15])([H:12])[H:13])=[N:7]1)([H:8])([H:9])[H:10]"
C       -2.12271213      -0.31882088      -0.45697779
C       -0.86861706      -0.93620676       0.06651689
C        0.36771775       0.84730004       0.52807458
C        1.74845753       0.58465176      -0.01753176
O        1.62339269       0.07022098      -1.32851368
C       -0.24865080      -0.58741357       1.28994493
N        0.02659382      -1.45748441       2.05891996
H       -1.92629411       0.17415814      -1.41599797
H       -2.56914321       0.41311851       0.21645797
H       -2.85870164      -1.10261021      -0.64860118
H       -0.46017867      -1.75063559      -0.52529461
H       -0.21020904       1.44251789      -0.17947991
H        0.43845826       1.46211942       1.42666006
H        2.27936110      -0.11492575       0.63674955
H        2.30631842       1.53059251      -0.02884724
H        2.47420711      -0.25658209      -1.62207979
16
Frame=9 idx=010833 GeodesicLength=0.8657600199356734 rxn_smarts="[C:1]([C@@:2]([C:3]([C:4]([O:5][H:16])([H:14])[H:15])([H:12])[H:13])([C:6]#[N:7])[H:11])([H:8])([H:9])[H:10]>>[C:1]([C@@:2]1([H:11])[C:6]([C:3]([C:4]([O:5][H:16])([H:14])[H:15])([H:12])[H:13])=[N:7]1)([H:8])([H:9])[H:10]"
C       -2.14458749      -0.32832662      -0.43206848
C       -0.85710617      -0.91235998       0.05304008
C        0.37176380       0.85129497       0.50091853
C        1.76497735       0.58535144      -0.01370325
O        1.66589195       0.06855543      -1.32590336
C       -0.24530871      -0.58150765       1.28638011
N       -0.04167639      -1.49650119       2.02250426
H       -1.98864248       0.16364275      -1.39847099
H       -2.58363172       0.39894855       0.25117899
H       -2.87032035      -1.12768458      -0.59552180
H       -0.44588831      -1.71374554      -0.55445828
H       -0.18236706       1.45377818      -0.22010714
H        0.42542998       1.47660731       1.39422274
H        2.28129883      -0.11473269       0.65179959
H        2.32635950       1.52906537      -0.01496732
H        2.52380726      -0.25238573      -1.60484366
16
Frame=10 idx=010833 GeodesicLength=0.961836289396801 rxn_smarts="[C:1]([C@@:2]([C:3]([C:4]([O:5][H:16])([H:14])[H:15])([H:12])[H:13])([C:6]#[N:7])[H:11])([H:8])([H:9])[H:10]>>[C:1]([C@@:2]1([H:11])[C:6]([C:3]([C:4]([O:5][H:16])([H:14])[H:15])([H:12])[H:13])=[N:7]1)([H:8])([H:9])[H:10]"
C       -2.16554750      -0.33797820      -0.40679075
C       -0.84689372      -0.88811171       0.03947755
C        0.37605921       0.85452126       0.47370950
C        1.78122149       0.58637977      -0.01009342
O        1.70837498       0.06605163      -1.32259990
C       -0.24038440      -0.57830025       1.28201472
N       -0.11283782      -1.53156411       1.98368678
H       -2.05018120       0.15275894      -1.37902039
H       -2.59709873       0.38413378       0.28676010
H       -2.87957258      -1.15265042      -0.54297693
H       -0.43402386      -1.67648163      -0.58390879
H       -0.15381093       1.46455761      -0.25989198
H        0.41256084       1.48984394       1.36166469
H        2.28379767      -0.11316648       0.66667256
H        2.34499419       1.52848067      -0.00198523
H        2.57334237      -0.24847479      -1.58671852
16
Frame=11 idx=010833 GeodesicLength=1.058057817482151 rxn_smarts="[C:1]([C@@:2]([C:3]([C:4]([O:5][H:16])([H:14])[H:15])([H:12])[H:13])([C:6]#[N:7])[H:11])([H:8])([H:9])[H:10]>>[C:1]([C@@:2]1([H:11])[C:6]([C:3]([C:4]([O:5][H:16])([H:14])[H:15])([H:12])[H:13])=[N:7]1)([H:8])([H:9])[H:10]"
C       -2.18544898      -0.34774569      -0.38155973
C       -0.83804830      -0.86351572       0.02609809
C        0.38056523       0.85692094       0.44675541
C        1.79699336       0.58762596      -0.00671428
O        1.75019569       0.06275910      -1.31857170
C       -0.23419066      -0.57767159       1.27703018
N       -0.18575669      -1.56208541       1.94269857
H       -2.11034944       0.14136845      -1.35803235
H       -2.60946946       0.36869793       0.32258347
H       -2.88642727      -1.17737403      -0.49158182
H       -0.42453858      -1.63895078      -0.61312677
H       -0.12463569       1.47498042      -0.29827454
H        0.40012343       1.50152287       1.32940354
H        2.28678471      -0.11036957       0.68120416
H        2.36216198       1.52862020       0.01000776
H        2.62204067      -0.24478308      -1.56791999
16
Frame=12 idx=010833 GeodesicLength=1.1546251996118058 rxn_smarts="[C:1]([C@@:2]([C:3]([C:4]([O:5][H:16])([H:14])[H:15])([H:12])[H:13])([C:6]#[N:7])[H:11])([H:8])([H:9])[H:10]>>[C:1]([C@@:2]1([H:11])[C:6]([C:3]([C:4]([O:5][H:16])([H:14])[H:15])([H:12])[H:13])=[N:7]1)([H:8])([H:9])[H:10]"
C       -2.20427430      -0.35758964      -0.35673643
C       -0.83064147      -0.83874191       0.01318379
C        0.38520061       0.85855782       0.42035120
C        1.81220047       0.58901092      -0.00361839
O        1.79098549       0.05874279      -1.31398871
C       -0.22719546      -0.57961410       1.27169015
N       -0.25934304      -1.58779265       1.90006980
H       -2.16865810       0.12940872      -1.33601743
H       -2.62087551       0.35280210       0.35815129
H       -2.89102367      -1.20179886      -0.44181933
H       -0.41728719      -1.60141787      -0.64170886
H       -0.09495519       1.48535085      -0.33478453
H        0.38822874       1.51158587       1.29793504
H        2.29020340      -0.10659316       0.69524954
H        2.37795102       1.52939337       0.02091651
H        2.66948420      -0.24130424      -1.54887367
16
Frame=13 idx=010833 GeodesicLength=1.251160808475833 rxn_smarts="[C:1]([C@@:2]([C:3]([C:4]([O:5][H:16])([H:14])[H:15])([H:12])[H:13])([C:6]#[N:7])[H:11])([H:8])([H:9])[H:10]>>[C:1]([C@@:2]1([H:11])[C:6]([C:3]([C:4]([O:5][H:16])([H:14])[H:15])([H:12])[H:13])=[N:7]1)([H:8])([H:9])[H:10]"
C       -2.22197438      -0.36741774      -0.33270816
C       -0.82466464      -0.81370450       0.00102923
C        0.38989516       0.85938449       0.39469334
C        1.82658047       0.59038155      -0.00071878
O        1.83002172       0.05396839      -1.30865785
C       -0.21966530      -0.58362049       1.26611410
N       -0.33158569      -1.60863111       1.85586776
H       -2.22476796       0.11675088      -1.31338715
H       -2.63130358       0.33651997       0.39275056
H       -2.89342483      -1.22564830      -0.39426875
H       -0.41219501      -1.56372727      -0.66916519
H       -0.06494345       1.49558567      -0.36905738
H        0.37714075       1.51980022       1.26744038
H        2.29387288      -0.10188438       0.70884038
H        2.39222759       1.53040606       0.03073408
H        2.71478626      -0.23816345      -1.52950657
16
Frame=14 idx=010833 GeodesicLength=1.348239485562356 rxn_smarts="[C:1]([C@@:2]([C:3]([C:4]([O:5][H:16])([H:14])[H:15])([H:12])[H:13])([C:6]#[N:7])[H:11])([H:8])([H:9])[H:10]>>[C:1]([C@@:2]1([H:11])[C:6]([C:3]([C:4]([O:5][H:16])([H:14])[H:15])([H:12])[H:13])=[N:7]1)([H:8])([H:9])[H:10]"
C       -2.23867904      -0.37722792      -0.30965795
C       -0.82010541      -0.78867425      -0.01017053
C        0.39457068       0.85960710       0.36994073
C        1.84022197       0.59169765       0.00189069
O        1.86738577       0.04863776      -1.30298407
C       -0.21207749      -0.58985878       1.26055063
N       -0.40206609      -1.62466943       1.81098731
H       -2.27845206       0.10335698      -1.29069394
H       -2.64108544       0.32009033       0.42618254
H       -2.89396110      -1.24900682      -0.34903112
H       -0.40896434      -1.52620547      -0.69534520
H       -0.03469573       1.50609907      -0.40088199
H        0.36678149       1.52643860       1.23833347
H        2.29773002      -0.09668486       0.72179728
H        2.40532929       1.53167697       0.03950085
H        2.75806750      -0.23527691      -1.51041872
16
Frame=15 idx=010833 GeodesicLength=1.4456525539985856 rxn_smarts="[C:1]([C@@:2]([C:3]([C:4]([O:5][H:16])([H:14])[H:15])([H:12])[H:13])([C:6]#[N:7])[H:11])([H:8])([H:9])[H:10]>>[C:1]([C@@:2]1([H:11])[C:6]([C:3]([C:4]([O:5][H:16])([H:14])[H:15])([H:12])[H:13])=[N:7]1)([H:8])([H:9])[H:10]"
C       -2.25452960      -0.38695926      -0.28773111
C       -0.81693295      -0.76357681      -0.02024881
C        0.39917234       0.85931212       0.34609981
C        1.85305175       0.59287512       0.00429278
O        1.90284146       0.04269043      -1.29685435
C       -0.20469019      -0.59780695       1.25504832
N       -0.46928106      -1.63647209       1.76550970
H       -2.32974385       0.08918363      -1.26819394
H       -2.65041630       0.30360441       0.45811079
H       -2.89289467      -1.27174002      -0.30628378
H       -0.40748376      -1.48866296      -0.72008188
H       -0.00431236       1.51684021      -0.43024982
H        0.35722008       1.53159508       1.21057313
H        2.30162715      -0.09103377       0.73424976
H        2.41732958       1.53296322       0.04727425
H        2.79904238      -0.23281235      -1.49151485
16
Frame=16 idx=010833 GeodesicLength=1.5435189352488639 rxn_smarts="[C:1]([C@@:2]([C:3]([C:4]([O:5][H:16])([H:14])[H:15])([H:12])[H:13])([C:6]#[N:7])[H:11])([H:8])([H:9])[H:10]>>[C:1]([C@@:2]1([H:11])[C:6]([C:3]([C:4]([O:5][H:16])([H:14])[H:15])([H:12])[H:13])=[N:7]1)([H:8])([H:9])[H:10]"
C       -2.26962807      -0.39659712      -0.26698629
C       -0.81505089      -0.73845073      -0.02911319
C        0.40366264       0.85864421       0.32315080
C        1.86508922       0.59385708       0.00649161
O        1.93639747       0.03622125      -1.29040935
C       -0.19769391      -0.60728232       1.24966634
N       -0.53278548      -1.64447573       1.71992257
H       -2.37867210       0.07417174      -1.24619013
H       -2.65946618       0.28718783       0.48841321
H       -2.89044213      -1.29384486      -0.26596644
H       -0.40754568      -1.45106800      -0.74333439
H        0.02613275       1.52790271      -0.45721938
H        0.34842773       1.53548902       1.18419727
H        2.30543208      -0.08517755       0.74618414
H        2.42841118       1.53413901       0.05418029
H        2.83773137      -0.23071654      -1.47298705
