11
Frame=0 idx=005346 GeodesicLength=0.0 rxn_smarts="[C:1]([C:2](=[O:3])[C:4]([C:5]#[N:6])([H:10])[H:11])([H:7])([H:8])[H:9]>>[C:1]([C@@:4]([C:2](=[O:3])[H:10])([C:5]#[N:6])[H:11])([H:7])([H:8])[H:9]"
C       -1.24598272       0.28660001      -0.13770292
C       -0.08259617      -0.88492092       0.20707332
O       -0.57336203      -1.81896528       0.89203071
C        1.09795732      -0.14167402       0.50879449
C        1.60094633       0.84796066      -0.35979044
N        1.99768469       1.66245058      -1.07279530
H       -2.06225687      -0.30318267      -0.53926060
H       -0.88616998       1.03647351      -0.83602520
H       -1.50433351       0.70821920       0.82791614
H        0.00695697      -1.06122172      -0.91412853
H        1.65115599      -0.33173937       1.42388828
11
Frame=1 idx=005346 GeodesicLength=0.10753622678757108 rxn_smarts="[C:1]([C:2](=[O:3])[C:4]([C:5]#[N:6])([H:10])[H:11])([H:7])([H:8])[H:9]>>[C:1]([C@@:4]([C:2](=[O:3])[H:10])([C:5]#[N:6])[H:11])([H:7])([H:8])[H:9]"
C       -1.23706343       0.29198068      -0.12665239
C       -0.09166047      -0.91125901       0.20147241
O       -0.56978389      -1.84976212       0.87926268
C        1.07663366      -0.14285081       0.49785180
C        1.59034741       0.85273561      -0.36030366
N        2.00217926       1.66742620      -1.06388941
H       -2.07854046      -0.28742140      -0.49087053
H       -0.89578447       1.01615243      -0.86068014
H       -1.47551986       0.74967069       0.82791298
H        0.06505066      -1.06647006      -0.92930592
H        1.61414160      -0.32020221       1.42520216
11
Frame=2 idx=005346 GeodesicLength=0.2152373082162147 rxn_smarts="[C:1]([C:2](=[O:3])[C:4]([C:5]#[N:6])([H:10])[H:11])([H:7])([H:8])[H:9]>>[C:1]([C@@:4]([C:2](=[O:3])[H:10])([C:5]#[N:6])[H:11])([H:7])([H:8])[H:9]"
C       -1.22828095       0.29769384      -0.11622118
C       -0.10101672      -0.93717002       0.19406443
O       -0.56623777      -1.87900831       0.86661971
C        1.05493068      -0.14435249       0.48668382
C        1.57969148       0.85755063      -0.36024802
N        2.00479180       1.67408315      -1.05327381
H       -2.09428175      -0.27036254      -0.44011427
H       -0.90669004       0.99406595      -0.88552130
H       -1.44574165       0.79255765       0.82506068
H        0.12530347      -1.07366057      -0.94196489
H        1.57753144      -0.31139728       1.42491481
11
Frame=3 idx=005346 GeodesicLength=0.32295526800552654 rxn_smarts="[C:1]([C:2](=[O:3])[C:4]([C:5]#[N:6])([H:10])[H:11])([H:7])([H:8])[H:9]>>[C:1]([C@@:4]([C:2](=[O:3])[H:10])([C:5]#[N:6])[H:11])([H:7])([H:8])[H:9]"
C       -1.21967743       0.30380238      -0.10622479
C       -0.11063305      -0.96261280       0.18472862
O       -0.56273925      -1.90680316       0.85379416
C        1.03288051      -0.14612007       0.47527299
C        1.56901769       0.86226084      -0.35982450
N        2.00554263       1.68199309      -1.04133156
H       -2.10896992      -0.25193306      -0.38736890
H       -0.91896058       0.97061412      -0.90982227
H       -1.41532247       0.83649360       0.81944297
H        0.18769326      -1.08280521      -0.95192732
H        1.54116861      -0.30488973       1.42326060
11
Frame=4 idx=005346 GeodesicLength=0.4305159202375859 rxn_smarts="[C:1]([C:2](=[O:3])[C:4]([C:5]#[N:6])([H:10])[H:11])([H:7])([H:8])[H:9]>>[C:1]([C@@:4]([C:2](=[O:3])[H:10])([C:5]#[N:6])[H:11])([H:7])([H:8])[H:9]"
C       -1.21128991       0.31035449      -0.09649928
C       -0.12048012      -0.98755445       0.17334379
O       -0.55932038      -1.93321451       0.84050747
C        1.01050411      -0.14810085       0.46360657
C        1.55835586       0.86674615      -0.35921234
N        2.00451005       1.69080484      -1.02843434
H       -2.12215393      -0.23216096      -0.33300843
H       -0.93268072       0.94623544      -0.93294496
H       -1.38458353       0.88112571       0.81115186
H        0.25221811      -1.09388739      -0.95889600
H        1.50492046      -0.30034848       1.42038566
11
Frame=5 idx=005346 GeodesicLength=0.5385358499086441 rxn_smarts="[C:1]([C:2](=[O:3])[C:4]([C:5]#[N:6])([H:10])[H:11])([H:7])([H:8])[H:9]>>[C:1]([C@@:4]([C:2](=[O:3])[H:10])([C:5]#[N:6])[H:11])([H:7])([H:8])[H:9]"
C       -1.20314084       0.31736578      -0.08689378
C       -0.13059200      -1.01199786       0.15994320
O       -0.55606125      -1.95832199       0.82658941
C        0.98783001      -0.15034328       0.45165828
C        1.54772783       0.87085934      -0.35850944
N        2.00178000       1.70021588      -1.01507487
H       -2.13356910      -0.21096077      -0.27728129
H       -0.94787652       0.92114752      -0.95455697
H       -1.35388208       0.92603262       0.80037266
H        0.31909765      -1.10645778      -0.96277290
H        1.46868629      -0.29753945       1.41652570
11
Frame=6 idx=005346 GeodesicLength=0.6463653580989915 rxn_smarts="[C:1]([C:2](=[O:3])[C:4]([C:5]#[N:6])([H:10])[H:11])([H:7])([H:8])[H:9]>>[C:1]([C@@:4]([C:2](=[O:3])[H:10])([C:5]#[N:6])[H:11])([H:7])([H:8])[H:9]"
C       -1.19526065       0.32486622      -0.07728715
C       -0.14088489      -1.03587054       0.14431407
O       -0.55297603      -1.98215875       0.81166856
C        0.96488150      -0.15272247       0.43940603
C        1.53714563       0.87460098      -0.35788677
N        1.99758514       1.70988362      -1.00153153
H       -2.14283776      -0.18869041      -0.22058939
H       -0.96467237       0.89595724      -0.97409257
H       -1.32344245       0.97097038       0.78722906
H        0.38809926      -1.12063978      -0.96294416
H        1.43236261      -0.29619649       1.41171386
11
Frame=7 idx=005346 GeodesicLength=0.7539263393274822 rxn_smarts="[C:1]([C:2](=[O:3])[C:4]([C:5]#[N:6])([H:10])[H:11])([H:7])([H:8])[H:9]>>[C:1]([C@@:4]([C:2](=[O:3])[H:10])([C:5]#[N:6])[H:11])([H:7])([H:8])[H:9]"
C       -1.18767262       0.33285177      -0.06756860
C       -0.15129257      -1.05910239       0.12637715
O       -0.55008966      -2.00477471       0.79542674
C        0.94167370      -0.15516600       0.42683562
C        1.52661055       0.87797101      -0.35741868
N        1.99222442       1.71944474      -0.98824253
H       -2.14974667      -0.16565392      -0.16326290
H       -0.98313468       0.87114887      -0.99119125
H       -1.29353462       1.01561321       0.77194555
H        0.45910988      -1.13623149      -0.95893307
H        1.39585227      -0.29610108       1.40603196
11
Frame=8 idx=005346 GeodesicLength=0.8611433288427687 rxn_smarts="[C:1]([C:2](=[O:3])[C:4]([C:5]#[N:6])([H:10])[H:11])([H:7])([H:8])[H:9]>>[C:1]([C@@:4]([C:2](=[O:3])[H:10])([C:5]#[N:6])[H:11])([H:7])([H:8])[H:9]"
C       -1.18037848       0.34130643      -0.05768262
C       -0.16174036      -1.08163425       0.10603719
O       -0.54745450      -2.02619413       0.77757356
C        0.91824066      -0.15762094       0.41389693
C        1.51612689       0.88097601      -0.35720838
N        1.98600811       1.72860948      -0.97554066
H       -2.15415104      -0.14217300      -0.10554620
H       -1.00331958       0.84714472      -1.00560625
H       -1.26437616       1.05963666       0.75473996
H        0.53195425      -1.15299444      -0.95016943
H        1.35909022      -0.29705653       1.39950591
11
Frame=9 idx=005346 GeodesicLength=0.9694434124218522 rxn_smarts="[C:1]([C:2](=[O:3])[C:4]([C:5]#[N:6])([H:10])[H:11])([H:7])([H:8])[H:9]>>[C:1]([C@@:4]([C:2](=[O:3])[H:10])([C:5]#[N:6])[H:11])([H:7])([H:8])[H:9]"
C       -1.17334816       0.35016624      -0.04763090
C       -0.17234926      -1.10353243       0.08344197
O       -0.54529080      -2.04645153       0.75815372
C        0.89466716      -0.16027298       0.40040776
C        1.50571874       0.88346682      -0.35742172
N        1.97899002       1.73731749      -0.96356988
H       -2.15603393      -0.11814827      -0.04752774
H       -1.02518903       0.82388407      -1.01737172
H       -1.23608967       1.10270382       0.73585060
H        0.60687325      -1.17020372      -0.93648351
H        1.32205170      -0.29892951       1.39215141
11
Frame=10 idx=005346 GeodesicLength=1.077418360723909 rxn_smarts="[C:1]([C:2](=[O:3])[C:4]([C:5]#[N:6])([H:10])[H:11])([H:7])([H:8])[H:9]>>[C:1]([C@@:4]([C:2](=[O:3])[H:10])([C:5]#[N:6])[H:11])([H:7])([H:8])[H:9]"
C       -1.16660660       0.35939285      -0.03740610
C       -0.18281422      -1.12459284       0.05831299
O       -0.54346085      -2.06560946       0.73649576
C        0.87098086      -0.16281762       0.38647242
C        1.49536884       0.88564252      -0.35807669
N        1.97178591       1.74510252      -0.95280177
H       -2.15526162      -0.09435926       0.01061620
H       -1.04883712       0.80209032      -1.02629421
H       -1.20886951       1.14456190       0.71550319
H        0.68300445      -1.18789875      -0.91685988
H        1.28470986      -0.30151218       1.38403809
11
Frame=11 idx=005346 GeodesicLength=1.1850988274039678 rxn_smarts="[C:1]([C:2](=[O:3])[C:4]([C:5]#[N:6])([H:10])[H:11])([H:7])([H:8])[H:9]>>[C:1]([C@@:4]([C:2](=[O:3])[H:10])([C:5]#[N:6])[H:11])([H:7])([H:8])[H:9]"
C       -1.16013250       0.36889827      -0.02703289
C       -0.19299535      -1.14472187       0.03066387
O       -0.54196534      -2.08374237       0.71229619
C        0.84726465      -0.16519190       0.37208728
C        1.48509821       0.88753455      -0.35925101
N        1.96478600       1.75172764      -0.94349110
H       -2.15178803      -0.07116332       0.06882419
H       -1.07422491       0.78193824      -1.03243018
H       -1.18283687       1.18494533       0.69395380
H        0.75976767      -1.20561813      -0.89079981
H        1.24702646      -0.30460645       1.37517966
11
Frame=12 idx=005346 GeodesicLength=1.2925048742851273 rxn_smarts="[C:1]([C:2](=[O:3])[C:4]([C:5]#[N:6])([H:10])[H:11])([H:7])([H:8])[H:9]>>[C:1]([C@@:4]([C:2](=[O:3])[H:10])([C:5]#[N:6])[H:11])([H:7])([H:8])[H:9]"
C       -1.15386206       0.37857023      -0.01659740
C       -0.20273113      -1.16388167       0.00054622
O       -0.54083163      -2.10087569       0.68539316
C        0.82364196      -0.16740036       0.35718023
C        1.47494725       0.88915855      -0.36104594
N        1.95831561       1.75708032      -0.93575889
H       -2.14552407      -0.04888652       0.12702904
H       -1.10125993       0.76346641      -1.03589281
H       -1.15805491       1.22358903       0.67142424
H        0.83633421      -1.22278347      -0.85788472
H        1.20902469      -0.30803683       1.36560686
11
Frame=13 idx=005346 GeodesicLength=1.4010850030308397 rxn_smarts="[C:1]([C:2](=[O:3])[C:4]([C:5]#[N:6])([H:10])[H:11])([H:7])([H:8])[H:9]>>[C:1]([C@@:4]([C:2](=[O:3])[H:10])([C:5]#[N:6])[H:11])([H:7])([H:8])[H:9]"
C       -1.14771496       0.38831876      -0.00618483
C       -0.21210299      -1.18218283      -0.03179033
O       -0.54024957      -2.11707845       0.65597696
C        0.80024555      -0.16967649       0.34153641
C        1.46496688       0.89036009      -0.36367544
N        1.95237776       1.76126628      -0.92951914
H       -2.13642788      -0.02739950       0.18504143
H       -1.12979315       0.74636564      -1.03679667
H       -1.13444417       1.26023552       0.64822040
H        0.91240775      -1.23857241      -0.81810457
H        1.17073477      -0.31163661       1.35529578
11
Frame=14 idx=005346 GeodesicLength=1.5092406419721767 rxn_smarts="[C:1]([C:2](=[O:3])[C:4]([C:5]#[N:6])([H:10])[H:11])([H:7])([H:8])[H:9]>>[C:1]([C@@:4]([C:2](=[O:3])[H:10])([C:5]#[N:6])[H:11])([H:7])([H:8])[H:9]"
C       -1.14163740       0.39801473       0.00408204
C       -0.22072434      -1.19942615      -0.06634089
O       -0.53985918      -2.13245023       0.62367844
C        0.77721905      -0.17175869       0.32538119
C        1.45523660       0.89134534      -0.36699381
N        1.94756397       1.76402686      -0.92491317
H       -2.12431034      -0.00743021       0.24303234
H       -1.15973962       0.73073753      -1.03545363
H       -1.11211264       1.29485410       0.62433986
H        0.98613521      -1.25266156      -0.77120263
H        1.13222869      -0.31525171       1.34439026
11
Frame=15 idx=005346 GeodesicLength=1.6171570676794158 rxn_smarts="[C:1]([C:2](=[O:3])[C:4]([C:5]#[N:6])([H:10])[H:11])([H:7])([H:8])[H:9]>>[C:1]([C@@:4]([C:2](=[O:3])[H:10])([C:5]#[N:6])[H:11])([H:7])([H:8])[H:9]"
C       -1.13553311       0.40754645       0.01409637
C       -0.22851628      -1.21563000      -0.10278440
O       -0.53952324      -2.14706778       0.58874243
C        0.75469199      -0.17370675       0.30874373
C        1.44584060       0.89206835      -0.37101353
N        1.94402886       1.76541610      -0.92174762
H       -2.10905335       0.01090900       0.30088376
H       -1.19085427       0.71622862      -1.03206564
H       -1.09100077       1.32737270       0.59987270
H        1.05637229      -1.26441739      -0.71770197
H        1.09354728      -0.31871930       1.33297417
11
Frame=16 idx=005346 GeodesicLength=1.725106961339603 rxn_smarts="[C:1]([C:2](=[O:3])[C:4]([C:5]#[N:6])([H:10])[H:11])([H:7])([H:8])[H:9]>>[C:1]([C@@:4]([C:2](=[O:3])[H:10])([C:5]#[N:6])[H:11])([H:7])([H:8])[H:9]"
C       -1.12928641       0.41683415       0.02373497
C       -0.23546290      -1.23088391      -0.14075675
O       -0.53912068      -2.16100883       0.55156957
C        0.73279775      -0.17566014       0.29160072
C        1.43685897       0.89248203      -0.37570693
N        1.94180582       1.76559815      -0.91971478
H       -2.09052056       0.02762786       0.35843338
H       -1.22290997       0.70244630      -1.02681937
H       -1.07099993       1.35776902       0.57486080
H        1.12208435      -1.27328461      -0.65831108
H        1.05475357      -0.32192003       1.32110948
