9
Frame=0 idx=004148 GeodesicLength=0.0 rxn_smarts="[n:1]1([H:6])[c:2]([H:7])[c:3]([H:8])[n:4][c:5]1[H:9]>>[N:1]1=[C:2]([H:7])[C:3]([H:8])=[N:4][C:5]1([H:6])[H:9]"
N       -0.59768995       0.94840802       0.28147008
C        0.72792172       0.78962644       0.12265911
C        1.00949934      -0.56348924      -0.03836710
N       -0.11235342      -1.28471841      -0.04989952
C       -1.08816948      -0.38274170       0.12338618
H       -1.20431384       0.50701335      -0.77566216
H        1.39254669       1.63926273       0.10120183
H        1.97708396      -1.02862422      -0.16771359
H       -2.10452504      -0.62473699       0.40292516
9
Frame=1 idx=004148 GeodesicLength=0.03723283565739984 rxn_smarts="[n:1]1([H:6])[c:2]([H:7])[c:3]([H:8])[n:4][c:5]1[H:9]>>[N:1]1=[C:2]([H:7])[C:3]([H:8])=[N:4][C:5]1([H:6])[H:9]"
N       -0.59561524       0.94412249       0.28113332
C        0.72927497       0.78847867       0.12542002
C        1.01144585      -0.56584752      -0.03852924
N       -0.11054842      -1.28536707      -0.05841790
C       -1.08828977      -0.38301735       0.11570174
H       -1.21999456       0.52342368      -0.77811313
H        1.39220467       1.63930626       0.09494091
H        1.98050473      -1.03159515      -0.15388766
H       -2.09898223      -0.62950401       0.41175194
9
Frame=2 idx=004148 GeodesicLength=0.07445168918742026 rxn_smarts="[n:1]1([H:6])[c:2]([H:7])[c:3]([H:8])[n:4][c:5]1[H:9]>>[N:1]1=[C:2]([H:7])[C:3]([H:8])=[N:4][C:5]1([H:6])[H:9]"
N       -0.59347942       0.93974835       0.28080022
C        0.73065921       0.78729624       0.12799715
C        1.01344316      -0.56823094      -0.03892875
N       -0.10866206      -1.28595214      -0.06755659
C       -1.08835373      -0.38330666       0.10778754
H       -1.23624845       0.54043133      -0.77975370
H        1.39178684       1.63927246       0.08817221
H        1.98383160      -1.03474981      -0.13897259
H       -2.09297713      -0.63450882       0.42045451
9
Frame=3 idx=004148 GeodesicLength=0.11161870730280254 rxn_smarts="[n:1]1([H:6])[c:2]([H:7])[c:3]([H:8])[n:4][c:5]1[H:9]>>[N:1]1=[C:2]([H:7])[C:3]([H:8])=[N:4][C:5]1([H:6])[H:9]"
N       -0.59155947       0.93563044       0.27924985
C        0.73199393       0.78611784       0.13124562
C        1.01555493      -0.57087282      -0.03618541
N       -0.10662308      -1.28670915      -0.07422001
C       -1.08847706      -0.38351674       0.09986044
H       -1.25193672       0.55671166      -0.78202895
H        1.39143011       1.63906915       0.08232847
H        1.98672428      -1.03732975      -0.12845600
H       -2.08710692      -0.63910063       0.42820600
9
Frame=4 idx=004148 GeodesicLength=0.14879396791133753 rxn_smarts="[n:1]1([H:6])[c:2]([H:7])[c:3]([H:8])[n:4][c:5]1[H:9]>>[N:1]1=[C:2]([H:7])[C:3]([H:8])=[N:4][C:5]1([H:6])[H:9]"
N       -0.58986866       0.93175743       0.27661272
C        0.73326324       0.78492866       0.13528873
C        1.01774790      -0.57381449      -0.03017429
N       -0.10444185      -1.28768406      -0.07850702
C       -1.08866609      -0.38367252       0.09190662
H       -1.26706843       0.57237194      -0.78494087
H        1.39111785       1.63867235       0.07718233
H        1.98937946      -1.03930424      -0.12233802
H       -2.08146342      -0.64325506       0.43496979
9
Frame=5 idx=004148 GeodesicLength=0.18599424394157457 rxn_smarts="[n:1]1([H:6])[c:2]([H:7])[c:3]([H:8])[n:4][c:5]1[H:9]>>[N:1]1=[C:2]([H:7])[C:3]([H:8])=[N:4][C:5]1([H:6])[H:9]"
N       -0.58824819       0.92795250       0.27342586
C        0.73450072       0.78372455       0.13957130
C        1.01996875      -0.57691991      -0.02260770
N       -0.10215113      -1.28874702      -0.08194581
C       -1.08884510      -0.38383922       0.08381991
H       -1.28229197       0.58802864      -0.78777609
H        1.39084424       1.63809931       0.07216829
H        1.99196510      -1.04102581      -0.11785505
H       -2.07574240      -0.64727303       0.44119930
9
Frame=6 idx=004148 GeodesicLength=0.22324344347103076 rxn_smarts="[n:1]1([H:6])[c:2]([H:7])[c:3]([H:8])[n:4][c:5]1[H:9]>>[N:1]1=[C:2]([H:7])[C:3]([H:8])=[N:4][C:5]1([H:6])[H:9]"
N       -0.58654921       0.92406607       0.27020693
C        0.73575292       0.78250536       0.14349927
C        1.02218560      -0.58006142      -0.01526280
N       -0.09977870      -1.28976303      -0.08612789
C       -1.08894688      -0.38404732       0.07548846
H       -1.29827731       0.60432809      -0.78971040
H        1.39058477       1.63740290       0.06668290
H        1.99463024      -1.04291612      -0.11210391
H       -2.06960142      -0.65151453       0.44732744
9
Frame=7 idx=004148 GeodesicLength=0.2606072479496854 rxn_smarts="[n:1]1([H:6])[c:2]([H:7])[c:3]([H:8])[n:4][c:5]1[H:9]>>[N:1]1=[C:2]([H:7])[C:3]([H:8])=[N:4][C:5]1([H:6])[H:9]"
N       -0.58467910       0.91999381       0.26729636
C        0.73706363       0.78127370       0.14668947
C        1.02439895      -0.58315542      -0.00928062
N       -0.09732976      -1.29062275      -0.09215398
C       -1.08893049      -0.38430596       0.06681588
H       -1.31549922       0.62172578      -0.79009805
H        1.39030488       1.63663116       0.06024142
H        1.99746529      -1.04530129      -0.10310025
H       -2.06279418      -0.65623903       0.45358978
9
Frame=8 idx=004148 GeodesicLength=0.2979876065237153 rxn_smarts="[n:1]1([H:6])[c:2]([H:7])[c:3]([H:8])[n:4][c:5]1[H:9]>>[N:1]1=[C:2]([H:7])[C:3]([H:8])=[N:4][C:5]1([H:6])[H:9]"
N       -0.58261138       0.91572063       0.26479533
C        0.73845951       0.78004021       0.14904327
C        1.02662387      -0.58618941      -0.00490319
N       -0.09479092      -1.29123644      -0.10046092
C       -1.08879624      -0.38458166       0.05774598
H       -1.33410870       0.64034557      -0.78856571
H        1.38997209       1.63582195       0.05255742
H        2.00046072      -1.04834680      -0.09017799
H       -2.05520895      -0.66157406       0.45996582
9
Frame=9 idx=004148 GeodesicLength=0.3352301113100511 rxn_smarts="[n:1]1([H:6])[c:2]([H:7])[c:3]([H:8])[n:4][c:5]1[H:9]>>[N:1]1=[C:2]([H:7])[C:3]([H:8])=[N:4][C:5]1([H:6])[H:9]"
N       -0.58042708       0.91138147       0.26248136
C        0.73992737       0.77884181       0.15084894
C        1.02891179      -0.58929937      -0.00132265
N       -0.09210944      -1.29164569      -0.11059267
C       -1.08857459      -0.38481384       0.04829513
H       -1.35383633       0.65992807      -0.78518562
H        1.38955275       1.63499180       0.04367231
H        2.00348950      -1.05195258      -0.07437426
H       -2.04693397      -0.66743166       0.46617746
9
Frame=10 idx=004148 GeodesicLength=0.3724952485028682 rxn_smarts="[n:1]1([H:6])[c:2]([H:7])[c:3]([H:8])[n:4][c:5]1[H:9]>>[N:1]1=[C:2]([H:7])[C:3]([H:8])=[N:4][C:5]1([H:6])[H:9]"
N       -0.57801349       0.90673499       0.26058401
C        0.74152632       0.77760537       0.15186760
C        1.03121522      -0.59227041       0.00148074
N       -0.08924368      -1.29169133      -0.12295110
C       -1.08820543      -0.38509025       0.03822715
H       -1.37489696       0.68080543      -0.77954051
H        1.38908542       1.63394696       0.03315933
H        2.00634967      -1.05606061      -0.05500116
H       -2.03781707      -0.67398015       0.47217394
9
Frame=11 idx=004148 GeodesicLength=0.4098340451282947 rxn_smarts="[n:1]1([H:6])[c:2]([H:7])[c:3]([H:8])[n:4][c:5]1[H:9]>>[N:1]1=[C:2]([H:7])[C:3]([H:8])=[N:4][C:5]1([H:6])[H:9]"
N       -0.57545211       0.90203458       0.25864536
C        0.74323133       0.77641582       0.15235839
C        1.03356673      -0.59527355       0.00393704
N       -0.08615904      -1.29146941      -0.13672925
C       -1.08768582      -0.38532617       0.02773757
H       -1.39700155       0.70242970      -0.77199461
H        1.38861463       1.63281061       0.02159314
H        2.00887875      -1.06058664      -0.03332647
H       -2.02799292      -0.68103492       0.47777884
9
Frame=12 idx=004148 GeodesicLength=0.4472389794120639 rxn_smarts="[n:1]1([H:6])[c:2]([H:7])[c:3]([H:8])[n:4][c:5]1[H:9]>>[N:1]1=[C:2]([H:7])[C:3]([H:8])=[N:4][C:5]1([H:6])[H:9]"
N       -0.57279442       0.89733623       0.25640177
C        0.74502506       0.77526715       0.15250590
C        1.03596371      -0.59833516       0.00662403
N       -0.08282269      -1.29102899      -0.15125436
C       -1.08702599      -0.38551420       0.01686001
H       -1.41991142       0.72451569      -0.76276359
H        1.38817563       1.63152014       0.00925847
H        2.01100193      -1.06533176      -0.01041925
H       -2.01761181      -0.68842911       0.48278701
9
Frame=13 idx=004148 GeodesicLength=0.48465730183218325 rxn_smarts="[n:1]1([H:6])[c:2]([H:7])[c:3]([H:8])[n:4][c:5]1[H:9]>>[N:1]1=[C:2]([H:7])[C:3]([H:8])=[N:4][C:5]1([H:6])[H:9]"
N       -0.57009663       0.89270202       0.25365136
C        0.74689246       0.77415815       0.15248543
C        1.03840125      -0.60148558       0.00997950
N       -0.07920847      -1.29042636      -0.16597861
C       -1.08626024      -0.38563600       0.00561634
H       -1.44343847       0.74681566      -0.75201707
H        1.38779576       1.63003168      -0.00362563
H        2.01275038      -1.07015481       0.01285878
H       -2.00683604      -0.69600476       0.48702990
9
Frame=14 idx=004148 GeodesicLength=0.5221135628237351 rxn_smarts="[n:1]1([H:6])[c:2]([H:7])[c:3]([H:8])[n:4][c:5]1[H:9]>>[N:1]1=[C:2]([H:7])[C:3]([H:8])=[N:4][C:5]1([H:6])[H:9]"
N       -0.56736680       0.88816598       0.25023599
C        0.74882193       0.77309317       0.15231539
C        1.04084008      -0.60470586       0.01403373
N       -0.07530909      -1.28969917      -0.18062751
C       -1.08537779      -0.38569922      -0.00599138
H       -1.46754424       0.76918426      -0.73980245
H        1.38752975       1.62831755      -0.01685462
H        2.01413158      -1.07498780       0.03622065
H       -1.99572542      -0.70366892       0.49047021
9
Frame=15 idx=004148 GeodesicLength=0.5595807672775778 rxn_smarts="[n:1]1([H:6])[c:2]([H:7])[c:3]([H:8])[n:4][c:5]1[H:9]>>[N:1]1=[C:2]([H:7])[C:3]([H:8])=[N:4][C:5]1([H:6])[H:9]"
N       -0.56462240       0.88376142       0.24602985
C        0.75080623       0.77207353       0.15203724
C        1.04325941      -0.60798438       0.01881227
N       -0.07112378      -1.28888520      -0.19498563
C       -1.08439193      -0.38570267      -0.01796445
H       -1.49217870       0.79148965      -0.72613728
H        1.38741446       1.62635735      -0.03029051
H        2.01519248      -1.07977870       0.05943245
H       -1.98435577      -0.71133099       0.49306605
9
Frame=16 idx=004148 GeodesicLength=0.5970580886988991 rxn_smarts="[n:1]1([H:6])[c:2]([H:7])[c:3]([H:8])[n:4][c:5]1[H:9]>>[N:1]1=[C:2]([H:7])[C:3]([H:8])=[N:4][C:5]1([H:6])[H:9]"
N       -0.56188700       0.87953287       0.24087049
C        0.75282415       0.77109987       0.15171413
C        1.04561566      -0.61131787       0.02444798
N       -0.06665933      -1.28804168      -0.20878195
C       -1.08330810      -0.38565530      -0.03029581
H       -1.51727340       0.81357706      -0.71111276
H        1.38750270       1.62412064      -0.04373743
H        2.01600449      -1.08444369       0.08210368
H       -1.97281917      -0.71887191       0.49479167
