15
Frame=0 idx=000248 GeodesicLength=0.0 rxn_smarts="[C:1]([C:2]([C:3]([C:4]([C:5]#[N:6])([H:14])[H:15])([H:12])[H:13])([H:10])[H:11])([H:7])([H:8])[H:9]>>[C:1]([C:2]([C:3]([N:6]=[C:5]=[C:4]([H:14])[H:15])([H:12])[H:13])([H:10])[H:11])([H:7])([H:8])[H:9]"
C       -2.12994701      -0.39389067       0.90444275
C       -1.45492491       0.34866279      -0.23826456
C       -0.00916486       0.10902788      -0.37623181
C        2.74418801       0.43108904       0.00482991
C        2.36996186      -0.57621352      -0.82994388
N        1.74379988      -1.33774906      -1.47128037
H       -1.70895174      -0.09362855       1.86571340
H       -3.20071347      -0.18994107       0.92921910
H       -1.99478385      -1.47163074       0.79860419
H       -1.61153244       1.43377874      -0.16038686
H       -1.91153293       0.09035733      -1.20460445
H        0.49671430      -0.53679998       0.31293018
H        0.53306898       0.63131343      -1.13840134
H        3.03526303       0.19323205       1.01908088
H        3.09855522       1.36239229      -0.41570719
15
Frame=1 idx=000248 GeodesicLength=0.06251796341118797 rxn_smarts="[C:1]([C:2]([C:3]([C:4]([C:5]#[N:6])([H:14])[H:15])([H:12])[H:13])([H:10])[H:11])([H:7])([H:8])[H:9]>>[C:1]([C:2]([C:3]([N:6]=[C:5]=[C:4]([H:14])[H:15])([H:12])[H:13])([H:10])[H:11])([H:7])([H:8])[H:9]"
C       -2.12607107      -0.40577775       0.89031099
C       -1.43658110       0.36082662      -0.22761258
C        0.00935003       0.10426327      -0.37373409
C        2.72129299       0.44264585      -0.00549871
C        2.37202017      -0.59463768      -0.81672445
N        1.72869267      -1.36725603      -1.42803259
H       -1.70853968      -0.13479246       1.86187071
H       -3.19477093      -0.19110594       0.91614102
H       -2.00178511      -1.48178416       0.75716645
H       -1.57921468       1.44453945      -0.11478881
H       -1.89993839       0.13906989      -1.19953821
H        0.49709344      -0.51432113       0.35460918
H        0.51802181       0.60763656      -1.17318559
H        3.02189413       0.23019983       1.01186750
H        3.07853571       1.36049368      -0.45285082
15
Frame=2 idx=000248 GeodesicLength=0.12508672289459813 rxn_smarts="[C:1]([C:2]([C:3]([C:4]([C:5]#[N:6])([H:14])[H:15])([H:12])[H:13])([H:10])[H:11])([H:7])([H:8])[H:9]>>[C:1]([C:2]([C:3]([N:6]=[C:5]=[C:4]([H:14])[H:15])([H:12])[H:13])([H:10])[H:11])([H:7])([H:8])[H:9]"
C       -2.12207723      -0.41661285       0.87643853
C       -1.41846632       0.37201718      -0.21721401
C        0.02753341       0.09858862      -0.37171167
C        2.69863819       0.45334375      -0.01562301
C        2.37447989      -0.61179519      -0.80375285
N        1.71511367      -1.39362494      -1.38664769
H       -1.70808206      -0.17392651       1.85709504
H       -3.18865425      -0.19143194       0.90371020
H       -2.00831997      -1.49027474       0.71723774
H       -1.54719035       1.45321623      -0.07069447
H       -1.88816035       0.18581565      -1.19328783
H        0.49697188      -0.49162809       0.39353249
H        0.50214927       0.58280630      -1.20556440
H        3.00803701       0.26534615       1.00419390
H        3.05802722       1.35816039      -0.48771197
15
Frame=3 idx=000248 GeodesicLength=0.18770939753958987 rxn_smarts="[C:1]([C:2]([C:3]([C:4]([C:5]#[N:6])([H:14])[H:15])([H:12])[H:13])([H:10])[H:11])([H:7])([H:8])[H:9]>>[C:1]([C:2]([C:3]([N:6]=[C:5]=[C:4]([H:14])[H:15])([H:12])[H:13])([H:10])[H:11])([H:7])([H:8])[H:9]"
C       -2.11781655      -0.42629059       0.86284783
C       -1.40053612       0.38219140      -0.20712869
C        0.04529278       0.09177184      -0.37016354
C        2.67604197       0.46327072      -0.02537963
C        2.37733154      -0.62759373      -0.79098881
N        1.70313384      -1.41687586      -1.34734845
H       -1.70711819      -0.21110435       1.85139312
H       -3.18209714      -0.19056554       0.89203887
H       -2.01461756      -1.49698236       0.67879440
H       -1.51525883       1.45976952      -0.02826063
H       -1.87629929       0.23054638      -1.18594319
H        0.49634538      -0.46923992       0.42955977
H        0.48535153       0.55672965      -1.23556745
H        2.99350224       0.29879110       0.99625830
H        3.03674440       1.35558174      -0.52011190
15
Frame=4 idx=000248 GeodesicLength=0.2503820131066623 rxn_smarts="[C:1]([C:2]([C:3]([C:4]([C:5]#[N:6])([H:14])[H:15])([H:12])[H:13])([H:10])[H:11])([H:7])([H:8])[H:9]>>[C:1]([C:2]([C:3]([N:6]=[C:5]=[C:4]([H:14])[H:15])([H:12])[H:13])([H:10])[H:11])([H:7])([H:8])[H:9]"
C       -2.11358964      -0.43517610       0.84948965
C       -1.38291332       0.39159453      -0.19730786
C        0.06280799       0.08471310      -0.36854473
C        2.65400538       0.47231709      -0.03504156
C        2.38043825      -0.64240837      -0.77855133
N        1.69208120      -1.43762571      -1.30979349
H       -1.70642649      -0.24651844       1.84503179
H       -3.17557693      -0.18931517       0.88076564
H       -2.02045589      -1.50245356       0.64168890
H       -1.48417696       1.46465705       0.01258766
H       -1.86398338       0.27324611      -1.17783405
H        0.49536204      -0.44632364       0.46349169
H        0.46798310       0.53022832      -1.26302063
H        2.97896723       0.33050046       0.98790150
H        3.01547744       1.35256434      -0.55086317
15
Frame=5 idx=000248 GeodesicLength=0.3131943659772443 rxn_smarts="[C:1]([C:2]([C:3]([C:4]([C:5]#[N:6])([H:14])[H:15])([H:12])[H:13])([H:10])[H:11])([H:7])([H:8])[H:9]>>[C:1]([C:2]([C:3]([N:6]=[C:5]=[C:4]([H:14])[H:15])([H:12])[H:13])([H:10])[H:11])([H:7])([H:8])[H:9]"
C       -2.10934008      -0.44373861       0.83590465
C       -1.36571675       0.40058655      -0.18754020
C        0.08017282       0.07860822      -0.36601913
C        2.63296364       0.48033566      -0.04504382
C        2.38322893      -0.65678252      -0.76599270
N        1.68063112      -1.45640421      -1.27273287
H       -1.70634685      -0.28087472       1.83779406
H       -3.16915672      -0.18872134       0.86904922
H       -2.02514550      -1.50698096       0.60504716
H       -1.45475539       1.46810781       0.05240176
H       -1.85097469       0.31437662      -1.16904128
H        0.49418337      -0.42151575       0.49633111
H        0.45001533       0.50379395      -1.28753934
H        2.96523465       0.36090053       0.97866240
H        2.99500611       1.34830879      -0.58128101
15
Frame=6 idx=000248 GeodesicLength=0.3760960360716207 rxn_smarts="[C:1]([C:2]([C:3]([C:4]([C:5]#[N:6])([H:14])[H:15])([H:12])[H:13])([H:10])[H:11])([H:7])([H:8])[H:9]>>[C:1]([C:2]([C:3]([N:6]=[C:5]=[C:4]([H:14])[H:15])([H:12])[H:13])([H:10])[H:11])([H:7])([H:8])[H:9]"
C       -2.10505232      -0.45178602       0.82235921
C       -1.34890715       0.40910968      -0.17795131
C        0.09730709       0.07272473      -0.36319991
C        2.61259930       0.48755610      -0.05505221
C        2.38607375      -0.67055331      -0.75340703
N        1.66963238      -1.47331509      -1.23671178
H       -1.70635763      -0.31415715       1.82986174
H       -3.16272521      -0.18807041       0.85758229
H       -2.02929955      -1.51054193       0.56907521
H       -1.42646687       1.47028655       0.09104404
H       -1.83762950       0.35396690      -1.15965241
H        0.49272506      -0.39575208       0.52748562
H        0.43152632       0.47708087      -1.30963448
H        2.95172372       0.39009263       0.96899353
H        2.97485061       1.34335851      -0.61079251
15
Frame=7 idx=000248 GeodesicLength=0.43908831133107107 rxn_smarts="[C:1]([C:2]([C:3]([C:4]([C:5]#[N:6])([H:14])[H:15])([H:12])[H:13])([H:10])[H:11])([H:7])([H:8])[H:9]>>[C:1]([C:2]([C:3]([N:6]=[C:5]=[C:4]([H:14])[H:15])([H:12])[H:13])([H:10])[H:11])([H:7])([H:8])[H:9]"
C       -2.10063544      -0.45942624       0.80882338
C       -1.33259121       0.41724430      -0.16858395
C        0.11422418       0.06748878      -0.35995039
C        2.59303099       0.49388287      -0.06503860
C        2.38878770      -0.68383715      -0.74078894
N        1.65866683      -1.48845105      -1.20159533
H       -1.70637708      -0.34636308       1.82124071
H       -3.15625462      -0.18769442       0.84626861
H       -2.03260702      -1.51325807       0.53376068
H       -1.39975513       1.47134514       0.12838883
H       -1.82401971       0.39187754      -1.14982674
H        0.49102128      -0.36872641       0.55711906
H        0.41256056       0.45049145      -1.32924645
H        2.93865685       0.41790825       0.95890986
H        2.95529182       1.33751808      -0.63948072
15
Frame=8 idx=000248 GeodesicLength=0.5021553707024823 rxn_smarts="[C:1]([C:2]([C:3]([C:4]([C:5]#[N:6])([H:14])[H:15])([H:12])[H:13])([H:10])[H:11])([H:7])([H:8])[H:9]>>[C:1]([C:2]([C:3]([N:6]=[C:5]=[C:4]([H:14])[H:15])([H:12])[H:13])([H:10])[H:11])([H:7])([H:8])[H:9]"
C       -2.09601923      -0.46670375       0.79534555
C       -1.31684479       0.42503634      -0.15950371
C        0.13091817       0.06306648      -0.35632274
C        2.57428579       0.49928562      -0.07490444
C        2.39130386      -0.69669937      -0.72816542
N        1.64759062      -1.50189204      -1.16742329
H       -1.70623733      -0.37745619       1.81199012
H       -3.14971022      -0.18771714       0.83518719
H       -2.03494495      -1.51522878       0.49918123
H       -1.37484295       1.47144986       0.16429259
H       -1.81029364       0.42799316      -1.13971556
H        0.48906953      -0.34040348       0.58521620
H        0.39319104       0.42429779      -1.34644961
H        2.92607441       0.44421444       0.94853484
H        2.93645969       1.33075707      -0.66726295
15
Frame=9 idx=000248 GeodesicLength=0.5652859681852482 rxn_smarts="[C:1]([C:2]([C:3]([C:4]([C:5]#[N:6])([H:14])[H:15])([H:12])[H:13])([H:10])[H:11])([H:7])([H:8])[H:9]>>[C:1]([C:2]([C:3]([N:6]=[C:5]=[C:4]([H:14])[H:15])([H:12])[H:13])([H:10])[H:11])([H:7])([H:8])[H:9]"
C       -2.09113919      -0.47364649       0.78198492
C       -1.30172279       0.43252282      -0.15077253
C        0.14737703       0.05953783      -0.35241337
C        2.55635679       0.50376586      -0.08454299
C        2.39357810      -0.70919006      -0.71554728
N        1.63632509      -1.51370785      -1.13426621
H       -1.70574652      -0.40741102       1.80217813
H       -3.14304839      -0.18819656       0.82444675
H       -2.03626103      -1.51653905       0.46541717
H       -1.35184300       1.47076287       0.19863599
H       -1.79661436       0.46223727      -1.12945890
H        0.48686020      -0.31084778       0.61171703
H        0.37347648       0.39869517      -1.36136359
H        2.91396395       0.46892997       0.93801630
H        2.91843761       1.32308702      -0.69403141
15
Frame=10 idx=000248 GeodesicLength=0.6284729022591922 rxn_smarts="[C:1]([C:2]([C:3]([C:4]([C:5]#[N:6])([H:14])[H:15])([H:12])[H:13])([H:10])[H:11])([H:7])([H:8])[H:9]>>[C:1]([C:2]([C:3]([N:6]=[C:5]=[C:4]([H:14])[H:15])([H:12])[H:13])([H:10])[H:11])([H:7])([H:8])[H:9]"
C       -2.08594439      -0.48029393       0.76878821
C       -1.28726937       0.43974818      -0.14243607
C        0.16358793       0.05696430      -0.34831856
C        2.53923715       0.50733582      -0.09387179
C        2.39556644      -0.72137036      -0.70293285
N        1.62479468      -1.52399373      -1.10214637
H       -1.70473915      -0.43624149       1.79187024
H       -3.13623630      -0.18919553       0.81413847
H       -2.03652214      -1.51727811       0.43251344
H       -1.33082364       1.46944391       0.23135331
H       -1.78313436       0.49459139      -1.11918080
H        0.48438650      -0.28009639       0.63658164
H        0.35348044       0.37385378      -1.37411798
H        2.90231408       0.49201277       0.92748224
H        2.90130215       1.31451941      -0.71972314
15
Frame=11 idx=000248 GeodesicLength=0.6916979624707494 rxn_smarts="[C:1]([C:2]([C:3]([C:4]([C:5]#[N:6])([H:14])[H:15])([H:12])[H:13])([H:10])[H:11])([H:7])([H:8])[H:9]>>[C:1]([C:2]([C:3]([N:6]=[C:5]=[C:4]([H:14])[H:15])([H:12])[H:13])([H:10])[H:11])([H:7])([H:8])[H:9]"
C       -2.08045062      -0.48655748       0.75586771
C       -1.27343031       0.44667766      -0.13454063
C        0.17950785       0.05493619      -0.34428605
C        2.52275306       0.51013590      -0.10275028
C        2.39742754      -0.73314531      -0.69039445
N        1.61336803      -1.53285243      -1.07128718
H       -1.70301999      -0.46393555       1.78116488
H       -3.12922530      -0.19037816       0.80451468
H       -2.03606255      -1.51741558       0.40057415
H       -1.31143547       1.46757499       0.26239663
H       -1.76997763       0.52510416      -1.10895592
H        0.48163043      -0.24866548       0.65960938
H        0.33325078       0.34962214      -1.38495620
H        2.89087260       0.51354040       0.91714645
H        2.88479157       1.30535855      -0.74410318
15
Frame=12 idx=000248 GeodesicLength=0.7549556631146797 rxn_smarts="[C:1]([C:2]([C:3]([C:4]([C:5]#[N:6])([H:14])[H:15])([H:12])[H:13])([H:10])[H:11])([H:7])([H:8])[H:9]>>[C:1]([C:2]([C:3]([N:6]=[C:5]=[C:4]([H:14])[H:15])([H:12])[H:13])([H:10])[H:11])([H:7])([H:8])[H:9]"
C       -2.07460820      -0.49251853       0.74325327
C       -1.26027111       0.45336380      -0.12712660
C        0.19514191       0.05368360      -0.34032769
C        2.50696796       0.51212768      -0.11113535
C        2.39903871      -0.74461609      -0.67793162
N        1.60179115      -1.54033811      -1.04168599
H       -1.70051046      -0.49046445       1.77013709
H       -3.12201306      -0.19196757       0.79556844
H       -2.03471866      -1.51708438       0.36967227
H       -1.29386801       1.46531708       0.29168256
H       -1.75725904       0.55370204      -1.09892388
H        0.47859576      -0.21643644       0.68084364
H        0.31286332       0.32630310      -1.39395583
H        2.87973034       0.53340348       0.90709266
H        2.86911938       1.29552479      -0.76716298
15
Frame=13 idx=000248 GeodesicLength=0.8182473791461267 rxn_smarts="[C:1]([C:2]([C:3]([C:4]([C:5]#[N:6])([H:14])[H:15])([H:12])[H:13])([H:10])[H:11])([H:7])([H:8])[H:9]>>[C:1]([C:2]([C:3]([N:6]=[C:5]=[C:4]([H:14])[H:15])([H:12])[H:13])([H:10])[H:11])([H:7])([H:8])[H:9]"
C       -2.06838327      -0.49823623       0.73097592
C       -1.24782740       0.45984812      -0.12022195
C        0.21048306       0.05329982      -0.33650166
C        2.49189501       0.51331169      -0.11898540
C        2.40032535      -0.75586602      -0.66553367
N        1.58992851      -1.54653436      -1.01333502
H       -1.69711892      -0.51584537       1.75885751
H       -3.11458780      -0.19408105       0.78733086
H       -2.03242961      -1.51638890       0.33984503
H       -1.27817867       1.46280573       0.31918427
H       -1.74508932       0.58038603      -1.08919207
H        0.47528265      -0.18336816       0.70029602
H        0.29239560       0.30410452      -1.40123583
H        2.86890710       0.55156621       0.89741133
H        2.85439771       1.28499800      -0.78889535
15
Frame=14 idx=000248 GeodesicLength=0.8815917238520403 rxn_smarts="[C:1]([C:2]([C:3]([C:4]([C:5]#[N:6])([H:14])[H:15])([H:12])[H:13])([H:10])[H:11])([H:7])([H:8])[H:9]>>[C:1]([C:2]([C:3]([N:6]=[C:5]=[C:4]([H:14])[H:15])([H:12])[H:13])([H:10])[H:11])([H:7])([H:8])[H:9]"
C       -2.06170722      -0.50381642       0.71904613
C       -1.23616777       0.46619725      -0.11385559
C        0.22553311       0.05404478      -0.33283541
C        2.47759953       0.51364124      -0.12627587
C        2.40112324      -0.76703537      -0.65314881
N        1.57747315      -1.55149629      -0.98615822
H       -1.69274041      -0.54010267       1.74738466
H       -3.10693254      -0.19697963       0.77978406
H       -2.02900117      -1.51547910       0.31111582
H       -1.26454537       1.46019294       0.34487531
H       -1.73360733       0.60514143      -1.07987227
H        0.47169221      -0.14924507       0.71800660
H        0.27192419       0.28334476      -1.40690185
H        2.85849133       0.56794877       0.88816966
H        2.84086505       1.27364340      -0.80933421
15
Frame=15 idx=000248 GeodesicLength=0.9450842053013094 rxn_smarts="[C:1]([C:2]([C:3]([C:4]([C:5]#[N:6])([H:14])[H:15])([H:12])[H:13])([H:10])[H:11])([H:7])([H:8])[H:9]>>[C:1]([C:2]([C:3]([N:6]=[C:5]=[C:4]([H:14])[H:15])([H:12])[H:13])([H:10])[H:11])([H:7])([H:8])[H:9]"
C       -2.05432223      -0.50957631       0.70739821
C       -1.22554088       0.47259433      -0.10808680
C        0.24031095       0.05693836      -0.32924396
C        2.46437730       0.51281970      -0.13302503
C        2.40086528      -0.77855154      -0.64058220
N        1.56334818      -1.55519908      -0.95977888
H       -1.68714892      -0.56327512       1.73573222
H       -3.09898073      -0.20159365       0.77273060
H       -2.02356284      -1.51471323       0.28346772
H       -1.25380220       1.45773833       0.36866860
H       -1.72311465       0.62782237      -1.07114652
H        0.46781474      -0.11297318       0.73414137
H        0.25157153       0.26499234      -1.41096463
H        2.84888897       0.58216987       0.87935579
H        2.82929549       1.26080681      -0.82866650
15
Frame=16 idx=000248 GeodesicLength=1.008854889651858 rxn_smarts="[C:1]([C:2]([C:3]([C:4]([C:5]#[N:6])([H:14])[H:15])([H:12])[H:13])([H:10])[H:11])([H:7])([H:8])[H:9]>>[C:1]([C:2]([C:3]([N:6]=[C:5]=[C:4]([H:14])[H:15])([H:12])[H:13])([H:10])[H:11])([H:7])([H:8])[H:9]"
C       -2.04590604      -0.51575536       0.69612102
C       -1.21620874       0.47912943      -0.10310121
C        0.25480444       0.06288158      -0.32584643
C        2.45244960       0.51052547      -0.13906520
C        2.39897639      -0.79076547      -0.62778072
N        1.54655198      -1.55745393      -0.93425560
H       -1.67995760      -0.58506501       1.72407580
H       -3.09060027      -0.20875931       0.76611718
H       -2.01522069      -1.51449432       0.25728835
H       -1.24671522       1.45570747       0.39016072
H       -1.71405563       0.64799999      -1.06331436
H        0.46358258      -0.07371393       0.74863740
H        0.23150435       0.25021062      -1.41359599
H        2.84034611       0.59356923       0.87120948
H        2.82044872       1.24598352      -0.84665044
