15
Frame=0 idx=006884 GeodesicLength=0.0 rxn_smarts="[C:1]([C:2]1([O:5][C:6](=[O:7])[H:15])[C:3]([H:11])([H:12])[C:4]1([H:13])[H:14])([H:8])([H:9])[H:10]>>[C:1](=[C:2]1[C:3]([H:11])([H:12])[C:4]1([H:13])[H:14])([H:8])[H:10].[O:5]=[C:6]([O:7][H:9])[H:15]"
C       -0.34462799       1.35132989      -0.57387102
C       -0.55948527       0.06836838      -0.09492564
C       -1.15064271      -1.20500433      -0.48916583
C       -1.30905556      -0.65407011       0.92675410
O        1.27793958      -0.74968192       0.43896119
C        2.26271936      -0.00179596       0.28055611
O        2.23559452       1.14169698      -0.24962818
H       -0.48638538       1.50138053      -1.64052877
H        0.97217040       1.34351538      -0.46132438
H       -0.64887407       2.16994834       0.07187447
H       -1.98031639      -1.15266615      -1.18438876
H       -0.50321482      -2.06361506      -0.59093501
H       -2.24986316      -0.21158337       1.23259394
H       -0.76106443      -1.17372219       1.69904301
H        3.24510592      -0.36410047       0.63498473
15
Frame=1 idx=006884 GeodesicLength=0.05315708651643647 rxn_smarts="[C:1]([C:2]1([O:5][C:6](=[O:7])[H:15])[C:3]([H:11])([H:12])[C:4]1([H:13])[H:14])([H:8])([H:9])[H:10]>>[C:1](=[C:2]1[C:3]([H:11])([H:12])[C:4]1([H:13])[H:14])([H:8])[H:10].[O:5]=[C:6]([O:7][H:9])[H:15]"
C       -0.35207915       1.35378570      -0.56837901
C       -0.55263151       0.06752489      -0.08828857
C       -1.14757789      -1.20334145      -0.48840143
C       -1.31458991      -0.65369744       0.92638743
O        1.28174142      -0.74270808       0.45628222
C        2.27441184      -0.01079364       0.26784825
O        2.25050031       1.12633611      -0.27579055
H       -0.48141366       1.50046729      -1.63716273
H        0.97299599       1.36230831      -0.44806867
H       -0.67937140       2.16828943       0.07110002
H       -1.97394918      -1.14917921      -1.18730970
H       -0.49976718      -2.06192761      -0.58959733
H       -2.25787914      -0.21211841       1.22554058
H       -0.77399385      -1.17487841       1.70304512
H        3.25360331      -0.37006748       0.63279438
15
Frame=2 idx=006884 GeodesicLength=0.10635852194410114 rxn_smarts="[C:1]([C:2]1([O:5][C:6](=[O:7])[H:15])[C:3]([H:11])([H:12])[C:4]1([H:13])[H:14])([H:8])([H:9])[H:10]>>[C:1](=[C:2]1[C:3]([H:11])([H:12])[C:4]1([H:13])[H:14])([H:8])[H:10].[O:5]=[C:6]([O:7][H:9])[H:15]"
C       -0.35935951       1.35640504      -0.56267666
C       -0.54592768       0.06717013      -0.08103127
C       -1.14335995      -1.20169204      -0.48727705
C       -1.32084790      -0.65293491       0.92593350
O        1.28530734      -0.73415273       0.47660019
C        2.28559018      -0.02056055       0.25456878
O        2.26386595       1.11154629      -0.29941588
H       -0.47501799       1.49938155      -1.63361670
H        0.97386428       1.38174445      -0.43269276
H       -0.71154396       2.16647589       0.06900066
H       -1.96566479      -1.14645038      -1.19078594
H       -0.49458657      -2.05993335      -0.58686777
H       -2.26716352      -0.21273486       1.21717486
H       -0.78826697      -1.17506048       1.70767393
H        3.26311108      -0.37920406       0.62341210
15
Frame=3 idx=006884 GeodesicLength=0.15948132356221822 rxn_smarts="[C:1]([C:2]1([O:5][C:6](=[O:7])[H:15])[C:3]([H:11])([H:12])[C:4]1([H:13])[H:14])([H:8])([H:9])[H:10]>>[C:1](=[C:2]1[C:3]([H:11])([H:12])[C:4]1([H:13])[H:14])([H:8])[H:10].[O:5]=[C:6]([O:7][H:9])[H:15]"
C       -0.36644345       1.35908975      -0.55709683
C       -0.53931387       0.06715457      -0.07356276
C       -1.13871113      -1.19993817      -0.48593556
C       -1.32700624      -0.65195890       0.92553503
O        1.28894950      -0.72487968       0.49751032
C        2.29608166      -0.03095158       0.24102417
O        2.27594967       1.09753994      -0.32033453
H       -0.46772082       1.49821093      -1.63010016
H        0.97488409       1.40125983      -0.41674669
H       -0.74471660       2.16430559       0.06549009
H       -1.95683629      -1.14393238      -1.19414579
H       -0.48876826      -2.05769445      -0.58372559
H       -2.27644956      -0.21338737       1.20865449
H       -0.80247774      -1.17480652       1.71241321
H        3.27257906      -0.39001157       0.61102061
15
Frame=4 idx=006884 GeodesicLength=0.2123980853764952 rxn_smarts="[C:1]([C:2]1([O:5][C:6](=[O:7])[H:15])[C:3]([H:11])([H:12])[C:4]1([H:13])[H:14])([H:8])([H:9])[H:10]>>[C:1](=[C:2]1[C:3]([H:11])([H:12])[C:4]1([H:13])[H:14])([H:8])[H:10].[O:5]=[C:6]([O:7][H:9])[H:15]"
C       -0.37334761       1.36172307      -0.55182146
C       -0.53272634       0.06731037      -0.06619229
C       -1.13423322      -1.19796350      -0.48453736
C       -1.33250863      -0.65091031       0.92527484
O        1.29288933      -0.71572568       0.51723101
C        2.30588584      -0.04156292       0.22789860
O        2.28712228       1.08415555      -0.33904518
H       -0.46002177       1.49703116      -1.62670024
H        0.97612112       1.42038339      -0.40134113
H       -0.77832481       2.16158152       0.06064980
H       -1.94855588      -1.14111009      -1.19696147
H       -0.48322988      -2.05526607      -0.58097314
H       -2.28485844      -0.21399840       1.20081638
H       -0.81565842      -1.17458857       1.71686591
H        3.28144646      -0.40105953       0.59883572
15
Frame=5 idx=006884 GeodesicLength=0.2652170180942872 rxn_smarts="[C:1]([C:2]1([O:5][C:6](=[O:7])[H:15])[C:3]([H:11])([H:12])[C:4]1([H:13])[H:14])([H:8])([H:9])[H:10]>>[C:1](=[C:2]1[C:3]([H:11])([H:12])[C:4]1([H:13])[H:14])([H:8])[H:10].[O:5]=[C:6]([O:7][H:9])[H:15]"
C       -0.38016909       1.36440644      -0.54667407
C       -0.52619147       0.06771154      -0.05877186
C       -1.12962447      -1.19583503      -0.48304499
C       -1.33766367      -0.64977292       0.92508224
O        1.29699845      -0.70621634       0.53664023
C        2.31498863      -0.05224287       0.21549805
O        2.29760345       1.07130701      -0.35589567
H       -0.45219519       1.49600886      -1.62320242
H        0.97751903       1.43924695      -0.38667801
H       -0.81221966       2.15830393       0.05479809
H       -1.94025891      -1.13824719      -1.19950674
H       -0.47750138      -2.05260353      -0.57826986
H       -2.29287911      -0.21470312       1.19320763
H       -0.82833757      -1.17423669       1.72119692
H        3.28993094      -0.41312702       0.58562046
15
Frame=6 idx=006884 GeodesicLength=0.31798315702928476 rxn_smarts="[C:1]([C:2]1([O:5][C:6](=[O:7])[H:15])[C:3]([H:11])([H:12])[C:4]1([H:13])[H:14])([H:8])([H:9])[H:10]>>[C:1](=[C:2]1[C:3]([H:11])([H:12])[C:4]1([H:13])[H:14])([H:8])[H:10].[O:5]=[C:6]([O:7][H:9])[H:15]"
C       -0.38699957       1.36719025      -0.54161792
C       -0.51972402       0.06841215      -0.05119888
C       -1.12469031      -1.19358520      -0.48140416
C       -1.34261803      -0.64850898       0.92495461
O        1.30122989      -0.69612540       0.55624190
C        2.32337176      -0.06288956       0.20382663
O        2.30754776       1.05918453      -0.37064870
H       -0.44413663       1.49511109      -1.61960761
H        0.97897076       1.45802920      -0.37247431
H       -0.84663295       2.15450777       0.04780545
H       -1.93161497      -1.13548130      -1.20190997
H       -0.47127537      -2.04969948      -0.57537739
H       -2.30076772      -0.21552883       1.18560209
H       -0.84075922      -1.17363045       1.72555264
H        3.29809862      -0.42698580       0.57025564
15
Frame=7 idx=006884 GeodesicLength=0.37074681146149413 rxn_smarts="[C:1]([C:2]1([O:5][C:6](=[O:7])[H:15])[C:3]([H:11])([H:12])[C:4]1([H:13])[H:14])([H:8])([H:9])[H:10]>>[C:1](=[C:2]1[C:3]([H:11])([H:12])[C:4]1([H:13])[H:14])([H:8])[H:10].[O:5]=[C:6]([O:7][H:9])[H:15]"
C       -0.39391993       1.37015879      -0.53653223
C       -0.51334791       0.06951380      -0.04331960
C       -1.11912463      -1.19123169      -0.47954534
C       -1.34754960      -0.64708905       0.92484998
O        1.30550105      -0.68500354       0.57674511
C        2.33095660      -0.07356354       0.19271714
O        2.31706107       1.04778107      -0.38338221
H       -0.43588329       1.49440349      -1.61578687
H        0.98039377       1.47691523      -0.35855914
H       -0.88166713       2.15019099       0.03970641
H       -1.92210831      -1.13300428      -1.20434431
H       -0.46408374      -2.04645755      -0.57197449
H       -2.30883902      -0.21659640       1.17764009
H       -0.85324556      -1.17260216       1.73006430
H        3.30585663      -0.44341516       0.55172117
15
Frame=8 idx=006884 GeodesicLength=0.4234643757499131 rxn_smarts="[C:1]([C:2]1([O:5][C:6](=[O:7])[H:15])[C:3]([H:11])([H:12])[C:4]1([H:13])[H:14])([H:8])([H:9])[H:10]>>[C:1](=[C:2]1[C:3]([H:11])([H:12])[C:4]1([H:13])[H:14])([H:8])[H:10].[O:5]=[C:6]([O:7][H:9])[H:15]"
C       -0.40087124       1.37325819      -0.53140949
C       -0.50699873       0.07087199      -0.03536427
C       -1.11344783      -1.18866507      -0.47766626
C       -1.35207761      -0.64567192       0.92481638
O        1.30996297      -0.67360350       0.59676630
C        2.33793763      -0.08433426       0.18215155
O        2.32632960       1.03627579      -0.39565288
H       -0.42790676       1.49408199      -1.61167211
H        0.98195788       1.49561073      -0.34565717
H       -0.91670825       2.14522865       0.03093526
H       -1.91264273      -1.13032865      -1.20654341
H       -0.45673151      -2.04292712      -0.56881460
H       -2.31645548      -0.21787485       1.16999616
H       -0.86513548      -1.17164156       1.73438583
H        3.31278755      -0.46028042       0.53372874
15
Frame=9 idx=006884 GeodesicLength=0.4761822056100672 rxn_smarts="[C:1]([C:2]1([O:5][C:6](=[O:7])[H:15])[C:3]([H:11])([H:12])[C:4]1([H:13])[H:14])([H:8])([H:9])[H:10]>>[C:1](=[C:2]1[C:3]([H:11])([H:12])[C:4]1([H:13])[H:14])([H:8])[H:10].[O:5]=[C:6]([O:7][H:9])[H:15]"
C       -0.40790309       1.37652580      -0.52621576
C       -0.50069086       0.07253635      -0.02725075
C       -1.10751268      -1.18589313      -0.47571894
C       -1.35630694      -0.64423174       0.92484997
O        1.31457959      -0.66173317       0.61667173
C        2.34430136      -0.09515757       0.17214393
O        2.33539414       1.02475274      -0.40730753
H       -0.42008716       1.49412161      -1.60726037
H        0.98361074       1.51426625      -0.33348601
H       -0.95197241       2.13961394       0.02134523
H       -1.90296816      -1.12754685      -1.20859010
H       -0.44898608      -2.03906809      -0.56571776
H       -2.32379796      -0.21939823       1.16250261
H       -0.87660361      -1.17065777       1.73861448
H        3.31894314      -0.47813014       0.51541928
15
Frame=10 idx=006884 GeodesicLength=0.528977925419441 rxn_smarts="[C:1]([C:2]1([O:5][C:6](=[O:7])[H:15])[C:3]([H:11])([H:12])[C:4]1([H:13])[H:14])([H:8])([H:9])[H:10]>>[C:1](=[C:2]1[C:3]([H:11])([H:12])[C:4]1([H:13])[H:14])([H:8])[H:10].[O:5]=[C:6]([O:7][H:9])[H:15]"
C       -0.41507028       1.38004096      -0.52088096
C       -0.49444376       0.07460433      -0.01885678
C       -1.10105784      -1.18294083      -0.47362887
C       -1.36036937      -0.64273660       0.92492945
O        1.31930114      -0.64901729       0.63701406
C        2.34993911      -0.10609735       0.16257295
O        2.34427271       1.01330942      -0.41818327
H       -0.41233053       1.49453759      -1.60249076
H        0.98527933       1.53309182      -0.32180844
H       -0.98763104       2.13334845       0.01085203
H       -1.89265314      -1.12483671      -1.21060356
H       -0.44044837      -2.03481914      -0.56239980
H       -2.33111069      -0.22125833       1.15487932
H       -0.88788893      -1.16949409       1.74287428
H        3.32421168      -0.49773222       0.49573034
15
Frame=11 idx=006884 GeodesicLength=0.5818315201059221 rxn_smarts="[C:1]([C:2]1([O:5][C:6](=[O:7])[H:15])[C:3]([H:11])([H:12])[C:4]1([H:13])[H:14])([H:8])([H:9])[H:10]>>[C:1](=[C:2]1[C:3]([H:11])([H:12])[C:4]1([H:13])[H:14])([H:8])[H:10].[O:5]=[C:6]([O:7][H:9])[H:15]"
C       -0.42238455       1.38380879      -0.51539507
C       -0.48824634       0.07708717      -0.01017715
C       -1.09407772      -1.17978431      -0.47139395
C       -1.36421491      -0.64119256       0.92507158
O        1.32414599      -0.63546485       0.65769449
C        2.35482049      -0.11713091       0.15345106
O        2.35299385       1.00191156      -0.42833725
H       -0.40459163       1.49532094      -1.59735424
H        0.98695568       1.55214681      -0.31053607
H       -1.02373645       2.12635497      -0.00065225
H       -1.88170450      -1.12215937      -1.21256033
H       -0.43111887      -2.03014814      -0.55889679
H       -2.33832707      -0.22346876       1.14717447
H       -0.89891212      -1.16816222       1.74715806
H        3.32839815      -0.51911913       0.47475343
15
Frame=12 idx=006884 GeodesicLength=0.6347775593922843 rxn_smarts="[C:1]([C:2]1([O:5][C:6](=[O:7])[H:15])[C:3]([H:11])([H:12])[C:4]1([H:13])[H:14])([H:8])([H:9])[H:10]>>[C:1](=[C:2]1[C:3]([H:11])([H:12])[C:4]1([H:13])[H:14])([H:8])[H:10].[O:5]=[C:6]([O:7][H:9])[H:15]"
C       -0.42984155       1.38782607      -0.50973436
C       -0.48208941       0.07994453      -0.00128015
C       -1.08673331      -1.17638717      -0.46908050
C       -1.36775638      -0.63965409       0.92528380
O        1.32915342      -0.62129851       0.67834143
C        2.35904657      -0.12829821       0.14475504
O        2.36159450       0.99024653      -0.43832834
H       -0.39702450       1.49655723      -1.59181816
H        0.98869358       1.57135214      -0.29985018
H       -1.06006417       2.11857613      -0.01301758
H       -1.87039448      -1.11936198      -1.21440213
H       -0.42123530      -2.02506437      -0.55543027
H       -2.34529129      -0.22602672       1.13956937
H       -0.90950461      -1.16682310       1.75136696
H        3.33144692      -0.54158849       0.45362508
15
Frame=13 idx=006884 GeodesicLength=0.6877838521660453 rxn_smarts="[C:1]([C:2]1([O:5][C:6](=[O:7])[H:15])[C:3]([H:11])([H:12])[C:4]1([H:13])[H:14])([H:8])([H:9])[H:10]>>[C:1](=[C:2]1[C:3]([H:11])([H:12])[C:4]1([H:13])[H:14])([H:8])[H:10].[O:5]=[C:6]([O:7][H:9])[H:15]"
C       -0.43743839       1.39206893      -0.50389402
C       -0.47596508       0.08312388       0.00775773
C       -1.07918792      -1.17271899      -0.46675417
C       -1.37091649      -0.63815879       0.92557526
O        1.33434612      -0.60674136       0.69860022
C        2.36272129      -0.13959760       0.13652053
O        2.37007120       0.97807338      -0.44856093
H       -0.38973792       1.49828902      -1.58587983
H        0.99053749       1.59063359      -0.28987132
H       -1.09642201       2.10995610      -0.02613514
H       -1.85899401      -1.11630692      -1.21607356
H       -0.41104041      -2.01958198      -0.55221319
H       -2.35185687      -0.22890092       1.13224280
H       -0.91951649      -1.16561088       1.75541381
H        3.33339948      -0.56452745       0.43327182
15
Frame=14 idx=006884 GeodesicLength=0.7408311997000578 rxn_smarts="[C:1]([C:2]1([O:5][C:6](=[O:7])[H:15])[C:3]([H:11])([H:12])[C:4]1([H:13])[H:14])([H:8])([H:9])[H:10]>>[C:1](=[C:2]1[C:3]([H:11])([H:12])[C:4]1([H:13])[H:14])([H:8])[H:10].[O:5]=[C:6]([O:7][H:9])[H:15]"
C       -0.44518425       1.39651993      -0.49787554
C       -0.46987574       0.08659226       0.01688946
C       -1.07153774      -1.16877012      -0.46445054
C       -1.37367021      -0.63672346       0.92595021
O        1.33972745      -0.59191295       0.71829851
C        2.36592166      -0.15102546       0.12875216
O        2.37840924       0.96528822      -0.45921170
H       -0.38276152       1.50052745      -1.57954702
H        0.99249449       1.60997457      -0.28060014
H       -1.13269137       2.10045923      -0.03996781
H       -1.84765777      -1.11293235      -1.21755002
H       -0.40067133      -2.01371588      -0.54935186
H       -2.35796449      -0.23206484       1.12528509
H       -0.92888506      -1.16459121       1.75925997
H        3.33434664      -0.58762540       0.41411922
15
Frame=15 idx=006884 GeodesicLength=0.7939097248838453 rxn_smarts="[C:1]([C:2]1([O:5][C:6](=[O:7])[H:15])[C:3]([H:11])([H:12])[C:4]1([H:13])[H:14])([H:8])([H:9])[H:10]>>[C:1](=[C:2]1[C:3]([H:11])([H:12])[C:4]1([H:13])[H:14])([H:8])[H:10].[O:5]=[C:6]([O:7][H:9])[H:15]"
C       -0.45309520       1.40117073      -0.49167080
C       -0.46382894       0.09032833       0.02608196
C       -1.06383922      -1.16453740      -0.46219835
C       -1.37601754      -0.63535918       0.92640305
O        1.34528991      -0.57686897       0.73736166
C        2.36870424      -0.16260183       0.12143365
O        2.38657615       0.95178188      -0.47044014
H       -0.37614001       1.50329240      -1.57281876
H        0.99456622       1.62936584      -0.27204205
H       -1.16874646       2.09006862      -0.05444017
H       -1.83647355      -1.10920875      -1.21883213
H       -0.39020212      -2.00747249      -0.54690940
H       -2.36359831      -0.23550321       1.11873358
H       -0.93759174      -1.16380184       1.76288210
H        3.33439656      -0.61065413       0.39645581
15
Frame=16 idx=006884 GeodesicLength=0.8470072658463986 rxn_smarts="[C:1]([C:2]1([O:5][C:6](=[O:7])[H:15])[C:3]([H:11])([H:12])[C:4]1([H:13])[H:14])([H:8])([H:9])[H:10]>>[C:1](=[C:2]1[C:3]([H:11])([H:12])[C:4]1([H:13])[H:14])([H:8])[H:10].[O:5]=[C:6]([O:7][H:9])[H:15]"
C       -0.46118894       1.40600933      -0.48528020
C       -0.45783366       0.09431018       0.03530228
C       -1.05614096      -1.16002478      -0.46002145
C       -1.37796636      -0.63407278       0.92692665
O        1.35102258      -0.56165205       0.75573842
C        2.37111900      -0.17433961       0.11455249
O        2.39453388       0.93747725      -0.48234661
H       -0.36990213       1.50659335      -1.56570312
H        0.99674549       1.64880684      -0.26418198
H       -1.20446589       2.07878130      -0.06948186
H       -1.82551487      -1.10512376      -1.21992371
H       -0.37969470      -2.00086346      -0.54493075
H       -2.36875501      -0.23919786       1.11261177
H       -0.94563061      -1.16326614       1.76626458
H        3.33367220      -0.63343780       0.38047349
