10
Frame=0 idx=004375 GeodesicLength=0.0 rxn_smarts="[N:1](=[C:2]1/[C:3]([H:7])([H:8])[C:4]([H:9])([H:10])[O:5]1)\[H:6]>>[H:6][H:8].[N-:1]=[C:2]1[C+:3]([H:7])[C:4]([H:9])([H:10])[O:5]1"
N        2.08636609      -0.00557979       0.14314294
C        0.89656906       0.25228659       0.24663000
C       -0.35084759      -0.41560082      -0.14041789
C       -1.12109701       0.76099391       0.39583498
O        0.12831303       1.27570424       0.88862121
H        1.53474525      -1.13332849      -1.09145652
H       -0.58442862      -1.44298101       0.12217784
H        0.80613539      -1.25279987      -1.44841059
H       -1.80010055       0.54966637       1.22452013
H       -1.59565504       1.41163887      -0.34064210
10
Frame=1 idx=004375 GeodesicLength=0.0876396679314565 rxn_smarts="[N:1](=[C:2]1/[C:3]([H:7])([H:8])[C:4]([H:9])([H:10])[O:5]1)\[H:6]>>[H:6][H:8].[N-:1]=[C:2]1[C+:3]([H:7])[C:4]([H:9])([H:10])[O:5]1"
N        2.08308458      -0.01898119       0.14555822
C        0.89397367       0.23812012       0.27438265
C       -0.34984205      -0.42244082      -0.13577433
C       -1.11809414       0.75928036       0.39249413
O        0.13091239       1.28644149       0.87457226
H        1.54999602      -1.11118910      -1.10688985
H       -0.58932948      -1.44783863       0.12911476
H        0.79102139      -1.24156195      -1.44910938
H       -1.79424831       0.55944215       1.22636718
H       -1.59747407       1.39872757      -0.35071565
10
Frame=2 idx=004375 GeodesicLength=0.1752926671446174 rxn_smarts="[N:1](=[C:2]1/[C:3]([H:7])([H:8])[C:4]([H:9])([H:10])[O:5]1)\[H:6]>>[H:6][H:8].[N-:1]=[C:2]1[C+:3]([H:7])[C:4]([H:9])([H:10])[O:5]1"
N        2.07896897      -0.03336176       0.14954089
C        0.89094059       0.22460780       0.30083120
C       -0.34895220      -0.42922792      -0.13155201
C       -1.11501305       0.75749175       0.38925025
O        0.13414723       1.29679161       0.85902062
H        1.56556395      -1.08811909      -1.12173586
H       -0.59436603      -1.45258026       0.13569617
H        0.77613040      -1.23048520      -1.44974184
H       -1.78750593       0.56928739       1.22879244
H       -1.59991394       1.38559568      -0.36010187
10
Frame=3 idx=004375 GeodesicLength=0.2629542999186555 rxn_smarts="[N:1](=[C:2]1/[C:3]([H:7])([H:8])[C:4]([H:9])([H:10])[O:5]1)\[H:6]>>[H:6][H:8].[N-:1]=[C:2]1[C+:3]([H:7])[C:4]([H:9])([H:10])[O:5]1"
N        2.07412121      -0.04872451       0.15490307
C        0.88747784       0.21205713       0.32559015
C       -0.34819685      -0.43587820      -0.12784773
C       -1.11191087       0.75565428       0.38613206
O        0.13789671       1.30660380       0.84230711
H        1.58158409      -1.06442923      -1.13574097
H       -0.59942421      -1.45711943       0.14196214
H        0.76143393      -1.21967471      -1.45034430
H       -1.78000798       0.57907826       1.23170689
H       -1.60297388       1.37243260      -0.36866841
10
Frame=4 idx=004375 GeodesicLength=0.3506062002014211 rxn_smarts="[N:1](=[C:2]1/[C:3]([H:7])([H:8])[C:4]([H:9])([H:10])[O:5]1)\[H:6]>>[H:6][H:8].[N-:1]=[C:2]1[C+:3]([H:7])[C:4]([H:9])([H:10])[O:5]1"
N        2.06866579      -0.06484668       0.16124062
C        0.88362235       0.20055777       0.34858513
C       -0.34757985      -0.44237090      -0.12465514
C       -1.10882116       0.75378594       0.38314541
O        0.14203499       1.31574449       0.82482142
H        1.59816692      -1.04045273      -1.14867432
H       -0.60443335      -1.46143710       0.14798460
H        0.74682090      -1.20912534      -1.45100534
H       -1.77194652       0.58874910       1.23495846
H       -1.60653008       1.35939547      -0.37640084
10
Frame=5 idx=004375 GeodesicLength=0.43825543618395224 rxn_smarts="[N:1](=[C:2]1/[C:3]([H:7])([H:8])[C:4]([H:9])([H:10])[O:5]1)\[H:6]>>[H:6][H:8].[N-:1]=[C:2]1[C+:3]([H:7])[C:4]([H:9])([H:10])[O:5]1"
N        2.06271937      -0.08142066       0.16812570
C        0.87942595       0.19010357       0.36987066
C       -0.34709501      -0.44870815      -0.12192565
C       -1.10576668       0.75189639       0.38028965
O        0.14644937       1.32413129       0.80691122
H        1.61543743      -1.01659502      -1.16029335
H       -0.60934086      -1.46554337       0.15382858
H        0.73211890      -1.19871587      -1.45187920
H       -1.76350215       0.59825542       1.23840558
H       -1.61044631       1.34659641      -0.38333318
10
Frame=6 idx=004375 GeodesicLength=0.5258754943427094 rxn_smarts="[N:1](=[C:2]1/[C:3]([H:7])([H:8])[C:4]([H:9])([H:10])[O:5]1)\[H:6]>>[H:6][H:8].[N-:1]=[C:2]1[C+:3]([H:7])[C:4]([H:9])([H:10])[O:5]1"
N        2.05637614      -0.09819910       0.17524712
C        0.87494487       0.18063987       0.38955070
C       -0.34673069      -0.45491008      -0.11958454
C       -1.10275940       0.74998966       0.37755608
O        0.15104594       1.33173318       0.78884287
H        1.63353666      -0.99312473      -1.17048048
H       -0.61410676      -1.46946316       0.15957378
H        0.71711204      -1.18834208      -1.45310143
H       -1.75482223       0.60758237       1.24193062
H       -1.61459656       1.33409408      -0.38953472
10
Frame=7 idx=004375 GeodesicLength=0.6134658273876882 rxn_smarts="[N:1](=[C:2]1/[C:3]([H:7])([H:8])[C:4]([H:9])([H:10])[O:5]1)\[H:6]>>[H:6][H:8].[N-:1]=[C:2]1[C+:3]([H:7])[C:4]([H:9])([H:10])[O:5]1"
N        2.04971318      -0.11501756       0.18241471
C        0.87023245       0.17209297       0.40773764
C       -0.34647857      -0.46100241      -0.11755491
C       -1.09980758       0.74806673       0.37493328
O        0.15575545       1.33856190       0.77079108
H        1.65263536      -0.97018773      -1.17920790
H       -0.61870910      -1.47322535       0.16529738
H        0.70156372      -1.17792851      -1.45478105
H       -1.74601210       0.61673130       1.24545264
H       -1.61889283       1.32190866      -0.39508286
10
Frame=8 idx=004375 GeodesicLength=0.700997559198692 rxn_smarts="[N:1](=[C:2]1/[C:3]([H:7])([H:8])[C:4]([H:9])([H:10])[O:5]1)\[H:6]>>[H:6][H:8].[N-:1]=[C:2]1[C+:3]([H:7])[C:4]([H:9])([H:10])[O:5]1"
N        2.04279760      -0.13185187       0.18956410
C        0.86534274       0.16434167       0.42458010
C       -0.34634039      -0.46704112      -0.11574223
C       -1.09690970       0.74613441       0.37239401
O        0.16054858       1.34464203       0.75287303
H        1.67289305      -0.94752400      -1.18668483
H       -0.62317082      -1.47688326       0.17111445
H        0.68524490      -1.16761424      -1.45689371
H       -1.73716578       0.62575016       1.24888833
H       -1.62324018       1.31004622      -0.40009326
10
Frame=9 idx=004375 GeodesicLength=0.7886665474024953 rxn_smarts="[N:1](=[C:2]1/[C:3]([H:7])([H:8])[C:4]([H:9])([H:10])[O:5]1)\[H:6]>>[H:6][H:8].[N-:1]=[C:2]1[C+:3]([H:7])[C:4]([H:9])([H:10])[O:5]1"
N        2.03564258      -0.14856900       0.19661387
C        0.86029021       0.15739184       0.44007604
C       -0.34630964      -0.47299242      -0.11414317
C       -1.09408284       0.74417253       0.36996189
O        0.16535391       1.35007135       0.73504404
H        1.69462318      -0.92571395      -1.19255751
H       -0.62743719      -1.48040754       0.17697781
H        0.66787552      -1.15698029      -1.45974318
H       -1.72823178       0.63458924       1.25230689
H       -1.62772395       1.29843824      -0.40453668
10
Frame=10 idx=004375 GeodesicLength=0.8762662189084653 rxn_smarts="[N:1](=[C:2]1/[C:3]([H:7])([H:8])[C:4]([H:9])([H:10])[O:5]1)\[H:6]>>[H:6][H:8].[N-:1]=[C:2]1[C+:3]([H:7])[C:4]([H:9])([H:10])[O:5]1"
N        2.02828771      -0.16542457       0.20365601
C        0.85512369       0.15098596       0.45447494
C       -0.34641630      -0.47899479      -0.11260358
C       -1.09128817       0.74220636       0.36755736
O        0.17022662       1.35479629       0.71742841
H        1.71789988      -0.90339766      -1.19763939
H       -0.63165823      -1.48389576       0.18314075
H        0.64928166      -1.14681468      -1.46289829
H       -1.71934991       0.64341729       1.25552915
H       -1.63210696       1.28712155      -0.40864536
10
Frame=11 idx=004375 GeodesicLength=0.9638557236924383 rxn_smarts="[N:1](=[C:2]1/[C:3]([H:7])([H:8])[C:4]([H:9])([H:10])[O:5]1)\[H:6]>>[H:6][H:8].[N-:1]=[C:2]1[C+:3]([H:7])[C:4]([H:9])([H:10])[O:5]1"
N        2.02072092      -0.18252445       0.21070653
C        0.84985476       0.14501602       0.46785055
C       -0.34668222      -0.48508625      -0.11107627
C       -1.08851137       0.74023179       0.36516225
O        0.17517742       1.35884449       0.69997877
H        1.74296989      -0.88022082      -1.20201040
H       -0.63589507      -1.48735915       0.18966595
H        0.62923201      -1.13724332      -1.46634656
H       -1.71049970       0.65228535       1.25854982
H       -1.63636663       1.27605635      -0.41248064
10
Frame=12 idx=004375 GeodesicLength=1.0514189457134613 rxn_smarts="[N:1](=[C:2]1/[C:3]([H:7])([H:8])[C:4]([H:9])([H:10])[O:5]1)\[H:6]>>[H:6][H:8].[N-:1]=[C:2]1[C+:3]([H:7])[C:4]([H:9])([H:10])[O:5]1"
N        2.01292440      -0.20006276       0.21779201
C        0.84449909       0.13932346       0.48030268
C       -0.34714431      -0.49133831      -0.10949437
C       -1.08572394       0.73825420       0.36273834
O        0.18025466       1.36219983       0.68267580
H        1.77005792      -0.85543070      -1.20590529
H       -0.64026216      -1.49082925       0.19667008
H        0.60750000      -1.12863517      -1.46994954
H       -1.70168720       0.66128476       1.26131705
H       -1.64041847       1.26523393      -0.41614675
10
Frame=13 idx=004375 GeodesicLength=1.1389861432406148 rxn_smarts="[N:1](=[C:2]1/[C:3]([H:7])([H:8])[C:4]([H:9])([H:10])[O:5]1)\[H:6]>>[H:6][H:8].[N-:1]=[C:2]1[C+:3]([H:7])[C:4]([H:9])([H:10])[O:5]1"
N        2.00486155      -0.21822131       0.22490212
C        0.83906332       0.13378018       0.49187011
C       -0.34784567      -0.49780372      -0.10781952
C       -1.08290332       0.73627466       0.36026233
O        0.18550227       1.36485044       0.66545529
H        1.79947719      -0.82843558      -1.20935992
H       -0.64486433      -1.49431573       0.20423230
H        0.58381632      -1.12125335      -1.47366281
H       -1.69288033       0.67048952       1.26381901
H       -1.64422701       1.25463487      -0.41969892
10
Frame=14 idx=004375 GeodesicLength=1.2265312880340422 rxn_smarts="[N:1](=[C:2]1/[C:3]([H:7])([H:8])[C:4]([H:9])([H:10])[O:5]1)\[H:6]>>[H:6][H:8].[N-:1]=[C:2]1[C+:3]([H:7])[C:4]([H:9])([H:10])[O:5]1"
N        1.99648348      -0.23725583       0.23199656
C        0.83356002       0.12820403       0.50260925
C       -0.34884828      -0.50456815      -0.10599637
C       -1.08000798       0.73430108       0.35768932
O        0.19100531       1.36673638       0.64828879
H        1.83153673      -0.79828037      -1.21249007
H       -0.64986406      -1.49784486       0.21248517
H        0.55788832      -1.11557104      -1.47733994
H       -1.68406321       0.68000378       1.26599616
H       -1.64769034       1.24427498      -0.42323886
10
Frame=15 idx=004375 GeodesicLength=1.3140586587482688 rxn_smarts="[N:1](=[C:2]1/[C:3]([H:7])([H:8])[C:4]([H:9])([H:10])[O:5]1)\[H:6]>>[H:6][H:8].[N-:1]=[C:2]1[C+:3]([H:7])[C:4]([H:9])([H:10])[O:5]1"
N        1.98772251      -0.25741891       0.23896091
C        0.82799925       0.12242415       0.51251728
C       -0.35022661      -0.51170889      -0.10399266
C       -1.07699712       0.73233817       0.35498332
O        0.19685249       1.36779089       0.63111743
H        1.86664535      -0.76407815      -1.21520651
H       -0.65542768      -1.50142649       0.22154158
H        0.52935455      -1.11200988      -1.48090342
H       -1.67518614       0.68991982       1.26781533
H       -1.65073660       1.23416929      -0.42683326
10
Frame=16 idx=004375 GeodesicLength=1.4015644079783607 rxn_smarts="[N:1](=[C:2]1/[C:3]([H:7])([H:8])[C:4]([H:9])([H:10])[O:5]1)\[H:6]>>[H:6][H:8].[N-:1]=[C:2]1[C+:3]([H:7])[C:4]([H:9])([H:10])[O:5]1"
N        1.97849026      -0.27896679       0.24559338
C        0.82239005       0.11627649       0.52152373
C       -0.35207004      -0.51929586      -0.10179835
C       -1.07382973       0.73038560       0.35211619
O        0.20313503       1.36793417       0.61384340
H        1.90532717      -0.72497965      -1.21720648
H       -0.66172555      -1.50504944       0.23150286
H        0.49776760      -1.11095330      -1.48433247
H       -1.66616309       0.70032106       1.26926967
H       -1.65332169       1.22432772      -0.43051193
