13
Frame=0 idx=009968 GeodesicLength=0.0 rxn_smarts="[C:1]([C@@:2]([O:3][H:12])([C:4](=[O:5])[C:6]#[C:7][H:13])[H:11])([H:8])([H:9])[H:10]>>[C:1]([C@:2]1([H:11])[C:4](=[O:5])/[C:6]1=[C:7](/[O:3][H:12])[H:13])([H:8])([H:9])[H:10]"
C       -1.40626295       0.93663958      -0.27987156
C        0.04374375       0.74068598      -0.11417566
O        0.14269088      -0.76814730       1.28736520
C        0.81297699       0.01614544      -1.14501596
O        0.50996888       0.02936543      -2.32399609
C        1.76118092      -0.80805443      -0.44717460
C        1.41119526      -1.23892241       0.73357963
H       -1.92033964       1.17401037       0.64894471
H       -1.87042951       0.09611828      -0.79275960
H       -1.49387858       1.79454194      -0.96023897
H        0.57740958       1.35256436       0.60323049
H       -0.51405750      -1.47625186       1.33902924
H        1.94580186      -1.84869538       1.45108323
13
Frame=1 idx=009968 GeodesicLength=0.12151238755591678 rxn_smarts="[C:1]([C@@:2]([O:3][H:12])([C:4](=[O:5])[C:6]#[C:7][H:13])[H:11])([H:8])([H:9])[H:10]>>[C:1]([C@:2]1([H:11])[C:4](=[O:5])/[C:6]1=[C:7](/[O:3][H:12])[H:13])([H:8])([H:9])[H:10]"
C       -1.40829254       0.95080107      -0.28275265
C        0.03784810       0.72461748      -0.10377491
O        0.13100244      -0.78116230       1.30147361
C        0.79892413       0.00560968      -1.14618514
O        0.48890366      -0.03295472      -2.32124937
C        1.77499133      -0.75819018      -0.42206182
C        1.44257056      -1.23951320       0.74170320
H       -1.92529760       1.18634515       0.64504217
H       -1.88341286       0.12057836      -0.80254625
H       -1.47631297       1.81565687      -0.95590252
H        0.56337283       1.34939616       0.61000595
H       -0.53444255      -1.48261702       1.29602431
H        1.99014547      -1.85856735       1.44022343
13
Frame=2 idx=009968 GeodesicLength=0.24291968450536056 rxn_smarts="[C:1]([C@@:2]([O:3][H:12])([C:4](=[O:5])[C:6]#[C:7][H:13])[H:11])([H:8])([H:9])[H:10]>>[C:1]([C@:2]1([H:11])[C:4](=[O:5])/[C:6]1=[C:7](/[O:3][H:12])[H:13])([H:8])([H:9])[H:10]"
C       -1.40980137       0.96549077      -0.28606476
C        0.03147789       0.70814386      -0.09259375
O        0.11723671      -0.79653140       1.31457323
C        0.78509898      -0.00443741      -1.14682159
O        0.46906376      -0.09472692      -2.31600768
C        1.78269364      -0.71277669      -0.39904385
C        1.47358935      -1.24087956       0.74835389
H       -1.93061665       1.19886800       0.64028208
H       -1.89537959       0.14613577      -0.81358970
H       -1.45704018       1.83721978      -0.95144829
H        0.54886979       1.34446192       0.61848664
H       -0.55442571      -1.48907298       1.25431991
H        2.03923336      -1.86189513       1.42955386
13
Frame=3 idx=009968 GeodesicLength=0.36425199188479107 rxn_smarts="[C:1]([C@@:2]([O:3][H:12])([C:4](=[O:5])[C:6]#[C:7][H:13])[H:11])([H:8])([H:9])[H:10]>>[C:1]([C@:2]1([H:11])[C:4](=[O:5])/[C:6]1=[C:7](/[O:3][H:12])[H:13])([H:8])([H:9])[H:10]"
C       -1.41075361       0.98070625      -0.28968401
C        0.02459505       0.69119864      -0.08079272
O        0.10142643      -0.81422564       1.32653580
C        0.77122003      -0.01419566      -1.14714582
O        0.45012594      -0.15596880      -2.30849208
C        1.78529116      -0.67157561      -0.37789799
C        1.50451526      -1.24280386       0.75366592
H       -1.93614087       1.21161590       0.63483281
H       -1.90638868       0.17287381      -0.82576825
H       -1.43610789       1.85921624      -0.94663761
H        0.53401198       1.33777533       0.62840742
H       -0.57430261      -1.49576934       1.21359308
H        2.09250782      -1.85884727       1.41938347
13
Frame=4 idx=009968 GeodesicLength=0.4855439271812789 rxn_smarts="[C:1]([C@@:2]([O:3][H:12])([C:4](=[O:5])[C:6]#[C:7][H:13])[H:11])([H:8])([H:9])[H:10]>>[C:1]([C@:2]1([H:11])[C:4](=[O:5])/[C:6]1=[C:7](/[O:3][H:12])[H:13])([H:8])([H:9])[H:10]"
C       -1.41113697       0.99636247      -0.29352825
C        0.01716849       0.67378667      -0.06851357
O        0.08370675      -0.83401288       1.33740289
C        0.75711804      -0.02384169      -1.14726772
O        0.43193643      -0.21668558      -2.29885431
C        1.78365595      -0.63419716      -0.35833369
C        1.53567759      -1.24488729       0.75786570
H       -1.94179423       1.22455455       0.62879365
H       -1.91642217       0.20070890      -0.83896496
H       -1.41364012       1.88149882      -0.94134128
H        0.51884009       1.32950986       0.63949596
H       -0.59423485      -1.50259564       1.17380022
H        2.14912499      -1.85020102       1.40944535
13
Frame=5 idx=009968 GeodesicLength=0.6067898325367748 rxn_smarts="[C:1]([C@@:2]([O:3][H:12])([C:4](=[O:5])[C:6]#[C:7][H:13])[H:11])([H:8])([H:9])[H:10]>>[C:1]([C@:2]1([H:11])[C:4](=[O:5])/[C:6]1=[C:7](/[O:3][H:12])[H:13])([H:8])([H:9])[H:10]"
C       -1.41097430       1.01230876      -0.29760754
C        0.00913584       0.65599519      -0.05586362
O        0.06426879      -0.85539734       1.34743005
C        0.74269374      -0.03350806      -1.14713416
O        0.41456760      -0.27681862      -2.28713424
C        1.77849466      -0.60011197      -0.33990981
C        1.56739803      -1.24654055       0.76134830
H       -1.94759877       1.23759901       0.62210736
H       -1.92536995       0.22940896      -0.85311109
H       -1.38983901       1.90381137      -0.93559503
H        0.50327021       1.32000452       0.65145557
H       -0.61423201      -1.50924839       1.13531470
H        2.20818517      -1.83750288       1.39869952
13
Frame=6 idx=009968 GeodesicLength=0.7280102112352697 rxn_smarts="[C:1]([C@@:2]([O:3][H:12])([C:4](=[O:5])[C:6]#[C:7][H:13])[H:11])([H:8])([H:9])[H:10]>>[C:1]([C@:2]1([H:11])[C:4](=[O:5])/[C:6]1=[C:7](/[O:3][H:12])[H:13])([H:8])([H:9])[H:10]"
C       -1.41022239       1.02848700      -0.30184469
C        0.00049928       0.63777062      -0.04293372
O        0.04311702      -0.87831385       1.35662442
C        0.72783682      -0.04342879      -1.14680640
O        0.39790930      -0.33626297      -2.27351640
C        1.77028284      -0.56918524      -0.32249423
C        1.59984140      -1.24756588       0.76419764
H       -1.95347392       1.25071193       0.61486176
H       -1.93319890       0.25896001      -0.86815147
H       -1.36471665       1.92607941      -0.92923749
H        0.48737700       1.30927110       0.66413700
H       -0.63457400      -1.51570064       1.09803613
H        2.26932221      -1.82082271       1.38712744
13
Frame=7 idx=009968 GeodesicLength=0.8491934763359369 rxn_smarts="[C:1]([C@@:2]([O:3][H:12])([C:4](=[O:5])[C:6]#[C:7][H:13])[H:11])([H:8])([H:9])[H:10]>>[C:1]([C@:2]1([H:11])[C:4](=[O:5])/[C:6]1=[C:7](/[O:3][H:12])[H:13])([H:8])([H:9])[H:10]"
C       -1.40885960       1.04480269      -0.30622348
C       -0.00876541       0.61911745      -0.02978362
O        0.02027390      -0.90253348       1.36512117
C        0.71248963      -0.05377750      -1.14623873
O        0.38198600      -0.39489613      -2.25813177
C        1.75941531      -0.54118305      -0.30583751
C        1.63315443      -1.24766693       0.76658670
H       -1.95940446       1.26383860       0.60703621
H       -1.93981205       0.28925318      -0.88405455
H       -1.33833020       1.94815555      -0.92222279
H        0.47114388       1.29742714       0.67739387
H       -0.65545662      -1.52181300       1.06213612
H        2.33216520      -1.80072454       1.37421837
13
Frame=8 idx=009968 GeodesicLength=0.9703642920623484 rxn_smarts="[C:1]([C@@:2]([O:3][H:12])([C:4](=[O:5])[C:6]#[C:7][H:13])[H:11])([H:8])([H:9])[H:10]>>[C:1]([C@:2]1([H:11])[C:4](=[O:5])/[C:6]1=[C:7](/[O:3][H:12])[H:13])([H:8])([H:9])[H:10]"
C       -1.40684540       1.06120263      -0.31070707
C       -0.01866848       0.60001147      -0.01644907
O       -0.00433964      -0.92795406       1.37298490
C        0.69661862      -0.06473152      -1.14540409
O        0.36676995      -0.45265889      -2.24114580
C        1.74619779      -0.51598535      -0.28976045
C        1.66743038      -1.24666403       0.76859393
H       -1.96535659       1.27697864       0.59864253
H       -1.94513333       0.32024057      -0.90078391
H       -1.31066227       1.96994428      -0.91447215
H        0.45458587       1.28450400       0.69116356
H       -0.67715899      -1.52755518       1.02764496
H        2.39656209      -1.77733256       1.35969264
13
Frame=9 idx=009968 GeodesicLength=1.0914923081935304 rxn_smarts="[C:1]([C@@:2]([O:3][H:12])([C:4](=[O:5])[C:6]#[C:7][H:13])[H:11])([H:8])([H:9])[H:10]>>[C:1]([C@:2]1([H:11])[C:4](=[O:5])/[C:6]1=[C:7](/[O:3][H:12])[H:13])([H:8])([H:9])[H:10]"
C       -1.40435960       1.07742153      -0.31555977
C       -0.02934302       0.58083686      -0.00285249
O       -0.03051000      -0.95353283       1.38095052
C        0.68046620      -0.07613867      -1.14378313
O        0.35283790      -0.50969903      -2.22210881
C        1.73113624      -0.49253474      -0.27331422
C        1.70313714      -1.24313501       0.77121945
H       -1.97170162       1.29002128       0.58918688
H       -1.94890967       0.35127478      -0.91839604
H       -1.28219723       1.99095601      -0.90651344
H        0.43721807       1.27132615       0.70529216
H       -0.69943213      -1.53225997       0.99545617
H        2.46165773      -1.75453635       1.34042271
13
Frame=10 idx=009968 GeodesicLength=1.2125940204841041 rxn_smarts="[C:1]([C@@:2]([O:3][H:12])([C:4](=[O:5])[C:6]#[C:7][H:13])[H:11])([H:8])([H:9])[H:10]>>[C:1]([C@:2]1([H:11])[C:4](=[O:5])/[C:6]1=[C:7](/[O:3][H:12])[H:13])([H:8])([H:9])[H:10]"
C       -1.40118423       1.09361384      -0.32055330
C       -0.04071929       0.56126384       0.01095237
O       -0.05870765      -0.97995755       1.38855533
C        0.66383636      -0.08837835      -1.14164753
O        0.33971826      -0.56587340      -2.20154618
C        1.71415698      -0.47154288      -0.25688844
C        1.73997225      -1.23786621       0.77381493
H       -1.97809489       1.30314094       0.57898610
H       -1.95118808       0.38278754      -0.93680010
H       -1.25248455       2.01143382      -0.89787396
H        0.41938562       1.25725677       0.71990505
H       -0.72304042      -1.53644156       0.96485797
H        2.52834963      -1.72943679       1.31823775
13
Frame=11 idx=009968 GeodesicLength=1.333650842198228 rxn_smarts="[C:1]([C@@:2]([O:3][H:12])([C:4](=[O:5])[C:6]#[C:7][H:13])[H:11])([H:8])([H:9])[H:10]>>[C:1]([C@:2]1([H:11])[C:4](=[O:5])/[C:6]1=[C:7](/[O:3][H:12])[H:13])([H:8])([H:9])[H:10]"
C       -1.39721899       1.10976239      -0.32565344
C       -0.05280987       0.54123020       0.02499458
O       -0.08916757      -1.00726109       1.39577946
C        0.64673354      -0.10158488      -1.13890713
O        0.32733363      -0.62125027      -2.17950713
C        1.69536951      -0.45304470      -0.24028735
C        1.77798871      -1.23073817       0.77639914
H       -1.98443312       1.31641211       0.56800955
H       -1.95183859       0.41478810      -0.95594190
H       -1.22139304       2.03129276      -0.88848788
H        0.40107590       1.24219738       0.73506693
H       -0.74829651      -1.54015955       0.93572345
H        2.59665641      -1.70164427       1.29281172
13
Frame=12 idx=009968 GeodesicLength=1.4546664931478932 rxn_smarts="[C:1]([C@@:2]([O:3][H:12])([C:4](=[O:5])[C:6]#[C:7][H:13])[H:11])([H:8])([H:9])[H:10]>>[C:1]([C@:2]1([H:11])[C:4](=[O:5])/[C:6]1=[C:7](/[O:3][H:12])[H:13])([H:8])([H:9])[H:10]"
C       -1.39243926       1.12579287      -0.33090973
C       -0.06566480       0.52080336       0.03935244
O       -0.12210014      -1.03523183       1.40278045
C        0.62928075      -0.11578100      -1.13534040
O        0.31582279      -0.67598574      -2.15584784
C        1.67495027      -0.43680052      -0.22309170
C        1.81736645      -1.22120517       0.77925586
H       -1.99076088       1.32988774       0.55609282
H       -1.95069651       0.44709166      -0.97581093
H       -1.18893604       2.05034998      -0.87845783
H        0.38211696       1.22629591       0.75086479
H       -0.77539167      -1.54331665       0.90810941
H        2.66645209      -1.67190060       1.26300266
13
Frame=13 idx=009968 GeodesicLength=1.57562159038789 rxn_smarts="[C:1]([C@@:2]([O:3][H:12])([C:4](=[O:5])[C:6]#[C:7][H:13])[H:11])([H:8])([H:9])[H:10]>>[C:1]([C@:2]1([H:11])[C:4](=[O:5])/[C:6]1=[C:7](/[O:3][H:12])[H:13])([H:8])([H:9])[H:10]"
C       -1.38651645       1.14179553      -0.33607318
C       -0.07919861       0.49963020       0.05399642
O       -0.15792158      -1.06446026       1.40911970
C        0.61131035      -0.13131103      -1.13114410
O        0.30465792      -0.73015147      -2.13093864
C        1.65280590      -0.42353463      -0.20559145
C        1.85804790      -1.20990836       0.78169346
H       -1.99658080       1.34375669       0.54353331
H       -1.94765035       0.48005994      -0.99619135
H       -1.15458134       2.06866440      -0.86735729
H        0.36284192       1.20890993       0.76740965
H       -0.80486938      -1.54630521       0.88140269
H        2.73765451      -1.63714574       1.23014077
13
Frame=14 idx=009968 GeodesicLength=1.696519756960401 rxn_smarts="[C:1]([C@@:2]([O:3][H:12])([C:4](=[O:5])[C:6]#[C:7][H:13])[H:11])([H:8])([H:9])[H:10]>>[C:1]([C@:2]1([H:11])[C:4](=[O:5])/[C:6]1=[C:7](/[O:3][H:12])[H:13])([H:8])([H:9])[H:10]"
C       -1.37940209       1.15767144      -0.34119003
C       -0.09347380       0.47777687       0.06902552
O       -0.19692096      -1.09471179       1.41494349
C        0.59297993      -0.14816997      -1.12607127
O        0.29402088      -0.78392772      -2.10458511
C        1.62908236      -0.41303627      -0.18731435
C        1.90028819      -1.19616484       0.78393705
H       -2.00191841       1.35807185       0.53015694
H       -1.94248848       0.51346647      -1.01706195
H       -1.11832240       2.08600010      -0.85529347
H        0.34304002       1.19018902       0.78482254
H       -0.83690869      -1.54898086       0.85563767
H        2.81002344      -1.59818429       1.19299297
13
Frame=15 idx=009968 GeodesicLength=1.8173442069091583 rxn_smarts="[C:1]([C@@:2]([O:3][H:12])([C:4](=[O:5])[C:6]#[C:7][H:13])[H:11])([H:8])([H:9])[H:10]>>[C:1]([C@:2]1([H:11])[C:4](=[O:5])/[C:6]1=[C:7](/[O:3][H:12])[H:13])([H:8])([H:9])[H:10]"
C       -1.37049227       1.17360682      -0.34578433
C       -0.10832341       0.45457827       0.08429815
O       -0.23970984      -1.12699757       1.41944798
C        0.57386015      -0.16697929      -1.12063899
O        0.28276923      -0.83745655      -2.07755846
C        1.60348987      -0.40679998      -0.16904813
C        1.94391230      -1.18146119       0.78441493
H       -2.00579904       1.37319147       0.51662127
H       -1.93509071       0.54804583      -1.03797669
H       -1.07916703       2.10245454      -0.84151370
H        0.32343372       1.16894712       0.80315310
H       -0.87235237      -1.55186223       0.82987850
H        2.88346941      -1.54926725       1.15470637
13
Frame=16 idx=009968 GeodesicLength=1.9380652344185298 rxn_smarts="[C:1]([C@@:2]([O:3][H:12])([C:4](=[O:5])[C:6]#[C:7][H:13])[H:11])([H:8])([H:9])[H:10]>>[C:1]([C@:2]1([H:11])[C:4](=[O:5])/[C:6]1=[C:7](/[O:3][H:12])[H:13])([H:8])([H:9])[H:10]"
C       -1.35977988       1.18940473      -0.35000113
C       -0.12389676       0.43021498       0.09999639
O       -0.28675595      -1.16078618       1.42295005
C        0.55424975      -0.18761739      -1.11436974
O        0.27140362      -0.89093078      -2.04941472
C        1.57617672      -0.40440493      -0.14991061
C        1.98926519      -1.16454445       0.78361766
H       -2.00839534       1.38910681       0.50255744
H       -1.92511692       0.58335205      -1.05900284
H       -1.03720827       2.11762764      -0.82628185
H        0.30355784       1.14555434       0.82258812
H       -0.91136765      -1.55457528       0.80432642
H        2.95786763      -1.49240153       1.11294481
