14
Frame=0 idx=011114 GeodesicLength=0.0 rxn_smarts="[C:1]1([H:8])([H:9])[C@:2]2([H:10])[C@@:3]3([H:11])[C@:4]2([H:12])[N:5]2[C@:6]1([H:13])[C@@:7]32[H:14]>>[C@@:1]12([H:8])[C@@:2]3([H:10])[C@:3]1([H:11])[C@:7]1([H:14])[N:5]([C:4]3([H:9])[H:12])[C@:6]21[H:13]"
C        1.03398363      -0.24807677      -0.74790684
C       -0.23141551      -1.02674103      -0.39361819
C       -1.23451127      -0.03931478      -0.56842240
C        0.06991320      -0.84567374       1.09576930
N        0.11674282       0.62413004       1.26993444
C        0.76699310       1.05797852       0.00126878
C       -0.67994544       1.16978975       0.18811887
H        1.47263480      -0.20991209      -1.74476608
H        1.38377321      -0.93573230       0.47978035
H       -0.34092115      -2.03238734      -0.77687651
H       -2.17666204      -0.08278376      -1.09944690
H       -0.40648204      -1.37720564       1.91716097
H        1.47629434       1.87331992       0.02523466
H       -1.25039766       2.07260923       0.35376950
14
Frame=1 idx=011114 GeodesicLength=0.0636643970198746 rxn_smarts="[C:1]1([H:8])([H:9])[C@:2]2([H:10])[C@@:3]3([H:11])[C@:4]2([H:12])[N:5]2[C@:6]1([H:13])[C@@:7]32[H:14]>>[C@@:1]12([H:8])[C@@:2]3([H:10])[C@:3]1([H:11])[C@:7]1([H:14])[N:5]([C:4]3([H:9])[H:12])[C@:6]21[H:13]"
C        1.02538013      -0.24332035      -0.75346238
C       -0.22507126      -1.03715207      -0.39361726
C       -1.22305418      -0.04096583      -0.56300755
C        0.05924342      -0.84190677       1.09374830
N        0.11999764       0.62645566       1.27107972
C        0.76879129       1.06002105       0.00242462
C       -0.67811722       1.17297825       0.18996206
H        1.45682005      -0.20421089      -1.75298470
H        1.39131651      -0.93699977       0.48351373
H       -0.33733066      -2.04177774      -0.77755751
H       -2.16478001      -0.08899103      -1.09429203
H       -0.42307949      -1.37315262       1.91140429
H        1.47969408       1.87388900       0.02786296
H       -1.24981030       2.07513312       0.35492574
14
Frame=2 idx=011114 GeodesicLength=0.12732643418826034 rxn_smarts="[C:1]1([H:8])([H:9])[C@:2]2([H:10])[C@@:3]3([H:11])[C@:4]2([H:12])[N:5]2[C@:6]1([H:13])[C@@:7]32[H:14]>>[C@@:1]12([H:8])[C@@:2]3([H:10])[C@:3]1([H:11])[C@:7]1([H:14])[N:5]([C:4]3([H:9])[H:12])[C@:6]21[H:13]"
C        1.01668818      -0.23856744      -0.75901627
C       -0.21862999      -1.04742199      -0.39352192
C       -1.21164170      -0.04261383      -0.55763236
C        0.04854035      -0.83812624       1.09165420
N        0.12321837       0.62869155       1.27219556
C        0.77058142       1.06201034       0.00356407
C       -0.67631727       1.17614151       0.19177450
H        1.44093266      -0.19853483      -1.76113053
H        1.39903528      -0.93833025       0.48732038
H       -0.33370238      -2.05101321      -0.77817049
H       -2.15293618      -0.09517143      -1.08915026
H       -0.43963431      -1.36907284       1.90556237
H        1.48310418       1.87437697       0.03047746
H       -1.24923860       2.07763168       0.35607328
14
Frame=3 idx=011114 GeodesicLength=0.19099066017309727 rxn_smarts="[C:1]1([H:8])([H:9])[C@:2]2([H:10])[C@@:3]3([H:11])[C@:4]2([H:12])[N:5]2[C@:6]1([H:13])[C@@:7]32[H:14]>>[C@@:1]12([H:8])[C@@:2]3([H:10])[C@:3]1([H:11])[C@:7]1([H:14])[N:5]([C:4]3([H:9])[H:12])[C@:6]21[H:13]"
C        1.00791237      -0.23382039      -0.76456596
C       -0.21208762      -1.05754513      -0.39332512
C       -1.20028206      -0.04425718      -0.55229596
C        0.03781177      -0.83433578       1.08949202
N        0.12640745       0.63083559       1.27328332
C        0.77236426       1.06394444       0.00468646
C       -0.67454474       1.17927693       0.19355732
H        1.42495075      -0.19288066      -1.76921369
H        1.40694291      -0.93972491       0.49120815
H       -0.33003355      -2.06008825      -0.77871051
H       -2.14112947      -0.10132693      -1.08403843
H       -0.45615843      -1.36496851       1.89963180
H        1.48652373       1.87478468       0.03307826
H       -1.24867739       2.08010610       0.35721234
14
Frame=4 idx=011114 GeodesicLength=0.25465183369493855 rxn_smarts="[C:1]1([H:8])([H:9])[C@:2]2([H:10])[C@@:3]3([H:11])[C@:4]2([H:12])[N:5]2[C@:6]1([H:13])[C@@:7]32[H:14]>>[C@@:1]12([H:8])[C@@:2]3([H:10])[C@:3]1([H:11])[C@:7]1([H:14])[N:5]([C:4]3([H:9])[H:12])[C@:6]21[H:13]"
C        0.99905404      -0.22908106      -0.77010912
C       -0.20544545      -1.06751148      -0.39302439
C       -1.18898726      -0.04589009      -0.54700123
C        0.02706064      -0.83053704       1.08726126
N        0.12956209       0.63288577       1.27434122
C        0.77413611       1.06582111       0.00578899
C       -0.67280236       1.18238293       0.19531025
H        1.40889145      -0.18726105      -1.77722539
H        1.41504744      -0.94118480       0.49518131
H       -0.32632994      -2.06899103      -0.77917820
H       -2.12937084      -0.10745113      -1.07896122
H       -0.47263557      -1.36085097       1.89361415
H        1.48994652       1.87511193       0.03566061
H       -1.24812687       2.08255691       0.35834178
14
Frame=5 idx=011114 GeodesicLength=0.31831538264331444 rxn_smarts="[C:1]1([H:8])([H:9])[C@:2]2([H:10])[C@@:3]3([H:11])[C@:4]2([H:12])[N:5]2[C@:6]1([H:13])[C@@:7]32[H:14]>>[C@@:1]12([H:8])[C@@:2]3([H:10])[C@:3]1([H:11])[C@:7]1([H:14])[N:5]([C:4]3([H:9])[H:12])[C@:6]21[H:13]"
C        0.99011980      -0.22435141      -0.77564363
C       -0.19869739      -1.07731404      -0.39261511
C       -1.17776193      -0.04750962      -0.54174979
C        0.01629229      -0.82673186       1.08496441
N        0.13268298       0.63483984       1.27536826
C        0.77589760       1.06763762       0.00687011
C       -0.67108878       1.18545687       0.19703323
H        1.39273580      -0.18167344      -1.78517457
H        1.42336112      -0.94270902       0.49924709
H       -0.32258519      -2.07771394      -0.77956893
H       -2.11766247      -0.11355149      -1.07392159
H       -0.48908534      -1.35671775       1.88750071
H        1.49337348       1.87535502       0.03822434
H       -1.24758196       2.08498321       0.35946548
14
Frame=6 idx=011114 GeodesicLength=0.3819763292071022 rxn_smarts="[C:1]1([H:8])([H:9])[C@:2]2([H:10])[C@@:3]3([H:11])[C@:4]2([H:12])[N:5]2[C@:6]1([H:13])[C@@:7]32[H:14]>>[C@@:1]12([H:8])[C@@:2]3([H:10])[C@:3]1([H:11])[C@:7]1([H:14])[N:5]([C:4]3([H:9])[H:12])[C@:6]21[H:13]"
C        0.98110977      -0.21963370      -0.78116627
C       -0.19184549      -1.08694455      -0.39209435
C       -1.16661783      -0.04911077      -0.53654255
C        0.00550938      -0.82292209       1.08260207
N        0.13576828       0.63669625       1.27636380
C        0.77764454       1.06939255       0.00792798
C       -0.66940662       1.18849796       0.19872763
H        1.37649753      -0.17613498      -1.79305254
H        1.43189144      -0.94429861       0.50341047
H       -0.31880843      -2.08624633      -0.77988445
H       -2.10600789      -0.11961654      -1.06893566
H       -0.50548569      -1.35258175       1.88129614
H        1.49679517       1.87551732       0.04076147
H       -1.24704416       2.08738524       0.36058627
14
Frame=7 idx=011114 GeodesicLength=0.44563951686093994 rxn_smarts="[C:1]1([H:8])([H:9])[C@:2]2([H:10])[C@@:3]3([H:11])[C@:4]2([H:12])[N:5]2[C@:6]1([H:13])[C@@:7]32[H:14]>>[C@@:1]12([H:8])[C@@:2]3([H:10])[C@:3]1([H:11])[C@:7]1([H:14])[N:5]([C:4]3([H:9])[H:12])[C@:6]21[H:13]"
C        0.97203070      -0.21492929      -0.78667671
C       -0.18488401      -1.09639750      -0.39145938
C       -1.15555965      -0.05069030      -0.53138363
C       -0.00528311      -0.81911042       1.08017617
N        0.13881922       0.63845327       1.27732679
C        0.77937866       1.07108408       0.00896055
C       -0.66775421       1.19150488       0.20039210
H        1.36015984      -0.17063798      -1.80086888
H        1.44065110      -0.94595314       0.50767895
H       -0.31498959      -2.09458423      -0.78011965
H       -2.09441711      -0.12565906      -1.06399625
H       -0.52186199      -1.34843977       1.87498943
H        1.50021716       1.87559418       0.04327608
H       -1.24650701       2.08976528       0.36170444
14
Frame=8 idx=011114 GeodesicLength=0.5092997798414662 rxn_smarts="[C:1]1([H:8])([H:9])[C@:2]2([H:10])[C@@:3]3([H:11])[C@:4]2([H:12])[N:5]2[C@:6]1([H:13])[C@@:7]32[H:14]>>[C@@:1]12([H:8])[C@@:2]3([H:10])[C@:3]1([H:11])[C@:7]1([H:14])[N:5]([C:4]3([H:9])[H:12])[C@:6]21[H:13]"
C        0.96288437      -0.21023999      -0.79217242
C       -0.17781405      -1.10566390      -0.39071041
C       -1.14459671      -0.05224219      -0.52627725
C       -0.01608505      -0.81529845       1.07768386
N        0.14183299       0.64010803       1.27825478
C        0.78109646       1.07270933       0.00996587
C       -0.66613391       1.19447589       0.20202718
H        1.34374487      -0.16519523      -1.80861231
H        1.44964673      -0.94767256       0.51205726
H       -0.31113450      -2.10271535      -0.78027858
H       -2.08290343      -0.13167692      -1.05909845
H       -0.53820149      -1.34430017       1.86858004
H        1.50363077       1.87558654       0.04576019
H       -1.24596707       2.09212496       0.36282024
14
Frame=9 idx=011114 GeodesicLength=0.5729628024596684 rxn_smarts="[C:1]1([H:8])([H:9])[C@:2]2([H:10])[C@@:3]3([H:11])[C@:4]2([H:12])[N:5]2[C@:6]1([H:13])[C@@:7]32[H:14]>>[C@@:1]12([H:8])[C@@:2]3([H:10])[C@:3]1([H:11])[C@:7]1([H:14])[N:5]([C:4]3([H:9])[H:12])[C@:6]21[H:13]"
C        0.95367417      -0.20556765      -0.79765320
C       -0.17063113      -1.11473993      -0.38984240
C       -1.13373415      -0.05376470      -0.52122262
C       -0.02689076      -0.81148760       1.07512914
N        0.14481120       0.64166022       1.27914789
C        0.78279839       1.07426697       0.01094214
C       -0.66454394       1.19741050       0.20363332
H        1.32722634      -0.15980365      -1.81629450
H        1.45889004      -0.94945635       0.51655180
H       -0.30723395      -2.11063778      -0.78035330
H       -2.07146346      -0.13767253      -1.05425477
H       -0.55452044      -1.34016141       1.86206051
H        1.50704015       1.87548971       0.04821818
H       -1.24542245       2.09446419       0.36393781
14
Frame=10 idx=011114 GeodesicLength=0.6366280847632387 rxn_smarts="[C:1]1([H:8])([H:9])[C@:2]2([H:10])[C@@:3]3([H:11])[C@:4]2([H:12])[N:5]2[C@:6]1([H:13])[C@@:7]32[H:14]>>[C@@:1]12([H:8])[C@@:2]3([H:10])[C@:3]1([H:11])[C@:7]1([H:14])[N:5]([C:4]3([H:9])[H:12])[C@:6]21[H:13]"
C        0.94440194      -0.20091380      -0.80311814
C       -0.16333452      -1.12362037      -0.38885323
C       -1.12298010      -0.05525428      -0.51622098
C       -0.03769764      -0.80768031       1.07251280
N        0.14775459       0.64310817       1.28000549
C        0.78448319       1.07575565       0.01188741
C       -0.66298481       1.20030832       0.20521167
H        1.31060266      -0.15446848      -1.82391536
H        1.46839083      -0.95130436       0.52116842
H       -0.30328542      -2.11834635      -0.78034224
H       -2.06010233      -0.14364472      -1.04947160
H       -0.57082085      -1.33602667       1.85542796
H        1.51044389       1.87530298       0.05064699
H       -1.24487144       2.09678422       0.36506083
14
Frame=11 idx=011114 GeodesicLength=0.7002957557595847 rxn_smarts="[C:1]1([H:8])([H:9])[C@:2]2([H:10])[C@@:3]3([H:11])[C@:4]2([H:12])[N:5]2[C@:6]1([H:13])[C@@:7]32[H:14]>>[C@@:1]12([H:8])[C@@:2]3([H:10])[C@:3]1([H:11])[C@:7]1([H:14])[N:5]([C:4]3([H:9])[H:12])[C@:6]21[H:13]"
C        0.93506913      -0.19627994      -0.80856671
C       -0.15592296      -1.13229918      -0.38774089
C       -1.11234103      -0.05670719      -0.51127290
C       -0.04850407      -0.80387794       1.06983480
N        0.15066285       0.64444971       1.28082625
C        0.78614906       1.07717284       0.01279949
C       -0.66145662       1.20316812       0.20676371
H        1.29387216      -0.14919514      -1.83147489
H        1.47815729      -0.95321563       0.52591172
H       -0.29928445      -2.12583447      -0.78024347
H       -2.04882318      -0.14959227      -1.04475261
H       -0.58710604      -1.33189680       1.84867848
H        1.51383969       1.87502339       0.05304348
H       -1.24431184       2.09908450       0.36619354
14
Frame=12 idx=011114 GeodesicLength=0.7639718343742168 rxn_smarts="[C:1]1([H:8])([H:9])[C@:2]2([H:10])[C@@:3]3([H:11])[C@:4]2([H:12])[N:5]2[C@:6]1([H:13])[C@@:7]32[H:14]>>[C@@:1]12([H:8])[C@@:2]3([H:10])[C@:3]1([H:11])[C@:7]1([H:14])[N:5]([C:4]3([H:9])[H:12])[C@:6]21[H:13]"
C        0.92568052      -0.19166745      -0.81399849
C       -0.14839090      -1.14077358      -0.38650353
C       -1.10181921      -0.05812131      -0.50638168
C       -0.05930728      -0.80008206       1.06709641
N        0.15353654       0.64568435       1.28160981
C        0.78779846       1.07851713       0.01367844
C       -0.65995660       1.20599012       0.20828828
H        1.27701103      -0.14397583      -1.83898198
H        1.48820072      -0.95518930       0.53078993
H       -0.29522084      -2.13310132      -0.78005136
H       -2.03763210      -0.15552638      -1.04009163
H       -0.60339686      -1.32777073       1.84179872
H        1.51723298       1.87464708       0.05541362
H       -1.24373645       2.10136928       0.36733345
14
Frame=13 idx=011114 GeodesicLength=0.8276512847627481 rxn_smarts="[C:1]1([H:8])([H:9])[C@:2]2([H:10])[C@@:3]3([H:11])[C@:4]2([H:12])[N:5]2[C@:6]1([H:13])[C@@:7]32[H:14]>>[C@@:1]12([H:8])[C@@:2]3([H:10])[C@:3]1([H:11])[C@:7]1([H:14])[N:5]([C:4]3([H:9])[H:12])[C@:6]21[H:13]"
C        0.91623695      -0.18707665      -0.81941297
C       -0.14073951      -1.14903679      -0.38514255
C       -1.09142177      -0.05949059      -0.50155195
C       -0.07010777      -0.79629417       1.06429503
N        0.15637274       0.64681061       1.28235421
C        0.78942972       1.07978754       0.01452248
C       -0.65848522       1.20877584       0.20978411
H        1.26003666      -0.13882168      -1.84642930
H        1.49852724      -0.95722559       0.53580815
H       -0.29109558      -2.14013962      -0.77976809
H       -2.02654361      -0.16144640      -1.03547793
H       -0.61968600      -1.32365716       1.83478517
H        1.52062089       1.87417398       0.05775390
H       -1.24314473       2.10364069       0.36847974
14
Frame=14 idx=011114 GeodesicLength=0.8913394871674306 rxn_smarts="[C:1]1([H:8])([H:9])[C@:2]2([H:10])[C@@:3]3([H:11])[C@:4]2([H:12])[N:5]2[C@:6]1([H:13])[C@@:7]32[H:14]>>[C@@:1]12([H:8])[C@@:2]3([H:10])[C@:3]1([H:11])[C@:7]1([H:14])[N:5]([C:4]3([H:9])[H:12])[C@:6]21[H:13]"
C        0.90673911      -0.18250977      -0.82480946
C       -0.13296576      -1.15708592      -0.38365417
C       -1.08115370      -0.06081373      -0.49678172
C       -0.08090317      -0.79251547       1.06143193
N        0.15917398       0.64782662       1.28305898
C        0.79104216       1.08098113       0.01533031
C       -0.65704202       1.21152372       0.21125411
H        1.24292490      -0.13372972      -1.85382270
H        1.50914751      -0.95932334       0.54097243
H       -0.28689793      -2.14694797      -0.77938591
H       -2.01555238      -0.16735162      -1.03092583
H       -0.63598496      -1.31955283       1.82763006
H        1.52400414       1.87359890       0.06006455
H       -1.24253187       2.10590002       0.36963742
14
Frame=15 idx=011114 GeodesicLength=0.9550307391598252 rxn_smarts="[C:1]1([H:8])([H:9])[C@:2]2([H:10])[C@@:3]3([H:11])[C@:4]2([H:12])[N:5]2[C@:6]1([H:13])[C@@:7]32[H:14]>>[C@@:1]12([H:8])[C@@:2]3([H:10])[C@:3]1([H:11])[C@:7]1([H:14])[N:5]([C:4]3([H:9])[H:12])[C@:6]21[H:13]"
C        0.89718500      -0.17796728      -0.83018794
C       -0.12507352      -1.16491649      -0.38203986
C       -1.07102330      -0.06208598      -0.49207353
C       -0.09169493      -0.78874823       1.05850544
N        0.16193823       0.64873076       1.28372435
C        0.79263293       1.08209789       0.01610070
C       -0.65562865       1.21423523       0.21270098
H        1.22569577      -0.12871458      -1.86115456
H        1.52006694      -0.96148300       0.54628748
H       -0.28262951      -2.15352219      -0.77890768
H       -2.00466871      -0.17323574      -1.02643414
H       -0.65228129      -1.31547031       1.82033394
H        1.52737559       1.87292707       0.06233788
H       -1.24189453       2.10815284       0.37080692
14
Frame=16 idx=011114 GeodesicLength=1.0187308430827215 rxn_smarts="[C:1]1([H:8])([H:9])[C@:2]2([H:10])[C@@:3]3([H:11])[C@:4]2([H:12])[N:5]2[C@:6]1([H:13])[C@@:7]32[H:14]>>[C@@:1]12([H:8])[C@@:2]3([H:10])[C@:3]1([H:11])[C@:7]1([H:14])[N:5]([C:4]3([H:9])[H:12])[C@:6]21[H:13]"
C        0.88757627      -0.17345080      -0.83554924
C       -0.11705853      -1.17252571      -0.38029655
C       -1.06103325      -0.06330573      -0.48742770
C       -0.10248136      -0.78499270       1.05551629
N        0.16466743       0.64952254       1.28434890
C        0.79420320       1.08313575       0.01683168
C       -0.65424270       1.21691063       0.21412418
H        1.20832156      -0.12376986      -1.86843357
H        1.53129549      -0.96370332       0.55176008
H       -0.27827676      -2.15986209      -0.77832551
H       -1.99389034      -0.17910443      -1.02200836
H       -0.66859291      -1.31140287       1.81288625
H        1.53074214       1.87214996       0.06457952
H       -1.24123024       2.11039865       0.37199402
