11
Frame=0 idx=000081 GeodesicLength=0.0 rxn_smarts="[N:1]([c:2]1[c:3]([H:9])[n:4]([H:10])[c:5]([H:11])[n:6]1)([H:7])[H:8]>>[N:1](=[C:2]1/[C:3]([H:8])([H:9])[N:4]([H:10])[C:5]([H:11])=[N:6]1)\[H:7]"
N        1.98113061      -0.14728227       0.21539523
C        0.72132444      -0.37161190      -0.07003116
C        0.06416537       0.91005268      -0.23213096
N       -1.27829802       0.52056479       0.11317727
C       -1.29421658      -0.81644182       0.20907162
N       -0.13458585      -1.42494916       0.06073045
H        2.68476895      -0.86703364       0.10223848
H        1.42855989       1.09170183       0.26814884
H        0.13478965       1.35367251      -1.22546874
H       -2.09595139       1.10042469       0.12787935
H       -2.21168703      -1.34909773       0.43098959
11
Frame=1 idx=000081 GeodesicLength=0.037749535198313575 rxn_smarts="[N:1]([c:2]1[c:3]([H:9])[n:4]([H:10])[c:5]([H:11])[n:6]1)([H:7])[H:8]>>[N:1](=[C:2]1/[C:3]([H:8])([H:9])[N:4]([H:10])[C:5]([H:11])=[N:6]1)\[H:7]"
N        1.98443047      -0.14602891       0.19980764
C        0.72504478      -0.37026538      -0.09555262
C        0.06151374       0.91128265      -0.23613008
N       -1.27645517       0.51884264       0.11708550
C       -1.29059965      -0.81924549       0.20681959
N       -0.12921947      -1.42269026       0.06249887
H        2.66843247      -0.89008768       0.13299877
H        1.43204285       1.10178964       0.26825109
H        0.12518792       1.37306211      -1.22126882
H       -2.09589443       1.09644286       0.12539315
H       -2.20448350      -1.35310216       0.44009690
11
Frame=2 idx=000081 GeodesicLength=0.07513642075620319 rxn_smarts="[N:1]([c:2]1[c:3]([H:9])[n:4]([H:10])[c:5]([H:11])[n:6]1)([H:7])[H:8]>>[N:1](=[C:2]1/[C:3]([H:8])([H:9])[N:4]([H:10])[C:5]([H:11])=[N:6]1)\[H:7]"
N        1.98763829      -0.14540502       0.18389270
C        0.72844447      -0.36915497      -0.12020066
C        0.05917784       0.91209110      -0.24010542
N       -1.27434747       0.51706231       0.12088641
C       -1.28697084      -0.82197993       0.20497500
N       -0.12392379      -1.42029227       0.06460850
H        2.65075406      -0.91063757       0.16276367
H        1.43574158       1.11122697       0.26863533
H        0.11625581       1.39153797      -1.21679601
H       -2.09534831       1.09250704       0.12285545
H       -2.19742162      -1.35695564       0.44848503
11
Frame=3 idx=000081 GeodesicLength=0.1127723906625199 rxn_smarts="[N:1]([c:2]1[c:3]([H:9])[n:4]([H:10])[c:5]([H:11])[n:6]1)([H:7])[H:8]>>[N:1](=[C:2]1/[C:3]([H:8])([H:9])[N:4]([H:10])[C:5]([H:11])=[N:6]1)\[H:7]"
N        1.99096544      -0.14540394       0.16752804
C        0.73161014      -0.36833272      -0.14427379
C        0.05707552       0.91260467      -0.24414531
N       -1.27211732       0.51529909       0.12457018
C       -1.28340029      -0.82472119       0.20339182
N       -0.11870211      -1.41794272       0.06646123
H        2.63209813      -0.92903019       0.19234261
H        1.43979060       1.12015857       0.26917958
H        0.10775182       1.40933565      -1.21214434
H       -2.09455086       1.08877390       0.12050866
H       -2.19052105      -1.36074111       0.45658132
11
Frame=4 idx=000081 GeodesicLength=0.15027899115062995 rxn_smarts="[N:1]([c:2]1[c:3]([H:9])[n:4]([H:10])[c:5]([H:11])[n:6]1)([H:7])[H:8]>>[N:1](=[C:2]1/[C:3]([H:8])([H:9])[N:4]([H:10])[C:5]([H:11])=[N:6]1)\[H:7]"
N        1.99424217      -0.14598849       0.15084019
C        0.73450345      -0.36780705      -0.16772589
C        0.05521168       0.91273064      -0.24834747
N       -1.26964522       0.51352863       0.12826008
C       -1.27978451      -0.82739622       0.20237396
N       -0.11360979      -1.41559017       0.06808057
H        2.61244091      -0.94506193       0.22186230
H        1.44413631       1.12856848       0.26957325
H        0.09964689       1.42621436      -1.20750059
H       -2.09327610       1.08526807       0.11888573
H       -2.18386582      -1.36446634       0.46369785
11
Frame=5 idx=000081 GeodesicLength=0.18801363018877904 rxn_smarts="[N:1]([c:2]1[c:3]([H:9])[n:4]([H:10])[c:5]([H:11])[n:6]1)([H:7])[H:8]>>[N:1](=[C:2]1/[C:3]([H:8])([H:9])[N:4]([H:10])[C:5]([H:11])=[N:6]1)\[H:7]"
N        1.99751055      -0.14719922       0.13413163
C        0.73716067      -0.36762680      -0.19055390
C        0.05357439       0.91254165      -0.25268399
N       -1.26699701       0.51178260       0.13190472
C       -1.27620278      -0.83007096       0.20175915
N       -0.10868607      -1.41339246       0.06934676
H        2.59197067      -0.95878212       0.25105408
H        1.44883313       1.13655379       0.26991329
H        0.09196934       1.44231682      -1.20285844
H       -2.09165321       1.08203743       0.11777408
H       -2.17747969      -1.36816074       0.47021262
11
Frame=6 idx=000081 GeodesicLength=0.22560230044951363 rxn_smarts="[N:1]([c:2]1[c:3]([H:9])[n:4]([H:10])[c:5]([H:11])[n:6]1)([H:7])[H:8]>>[N:1](=[C:2]1/[C:3]([H:8])([H:9])[N:4]([H:10])[C:5]([H:11])=[N:6]1)\[H:7]"
N        2.00069828      -0.14898857       0.11745886
C        0.73959450      -0.36773472      -0.21287743
C        0.05216956       0.91197834      -0.25715471
N       -1.26416102       0.50999570       0.13549836
C       -1.27266544      -0.83270095       0.20142779
N       -0.10398736      -1.41124554       0.06996644
H        2.57071159      -0.97017134       0.28005271
H        1.45383303       1.14403603       0.27016662
H        0.08478542       1.45760411      -1.19812753
H       -2.08966615       1.07895736       0.11719171
H       -2.17131243      -1.37173042       0.47639718
11
Frame=7 idx=000081 GeodesicLength=0.26335452278415256 rxn_smarts="[N:1]([c:2]1[c:3]([H:9])[n:4]([H:10])[c:5]([H:11])[n:6]1)([H:7])[H:8]>>[N:1](=[C:2]1/[C:3]([H:8])([H:9])[N:4]([H:10])[C:5]([H:11])=[N:6]1)\[H:7]"
N        2.00370940      -0.15128315       0.10190012
C        0.74182016      -0.36815872      -0.23416121
C        0.05093919       0.91111945      -0.26166621
N       -1.26127055       0.50824631       0.13882015
C       -1.26924659      -0.83530121       0.20146121
N       -0.09951415      -1.40924569       0.07063458
H        2.54932095      -0.97958189       0.30692534
H        1.45898111       1.15127360       0.27081591
H        0.07823298       1.47200462      -1.19341955
H       -2.08749217       1.07610751       0.11646464
H       -2.16548032      -1.37518083       0.48222504
11
Frame=8 idx=000081 GeodesicLength=0.30100979933891786 rxn_smarts="[N:1]([c:2]1[c:3]([H:9])[n:4]([H:10])[c:5]([H:11])[n:6]1)([H:7])[H:8]>>[N:1](=[C:2]1/[C:3]([H:8])([H:9])[N:4]([H:10])[C:5]([H:11])=[N:6]1)\[H:7]"
N        2.00646548      -0.15390630       0.08779337
C        0.74386360      -0.36883576      -0.25415768
C        0.04985803       0.90994745      -0.26615934
N       -1.25837543       0.50652251       0.14185073
C       -1.26595742      -0.83780329       0.20197039
N       -0.09523707      -1.40726118       0.07187428
H        2.52815262      -0.98734686       0.33078863
H        1.46411013       1.15837180       0.27202696
H        0.07241574       1.48537977      -1.18874669
H       -2.08518823       1.07338345       0.11532516
H       -2.16010744      -1.37845160       0.48743419
11
Frame=9 idx=000081 GeodesicLength=0.33881650408231967 rxn_smarts="[N:1]([c:2]1[c:3]([H:9])[n:4]([H:10])[c:5]([H:11])[n:6]1)([H:7])[H:8]>>[N:1](=[C:2]1/[C:3]([H:8])([H:9])[N:4]([H:10])[C:5]([H:11])=[N:6]1)\[H:7]"
N        2.00911051      -0.15683109       0.07462196
C        0.74576986      -0.36975698      -0.27326472
C        0.04888453       0.90855666      -0.27073354
N       -1.25547423       0.50484759       0.14469678
C       -1.26278733      -0.84027682       0.20280434
N       -0.09114942      -1.40538803       0.07316084
H        2.50713248      -0.99377525       0.35292109
H        1.46933636       1.16541114       0.27353819
H        0.06706744       1.49801023      -1.18415503
H       -2.08279316       1.07085696       0.11415694
H       -2.15509704      -1.38165441       0.49225315
11
Frame=10 idx=000081 GeodesicLength=0.3765715038164678 rxn_smarts="[N:1]([c:2]1[c:3]([H:9])[n:4]([H:10])[c:5]([H:11])[n:6]1)([H:7])[H:8]>>[N:1](=[C:2]1/[C:3]([H:8])([H:9])[N:4]([H:10])[C:5]([H:11])=[N:6]1)\[H:7]"
N        2.01160467      -0.16008651       0.06185308
C        0.74753094      -0.37089049      -0.29189049
C        0.04802377       0.90692968      -0.27544692
N       -1.25245546       0.50316359       0.14746412
C       -1.25965185      -0.84273024       0.20377554
N       -0.08725849      -1.40361668       0.07395759
H        2.48583418      -0.99880173       0.37449366
H        1.47465402       1.17227530       0.27512816
H        0.06208845       1.51006077      -1.17958817
H       -2.08015919       1.06846453       0.11330457
H       -2.15021104      -1.38476821       0.49694885
11
Frame=11 idx=000081 GeodesicLength=0.41429153808887825 rxn_smarts="[N:1]([c:2]1[c:3]([H:9])[n:4]([H:10])[c:5]([H:11])[n:6]1)([H:7])[H:8]>>[N:1](=[C:2]1/[C:3]([H:8])([H:9])[N:4]([H:10])[C:5]([H:11])=[N:6]1)\[H:7]"
N        2.01388367      -0.16342213       0.05050687
C        0.74918794      -0.37217171      -0.30938681
C        0.04721289       0.90512631      -0.28013942
N       -1.24955592       0.50152472       0.14982644
C       -1.25664730      -0.84509126       0.20510900
N       -0.08351086      -1.40182241       0.07531138
H        2.46515871      -1.00314960       0.39307342
H        1.47978622       1.17921099       0.27751249
H        0.05772625       1.52138174      -1.17504963
H       -2.07760208       1.06611736       0.11171494
H       -2.14563953      -1.38770402       0.50152133
11
Frame=12 idx=000081 GeodesicLength=0.4520374036268675 rxn_smarts="[N:1]([c:2]1[c:3]([H:9])[n:4]([H:10])[c:5]([H:11])[n:6]1)([H:7])[H:8]>>[N:1](=[C:2]1/[C:3]([H:8])([H:9])[N:4]([H:10])[C:5]([H:11])=[N:6]1)\[H:7]"
N        2.01604972      -0.16690035       0.03983806
C        0.75074488      -0.37362874      -0.32620283
C        0.04645566       0.90315748      -0.28492773
N       -1.24665308       0.49992428       0.15204710
C       -1.25371982      -0.84741139       0.20669648
N       -0.07991117      -1.40008220       0.07672546
H        2.44473209      -1.00668332       0.41031126
H        1.48490543       1.18617127       0.28020350
H        0.05371074       1.53213043      -1.17059270
H       -2.07497798       1.06389381       0.11010387
H       -2.14133647      -1.39057127       0.50579751
11
Frame=13 idx=000081 GeodesicLength=0.48981036649815973 rxn_smarts="[N:1]([c:2]1[c:3]([H:9])[n:4]([H:10])[c:5]([H:11])[n:6]1)([H:7])[H:8]>>[N:1](=[C:2]1/[C:3]([H:8])([H:9])[N:4]([H:10])[C:5]([H:11])=[N:6]1)\[H:7]"
N        2.01808277      -0.17050076       0.02984952
C        0.75221588      -0.37522828      -0.34243690
C        0.04573661       0.90105546      -0.28979667
N       -1.24377626       0.49834761       0.15403735
C       -1.25086919      -0.84970141       0.20840185
N       -0.07645513      -1.39839924       0.07804820
H        2.42453186      -1.00958347       0.42623276
H        1.48994666       1.19315419       0.28333585
H        0.05006450       1.54244552      -1.16614811
H       -2.07233521       1.06173871       0.10827189
H       -2.13714249      -1.39332833       0.51020426
11
Frame=14 idx=000081 GeodesicLength=0.527625845339187 rxn_smarts="[N:1]([c:2]1[c:3]([H:9])[n:4]([H:10])[c:5]([H:11])[n:6]1)([H:7])[H:8]>>[N:1](=[C:2]1/[C:3]([H:8])([H:9])[N:4]([H:10])[C:5]([H:11])=[N:6]1)\[H:7]"
N        2.01999221      -0.17419628       0.02052440
C        0.75362006      -0.37694749      -0.35816034
C        0.04504842       0.89884326      -0.29475444
N       -1.24093937       0.49678813       0.15577378
C       -1.24810293      -0.85197218       0.21015928
N       -0.07314531      -1.39678091       0.07919272
H        2.40455544      -1.01197755       0.44092728
H        1.49489339       1.20018191       0.28693918
H        0.04677733       1.55240216      -1.16169704
H       -2.06970014       1.05962873       0.10617075
H       -2.13299909      -1.39596978       0.51492443
11
Frame=15 idx=000081 GeodesicLength=0.5654295415594459 rxn_smarts="[N:1]([c:2]1[c:3]([H:9])[n:4]([H:10])[c:5]([H:11])[n:6]1)([H:7])[H:8]>>[N:1](=[C:2]1/[C:3]([H:8])([H:9])[N:4]([H:10])[C:5]([H:11])=[N:6]1)\[H:7]"
N        2.02176586      -0.17802894       0.01161775
C        0.75495164      -0.37878693      -0.37356021
C        0.04439570       0.89650636      -0.29982998
N       -1.23808136       0.49522530       0.15732594
C       -1.24538027      -0.85422993       0.21190133
N       -0.06998901      -1.39524737       0.07992831
H        2.38458992      -1.01375971       0.45493935
H        1.49976295       1.20718967       0.29089723
H        0.04378836       1.56206569      -1.15720766
H       -2.06699489       1.05755464       0.10397117
H       -2.12880890      -1.39848880       0.52001678
11
Frame=16 idx=000081 GeodesicLength=0.6032143126869179 rxn_smarts="[N:1]([c:2]1[c:3]([H:9])[n:4]([H:10])[c:5]([H:11])[n:6]1)([H:7])[H:8]>>[N:1](=[C:2]1/[C:3]([H:8])([H:9])[N:4]([H:10])[C:5]([H:11])=[N:6]1)\[H:7]"
N        2.02341964      -0.18185921       0.00333769
C        0.75622211      -0.38073218      -0.38839119
C        0.04374843       0.89406911      -0.30497344
N       -1.23528509       0.49370239       0.15865197
C       -1.24271901      -0.85642618       0.21385099
N       -0.06693504      -1.39371013       0.08084084
H        2.36504846      -1.01528446       0.46746925
H        1.50445954       1.21428874       0.29540436
H        0.04112598       1.57133845      -1.15273677
H       -2.06433157       1.05550275       0.10139252
H       -2.12475346      -1.40088927       0.52515379
