12
Frame=0 idx=011024 GeodesicLength=0.0 rxn_smarts="[C:1](#[C:2][C@:3]1([H:9])[N:4]([H:10])[C@@:5]1([C:6]#[C:7][H:12])[H:11])[H:8]>>[C:1]1([H:8])=[C:2]=[C:3]([H:9])[N:4]([H:10])[C:5]([H:11])=[C:6]=[C:7]1[H:12]"
C        0.72808011       1.57057052       0.07905901
C        1.21054277       0.53522693      -0.42440625
C        0.84941987      -0.76460988      -0.73388798
N        0.43721481      -1.71567566       0.28624130
C       -0.74531289      -1.09844107      -0.29450151
C       -1.36003569      -0.00253357       0.28605985
C       -1.11620050       1.18328131       0.59096702
H        0.97459341       2.51010146       0.53587821
H        1.09122820      -1.20507074      -1.69260714
H        0.60678401      -1.32115340       1.20580219
H       -1.24476469      -1.69377214      -1.04796632
H       -1.43154936       2.00207624       1.20936164
12
Frame=1 idx=011024 GeodesicLength=0.04280275393215027 rxn_smarts="[C:1](#[C:2][C@:3]1([H:9])[N:4]([H:10])[C@@:5]1([C:6]#[C:7][H:12])[H:11])[H:8]>>[C:1]1([H:8])=[C:2]=[C:3]([H:9])[N:4]([H:10])[C:5]([H:11])=[C:6]=[C:7]1[H:12]"
C        0.73637686       1.57353029       0.07964268
C        1.21359612       0.53478635      -0.42313818
C        0.85243049      -0.76399311      -0.73575841
N        0.43644226      -1.71494510       0.28358541
C       -0.74880830      -1.09928058      -0.29440375
C       -1.36155069      -0.00404646       0.28885971
C       -1.12359197       1.18301260       0.59568632
H        0.99192900       2.51459257       0.52825919
H        1.09924301      -1.20339601      -1.69365483
H        0.60723783      -1.32412352       1.20432422
H       -1.25230748      -1.69552080      -1.04440612
H       -1.45099712       1.99938377       1.21100376
12
Frame=2 idx=011024 GeodesicLength=0.08561637853590587 rxn_smarts="[C:1](#[C:2][C@:3]1([H:9])[N:4]([H:10])[C@@:5]1([C:6]#[C:7][H:12])[H:11])[H:8]>>[C:1]1([H:8])=[C:2]=[C:3]([H:9])[N:4]([H:10])[C:5]([H:11])=[C:6]=[C:7]1[H:12]"
C        0.74493444       1.57642200       0.08059948
C        1.21669092       0.53433917      -0.42174868
C        0.85545400      -0.76333120      -0.73764195
N        0.43563866      -1.71425257       0.28080863
C       -0.75233895      -1.10008306      -0.29431254
C       -1.36303802      -0.00556432       0.29177159
C       -1.13097663       1.18262122       0.60085248
H        1.00964849       2.51927369       0.52004437
H        1.10733575      -1.20160534      -1.69470370
H        0.60769500      -1.32726893       1.20275908
H       -1.25995122      -1.69718900      -1.04080442
H       -1.47109245       1.99663834       1.21237564
12
Frame=3 idx=011024 GeodesicLength=0.1284312669727182 rxn_smarts="[C:1](#[C:2][C@:3]1([H:9])[N:4]([H:10])[C@@:5]1([C:6]#[C:7][H:12])[H:11])[H:8]>>[C:1]1([H:8])=[C:2]=[C:3]([H:9])[N:4]([H:10])[C:5]([H:11])=[C:6]=[C:7]1[H:12]"
C        0.75374927       1.57925884       0.08190372
C        1.21980742       0.53390379      -0.42028558
C        0.85848822      -0.76261982      -0.73954363
N        0.43480519      -1.71356562       0.27793319
C       -0.75590667      -1.10084532      -0.29423012
C       -1.36451168      -0.00706949       0.29475091
C       -1.13836946       1.18211787       0.60644325
H        1.02777434       2.52408088       0.51129094
H        1.11550892      -1.19972153      -1.69574387
H        0.60814796      -1.33052584       1.20111584
H       -1.26768571      -1.69879982      -1.03714911
H       -1.49180778       1.99378605       1.21351445
12
Frame=4 idx=011024 GeodesicLength=0.17123641573234583 rxn_smarts="[C:1](#[C:2][C@:3]1([H:9])[N:4]([H:10])[C@@:5]1([C:6]#[C:7][H:12])[H:11])[H:8]>>[C:1]1([H:8])=[C:2]=[C:3]([H:9])[N:4]([H:10])[C:5]([H:11])=[C:6]=[C:7]1[H:12]"
C        0.76281324       1.58205886       0.08351411
C        1.22292309       0.53350110      -0.41880420
C        0.86153120      -0.76185532      -0.74146838
N        0.43394235      -1.71284668       0.27498644
C       -0.75951355      -1.10156436      -0.29416012
C       -1.36598882      -0.00854096       0.29774298
C       -1.14579064       1.18151716       0.61242337
H        1.04632771       2.52894096       0.50207168
H        1.12376756      -1.19777343      -1.69676226
H        0.60858578      -1.33381893       1.19940708
H       -1.27549811      -1.70038124      -1.03342751
H       -1.51309978       1.99076284       1.21447680
12
Frame=5 idx=011024 GeodesicLength=0.21402173387536652 rxn_smarts="[C:1](#[C:2][C@:3]1([H:9])[N:4]([H:10])[C@@:5]1([C:6]#[C:7][H:12])[H:11])[H:8]>>[C:1]1([H:8])=[C:2]=[C:3]([H:9])[N:4]([H:10])[C:5]([H:11])=[C:6]=[C:7]1[H:12]"
C        0.77211651       1.58484362       0.08538226
C        1.22601399       0.53315347      -0.41736376
C        0.86458031      -0.76103467      -0.74342309
N        0.43305286      -1.71205847       0.27199669
C       -0.76316123      -1.10223929      -0.29410462
C       -1.36748619      -0.00995857       0.30069490
C       -1.15326438       1.18083756       0.61874730
H        1.06532816       2.53377475       0.49247867
H        1.13211390      -1.19579150      -1.69774840
H        0.60900139      -1.33707110       1.19764671
H       -1.28337566      -1.70196513      -1.02962427
H       -1.53491966       1.98750935       1.21531761
12
Frame=6 idx=011024 GeodesicLength=0.2567690055593582 rxn_smarts="[C:1](#[C:2][C@:3]1([H:9])[N:4]([H:10])[C@@:5]1([C:6]#[C:7][H:12])[H:11])[H:8]>>[C:1]1([H:8])=[C:2]=[C:3]([H:9])[N:4]([H:10])[C:5]([H:11])=[C:6]=[C:7]1[H:12]"
C        0.78163124       1.58764575       0.08740283
C        1.22904579       0.53289000      -0.41605221
C        0.86763430      -0.76015629      -0.74541346
N        0.43213684      -1.71114074       0.26901014
C       -0.76685226      -1.10286716      -0.29407084
C       -1.36903283      -0.01128947       0.30351427
C       -1.16083241       1.18010768       0.62532229
H        1.08480199       2.53846995       0.48265655
H        1.14056215      -1.19382787      -1.69867604
H        0.60937438      -1.34015908       1.19585754
H       -1.29129604      -1.70359864      -1.02571893
H       -1.55717315       1.98392587       1.21616786
12
Frame=7 idx=011024 GeodesicLength=0.2994770635458021 rxn_smarts="[C:1](#[C:2][C@:3]1([H:9])[N:4]([H:10])[C@@:5]1([C:6]#[C:7][H:12])[H:11])[H:8]>>[C:1]1([H:8])=[C:2]=[C:3]([H:9])[N:4]([H:10])[C:5]([H:11])=[C:6]=[C:7]1[H:12]"
C        0.79130750       1.59052676       0.08941330
C        1.23197770       0.53274628      -0.41497477
C        0.87068767      -0.75922102      -0.74745674
N        0.43120774      -1.71003620       0.26607581
C       -0.77058713      -1.10345532      -0.29405559
C       -1.37065527      -0.01250874       0.30612690
C       -1.16854424       1.17936685       0.63204448
H        1.10480867       2.54288193       0.47285456
H        1.14911434      -1.19194106      -1.69953536
H        0.60970712      -1.34295651       1.19406710
H       -1.29924024      -1.70534406      -1.02167873
H       -1.57978386       1.97994110       1.21711904
12
Frame=8 idx=011024 GeodesicLength=0.34213321509767314 rxn_smarts="[C:1](#[C:2][C@:3]1([H:9])[N:4]([H:10])[C@@:5]1([C:6]#[C:7][H:12])[H:11])[H:8]>>[C:1]1([H:8])=[C:2]=[C:3]([H:9])[N:4]([H:10])[C:5]([H:11])=[C:6]=[C:7]1[H:12]"
C        0.80122988       1.59341537       0.09161165
C        1.23489584       0.53265684      -0.41391442
C        0.87378253      -0.75824693      -0.74946258
N        0.43016258      -1.70881102       0.26317410
C       -0.77438094      -1.10396484      -0.29414143
C       -1.37235990      -0.01358840       0.30847180
C       -1.17637116       1.17859328       0.63897231
H        1.12513451       2.54733286       0.46237972
H        1.15787976      -1.19009668      -1.70023410
H        0.60983358      -1.34560879       1.19229679
H       -1.30719293      -1.70708207      -1.01766720
H       -1.60261374       1.97540038       1.21851337
12
Frame=9 idx=011024 GeodesicLength=0.3847638014662933 rxn_smarts="[C:1](#[C:2][C@:3]1([H:9])[N:4]([H:10])[C@@:5]1([C:6]#[C:7][H:12])[H:11])[H:8]>>[C:1]1([H:8])=[C:2]=[C:3]([H:9])[N:4]([H:10])[C:5]([H:11])=[C:6]=[C:7]1[H:12]"
C        0.81146506       1.59625407       0.09422284
C        1.23779488       0.53262756      -0.41284430
C        0.87687383      -0.75719364      -0.75150855
N        0.42910788      -1.70754620       0.26017934
C       -0.77821485      -1.10442050      -0.29421496
C       -1.37405235      -0.01462937       0.31088506
C       -1.18421695       1.17768630       0.64643757
H        1.14588592       2.55173623       0.45142555
H        1.16668959      -1.18814529      -1.70093641
H        0.60999069      -1.34830512       1.19044078
H       -1.31523775      -1.70876850      -1.01355628
H       -1.62608596       1.97070447       1.21946937
12
Frame=10 idx=011024 GeodesicLength=0.42737515568205753 rxn_smarts="[C:1](#[C:2][C@:3]1([H:9])[N:4]([H:10])[C@@:5]1([C:6]#[C:7][H:12])[H:11])[H:8]>>[C:1]1([H:8])=[C:2]=[C:3]([H:9])[N:4]([H:10])[C:5]([H:11])=[C:6]=[C:7]1[H:12]"
C        0.82188893       1.59915863       0.09686232
C        1.24056245       0.53274590      -0.41205653
C        0.87993156      -0.75605149      -0.75366582
N        0.42810471      -1.70609841       0.25718401
C       -0.78208302      -1.10484863      -0.29424087
C       -1.37577808      -0.01559779       0.31323907
C       -1.19219708       1.17672554       0.65415107
H        1.16730940       2.55573441       0.44073387
H        1.17551819      -1.18620710      -1.70165115
H        0.61024123      -1.35074222       1.18852726
H       -1.32335285      -1.71058741      -1.00918374
H       -1.65014544       1.96576857       1.22010051
12
Frame=11 idx=011024 GeodesicLength=0.46995173311656974 rxn_smarts="[C:1](#[C:2][C@:3]1([H:9])[N:4]([H:10])[C@@:5]1([C:6]#[C:7][H:12])[H:11])[H:8]>>[C:1]1([H:8])=[C:2]=[C:3]([H:9])[N:4]([H:10])[C:5]([H:11])=[C:6]=[C:7]1[H:12]"
C        0.83276396       1.60192490       0.10019792
C        1.24345063       0.53282636      -0.41091733
C        0.88307710      -0.75487155      -0.75568636
N        0.42689393      -1.70468196       0.25411345
C       -0.78602578      -1.10514335      -0.29443148
C       -1.37754147      -0.01643122       0.31543958
C       -1.20019187       1.17563946       0.66241819
H        1.18873082       2.56016066       0.42836199
H        1.18463079      -1.18416335      -1.70216144
H        0.61017325      -1.35337922       1.18660697
H       -1.33150727      -1.71216813      -1.00504172
H       -1.67445409       1.96028740       1.22110023
12
Frame=12 idx=011024 GeodesicLength=0.5124934807713014 rxn_smarts="[C:1](#[C:2][C@:3]1([H:9])[N:4]([H:10])[C@@:5]1([C:6]#[C:7][H:12])[H:11])[H:8]>>[C:1]1([H:8])=[C:2]=[C:3]([H:9])[N:4]([H:10])[C:5]([H:11])=[C:6]=[C:7]1[H:12]"
C        0.84400034       1.60461953       0.10401928
C        1.24627077       0.53300791      -0.40984323
C        0.88617446      -0.75356743      -0.75782182
N        0.42575529      -1.70322175       0.25089165
C       -0.78999533      -1.10539444      -0.29451821
C       -1.37923452      -0.01726947       0.31789300
C       -1.20816008       1.17434089       0.67143944
H        1.21064397       2.56433843       0.41581246
H        1.19366488      -1.18193069      -1.70278497
H        0.61030711      -1.35608660       1.18453135
H       -1.33980202      -1.71370421      -1.00065272
H       -1.69962487       1.95486783       1.22103378
12
Frame=13 idx=011024 GeodesicLength=0.5550174608745397 rxn_smarts="[C:1](#[C:2][C@:3]1([H:9])[N:4]([H:10])[C@@:5]1([C:6]#[C:7][H:12])[H:11])[H:8]>>[C:1]1([H:8])=[C:2]=[C:3]([H:9])[N:4]([H:10])[C:5]([H:11])=[C:6]=[C:7]1[H:12]"
C        0.85540663       1.60746048       0.10764636
C        1.24898562       0.53333606      -0.40902460
C        0.88931796      -0.75222342      -0.75993578
N        0.42449257      -1.70146696       0.24783893
C       -0.79403560      -1.10555471      -0.29475276
C       -1.38109960      -0.01785264       0.31978652
C       -1.21645375       1.17316754       0.68019510
H        1.23302606       2.56820528       0.40303474
H        1.20301534      -1.17991246      -1.70314375
H        0.61015707      -1.35829015       1.18256033
H       -1.34806276      -1.71540776      -0.99621583
H       -1.72474954       1.94853874       1.22201074
12
Frame=14 idx=011024 GeodesicLength=0.5975343272232523 rxn_smarts="[C:1](#[C:2][C@:3]1([H:9])[N:4]([H:10])[C@@:5]1([C:6]#[C:7][H:12])[H:11])[H:8]>>[C:1]1([H:8])=[C:2]=[C:3]([H:9])[N:4]([H:10])[C:5]([H:11])=[C:6]=[C:7]1[H:12]"
C        0.86718906       1.61020356       0.11191964
C        1.25139031       0.53394659      -0.40869909
C        0.89212504      -0.75055048      -0.76265398
N        0.42386829      -1.69978331       0.24424574
C       -0.79801289      -1.10584497      -0.29426100
C       -1.38253726      -0.01884860       0.32323548
C       -1.22430613       1.17130819       0.69114771
H        1.25656995       2.57090948       0.39230975
H        1.21141332      -1.17722344      -1.70442933
H        0.61138422      -1.36087653       1.17999565
H       -1.35676983      -1.71716166      -0.99065654
H       -1.75231409       1.94392116       1.21784598
12
Frame=15 idx=011024 GeodesicLength=0.6400437452401204 rxn_smarts="[C:1](#[C:2][C@:3]1([H:9])[N:4]([H:10])[C@@:5]1([C:6]#[C:7][H:12])[H:11])[H:8]>>[C:1]1([H:8])=[C:2]=[C:3]([H:9])[N:4]([H:10])[C:5]([H:11])=[C:6]=[C:7]1[H:12]"
C        0.88090240       1.61156042       0.12065320
C        1.25536755       0.53342285      -0.40445431
C        0.89591014      -0.74924759      -0.76353551
N        0.42123833      -1.69903987       0.24052709
C       -0.80234425      -1.10526619      -0.29561795
C       -1.38437298      -0.01901441       0.32481602
C       -1.23211227       1.16941839       0.70252507
H        1.27627887       2.57898197       0.36806301
H        1.22231314      -1.17426819      -1.70359873
H        0.60912608      -1.36564498       1.17802156
H       -1.36513440      -1.71677506      -0.98856476
H       -1.77717261       1.93587266       1.22116531
12
Frame=16 idx=011024 GeodesicLength=0.6824743336197393 rxn_smarts="[C:1](#[C:2][C@:3]1([H:9])[N:4]([H:10])[C@@:5]1([C:6]#[C:7][H:12])[H:11])[H:8]>>[C:1]1([H:8])=[C:2]=[C:3]([H:9])[N:4]([H:10])[C:5]([H:11])=[C:6]=[C:7]1[H:12]"
C        0.89389494       1.61384949       0.12698714
C        1.25784984       0.53410284      -0.40351233
C        0.89867863      -0.74725193      -0.76629302
N        0.42056679      -1.69751495       0.23640050
C       -0.80641676      -1.10530366      -0.29501069
C       -1.38554676      -0.01999032       0.32904029
C       -1.23965924       1.16682436       0.71603289
H        1.29968493       2.58176509       0.35485197
H        1.23069056      -1.17082125      -1.70502843
H        0.61054547      -1.36904366       1.17505166
H       -1.37421384      -1.71792731      -0.98284473
H       -1.80607456       1.93131132       1.21432474
