17
Frame=0 idx=011434 GeodesicLength=0.0 rxn_smarts="[C:1]1([H:8])([H:9])[C:2]([H:10])([H:11])[C:3]1([C@@:4]1([H:13])[C:5]([H:14])([H:15])[C:6]([H:16])([H:17])[O:7]1)[H:12]>>[C:1](=[C:3]([C:2]([H:10])([H:11])[H:15])[H:12])([H:8])[H:9].[C:4]1([H:13])=[C:5]([H:14])[C:6]([H:16])([H:17])[O:7]1"
C       -1.71834826      -0.24139597       1.31534298
C       -1.14348782       0.63488488      -0.69721276
C       -1.01302892      -0.60284538       0.16375038
C        0.65474501      -0.86072276       0.21568695
C        1.23897592      -0.29234487      -0.97207053
C        1.95757912       0.66769380      -0.06322601
O        1.27111085       0.10090268       1.07437957
H       -1.42432247       0.65154164       1.85228504
H       -2.50089683      -0.85072820       1.75327355
H       -2.05268434       0.70330833      -1.29152580
H       -0.95111234       1.56958596      -0.17006793
H       -1.40981982      -1.49017104      -0.33266252
H        0.78326701      -1.89946938       0.51675105
H        1.60299814      -0.78968961      -1.86012211
H       -0.08748950       0.44792008      -1.34566158
H        3.03988313       0.51219515       0.00495945
H        1.75263114       1.73933462      -0.16387968
17
Frame=1 idx=011434 GeodesicLength=0.1290715733410306 rxn_smarts="[C:1]1([H:8])([H:9])[C:2]([H:10])([H:11])[C:3]1([C@@:4]1([H:13])[C:5]([H:14])([H:15])[C:6]([H:16])([H:17])[O:7]1)[H:12]>>[C:1](=[C:3]([C:2]([H:10])([H:11])[H:15])[H:12])([H:8])[H:9].[C:4]1([H:13])=[C:5]([H:14])[C:6]([H:16])([H:17])[O:7]1"
C       -1.73185457      -0.24001630       1.30356506
C       -1.16206010       0.64133826      -0.68298715
C       -1.02818249      -0.61010067       0.15421864
C        0.67200072      -0.86366887       0.22268601
C        1.25105597      -0.30255491      -0.97150184
C        1.96502893       0.66924985      -0.07042089
O        1.27571697       0.11332378       1.07107274
H       -1.40617905       0.62691782       1.86416939
H       -2.52243455      -0.84444136       1.73360838
H       -2.07104893       0.72460196      -1.27548245
H       -0.94981587       1.57045439      -0.15406790
H       -1.43170133      -1.49011079      -0.34903758
H        0.80915883      -1.89670464       0.53935128
H        1.62563019      -0.81267786      -1.84792811
H       -0.09258110       0.45498259      -1.35083075
H        3.04788790       0.52272183       0.00275077
H        1.74937848       1.73668493      -0.18916561
17
Frame=2 idx=011434 GeodesicLength=0.258081551968819 rxn_smarts="[C:1]1([H:8])([H:9])[C:2]([H:10])([H:11])[C:3]1([C@@:4]1([H:13])[C:5]([H:14])([H:15])[C:6]([H:16])([H:17])[O:7]1)[H:12]>>[C:1](=[C:3]([C:2]([H:10])([H:11])[H:15])[H:12])([H:8])[H:9].[C:4]1([H:13])=[C:5]([H:14])[C:6]([H:16])([H:17])[O:7]1"
C       -1.74500766      -0.23891158       1.29204708
C       -1.18087740       0.64822000      -0.66845552
C       -1.04389537      -0.61698027       0.14413430
C        0.68961138      -0.86645159       0.23008512
C        1.26353317      -0.31334967      -0.97073987
C        1.97254916       0.67079905      -0.07800231
O        1.28034882       0.12619857       1.06746510
H       -1.38907743       0.60059506       1.87542077
H       -2.54322922      -0.83862221       1.71433425
H       -2.08950450       0.74670312      -1.25892095
H       -0.94836406       1.57122231      -0.13781315
H       -1.45480246      -1.48903995      -0.36627914
H        0.83526134      -1.89327065       0.56291065
H        1.64901775      -0.83641588      -1.83481876
H       -0.09763725       0.46218799      -1.35629482
H        3.05590852       0.53357239       0.00020950
H        1.74616522       1.73354330      -0.21528224
17
Frame=3 idx=011434 GeodesicLength=0.3870434547371586 rxn_smarts="[C:1]1([H:8])([H:9])[C:2]([H:10])([H:11])[C:3]1([C@@:4]1([H:13])[C:5]([H:14])([H:15])[C:6]([H:16])([H:17])[O:7]1)[H:12]>>[C:1](=[C:3]([C:2]([H:10])([H:11])[H:15])[H:12])([H:8])[H:9].[C:4]1([H:13])=[C:5]([H:14])[C:6]([H:16])([H:17])[O:7]1"
C       -1.75779765      -0.23812099       1.28078303
C       -1.19996346       0.65552826      -0.65360459
C       -1.06019721      -0.62347185       0.13344963
C        0.70760589      -0.86908404       0.23790849
C        1.27642816      -0.32475106      -0.96975119
C        1.98012462       0.67233380      -0.08596899
O        1.28500422       0.13951467       1.06354533
H       -1.37289479       0.57260072       1.88599986
H       -2.56331539      -0.83326657       1.69545208
H       -2.10807369       0.76961287      -1.24179976
H       -0.94677179       1.57185439      -0.12131222
H       -1.47916461      -1.48690752      -0.38442134
H        0.86160969      -1.88915196       0.58744216
H        1.67318354      -0.86087612      -1.82074111
H       -0.10265770       0.46953215      -1.36207765
H        3.06392596       0.54478327      -0.00267989
H        1.74295421       1.72986997      -0.24222385
17
Frame=4 idx=011434 GeodesicLength=0.5159861500198499 rxn_smarts="[C:1]1([H:8])([H:9])[C:2]([H:10])([H:11])[C:3]1([C@@:4]1([H:13])[C:5]([H:14])([H:15])[C:6]([H:16])([H:17])[O:7]1)[H:12]>>[C:1](=[C:3]([C:2]([H:10])([H:11])[H:15])[H:12])([H:8])[H:9].[C:4]1([H:13])=[C:5]([H:14])[C:6]([H:16])([H:17])[O:7]1"
C       -1.77021367      -0.23768885       1.26976283
C       -1.21934348       0.66326341      -0.63841556
C       -1.07711957      -0.62956026       0.12211240
C        0.72602138      -0.87157575       0.24618730
C        1.28976246      -0.33678350      -0.96849480
C        1.98773987       0.67384558      -0.09432364
O        1.28968062       0.15325907       1.05929989
H       -1.35752612       0.54295818       1.89583951
H       -2.58271846      -0.82838061       1.67696627
H       -2.12678336       0.79334244      -1.22405973
H       -0.94504911       1.57232016      -0.10457133
H       -1.50483472      -1.48365151      -0.40350329
H        0.88824931      -1.88432286       0.61297001
H        1.69814574      -0.88602778      -1.80563492
H       -0.10764279       0.47700736      -1.36820978
H        3.07192084       0.55638914      -0.00593734
H        1.73971106       1.72560575      -0.26998779
17
Frame=5 idx=011434 GeodesicLength=0.6449002717875174 rxn_smarts="[C:1]1([H:8])([H:9])[C:2]([H:10])([H:11])[C:3]1([C@@:4]1([H:13])[C:5]([H:14])([H:15])[C:6]([H:16])([H:17])[O:7]1)[H:12]>>[C:1](=[C:3]([C:2]([H:10])([H:11])[H:15])[H:12])([H:8])[H:9].[C:4]1([H:13])=[C:5]([H:14])[C:6]([H:16])([H:17])[O:7]1"
C       -1.78224600      -0.23764852       1.25898331
C       -1.23903606       0.67142241      -0.62288367
C       -1.09469701      -0.63522642       0.11007218
C        0.74489389      -0.87393999       0.25495239
C        1.30355854      -0.34946872      -0.96693146
C        1.99538560       0.67531871      -0.10306403
O        1.29437426       0.16741780       1.05471863
H       -1.34288255       0.51169305       1.90486634
H       -2.60145266      -0.82397409       1.65888524
H       -2.14565738       0.81789527      -1.20564706
H       -0.94320889       1.57258486      -0.08760376
H       -1.53186068      -1.47921402      -0.42354574
H        0.91522377      -1.87876588       0.63951217
H        1.72391423      -0.91183254      -1.78945561
H       -0.11259222       0.48461433      -1.37471604
H        3.07987588       0.56841617      -0.00958163
H        1.73640729       1.72070758      -0.29856128
17
Frame=6 idx=011434 GeodesicLength=0.7738127832259896 rxn_smarts="[C:1]1([H:8])([H:9])[C:2]([H:10])([H:11])[C:3]1([C@@:4]1([H:13])[C:5]([H:14])([H:15])[C:6]([H:16])([H:17])[O:7]1)[H:12]>>[C:1](=[C:3]([C:2]([H:10])([H:11])[H:15])[H:12])([H:8])[H:9].[C:4]1([H:13])=[C:5]([H:14])[C:6]([H:16])([H:17])[O:7]1"
C       -1.79388540      -0.23804902       1.24842539
C       -1.25907018       0.68001190      -0.60697916
C       -1.11296491      -0.64043884       0.09727168
C        0.76426409      -0.87618464       0.26424327
C        1.31783900      -0.36283196      -0.96501108
C        2.00304808       0.67673860      -0.11219573
O        1.29908120       0.18197554       1.04978559
H       -1.32888210       0.47881444       1.91299025
H       -2.61953658      -0.82006195       1.64121125
H       -2.16472705       0.84328776      -1.18648431
H       -0.94126457       1.57261864      -0.07041882
H       -1.56028061      -1.47351795      -0.44458463
H        0.94259358      -1.87244166       0.66710590
H        1.75050628      -0.93825670      -1.77213529
H       -0.11750928       0.49234945      -1.38163033
H        3.08777134       0.58088659      -0.01364422
H        1.73301711       1.71509977      -0.32794977
17
Frame=7 idx=011434 GeodesicLength=0.9027352051074664 rxn_smarts="[C:1]1([H:8])([H:9])[C:2]([H:10])([H:11])[C:3]1([C@@:4]1([H:13])[C:5]([H:14])([H:15])[C:6]([H:16])([H:17])[O:7]1)[H:12]>>[C:1](=[C:3]([C:2]([H:10])([H:11])[H:15])[H:12])([H:8])[H:9].[C:4]1([H:13])=[C:5]([H:14])[C:6]([H:16])([H:17])[O:7]1"
C       -1.80511935      -0.23893058       1.23806947
C       -1.27947266       0.68903416      -0.59067748
C       -1.13195872      -0.64516560       0.08365357
C        0.78417762      -0.87831949       0.27410585
C        1.33262856      -0.37690190      -0.96268127
C        2.01071910       0.67808031      -0.12171907
O        1.30379697       0.19691685       1.04449042
H       -1.31545657       0.44434893       1.92011010
H       -2.63696613      -0.81667447       1.62394499
H       -2.18402880       0.86952975      -1.16649337
H       -0.93922861       1.57238857      -0.05304104
H       -1.59014406      -1.46648234      -0.46664648
H        0.97042030      -1.86531548       0.69578859
H        1.77792443      -0.96526133      -1.75362575
H       -0.12239651       0.50021721      -1.38898271
H        3.09558776       0.59381603      -0.01815537
H        1.72951667       1.70871938      -0.35814046
17
Frame=8 idx=011434 GeodesicLength=1.0316532771758802 rxn_smarts="[C:1]1([H:8])([H:9])[C:2]([H:10])([H:11])[C:3]1([C@@:4]1([H:13])[C:5]([H:14])([H:15])[C:6]([H:16])([H:17])[O:7]1)[H:12]>>[C:1](=[C:3]([C:2]([H:10])([H:11])[H:15])[H:12])([H:8])[H:9].[C:4]1([H:13])=[C:5]([H:14])[C:6]([H:16])([H:17])[O:7]1"
C       -1.81594195      -0.24034510       1.22789157
C       -1.30027039       0.69849725      -0.57395231
C       -1.15171028      -0.64936199       0.06915638
C        0.80467993      -0.88035240       0.28459289
C        1.34794017      -0.39170627      -0.95988029
C        2.01838925       0.67932188      -0.13164552
O        1.30852037       0.21222772       1.03881710
H       -1.30254640       0.40830016       1.92610651
H       -2.65375060      -0.81384918       1.60708590
H       -2.20359580       0.89663715      -1.14558037
H       -0.93711741       1.57186347      -0.03548683
H       -1.62148688      -1.45800534      -0.48976119
H        0.99878301      -1.85733421       0.72561305
H        1.80616530      -0.99280559      -1.73385858
H       -0.12725747       0.50821594      -1.39680842
H        3.10330697       0.60720902      -0.02315832
H        1.72589220       1.70148749      -0.38913159
17
Frame=9 idx=011434 GeodesicLength=1.1608601303477113 rxn_smarts="[C:1]1([H:8])([H:9])[C:2]([H:10])([H:11])[C:3]1([C@@:4]1([H:13])[C:5]([H:14])([H:15])[C:6]([H:16])([H:17])[O:7]1)[H:12]>>[C:1](=[C:3]([C:2]([H:10])([H:11])[H:15])[H:12])([H:8])[H:9].[C:4]1([H:13])=[C:5]([H:14])[C:6]([H:16])([H:17])[O:7]1"
C       -1.82631970      -0.24247794       1.21771881
C       -1.32150699       0.70846194      -0.55670326
C       -1.17232074      -0.65295301       0.05372780
C        0.82589661      -0.88225533       0.29585390
C        1.36379865      -0.40733061      -0.95647797
C        2.02603256       0.68038647      -0.14202149
O        1.31322194       0.22796203       1.03275233
H       -1.29013134       0.37072997       1.93083800
H       -2.66980752      -0.81183497       1.59044003
H       -2.22345089       0.92478260      -1.12356705
H       -0.93486781       1.57105954      -0.01772809
H       -1.65441650      -1.44789502      -0.51394096
H        1.02789302      -1.84835925       0.75679219
H        1.83516864      -1.02093036      -1.71274477
H       -0.13213863       0.51634209      -1.40517659
H        3.11088651       0.62101610      -0.02877314
H        1.72206219       1.69329574      -0.42098974
17
Frame=10 idx=011434 GeodesicLength=1.29006695275633 rxn_smarts="[C:1]1([H:8])([H:9])[C:2]([H:10])([H:11])[C:3]1([C@@:4]1([H:13])[C:5]([H:14])([H:15])[C:6]([H:16])([H:17])[O:7]1)[H:12]>>[C:1](=[C:3]([C:2]([H:10])([H:11])[H:15])[H:12])([H:8])[H:9].[C:4]1([H:13])=[C:5]([H:14])[C:6]([H:16])([H:17])[O:7]1"
C       -1.83628394      -0.24524607       1.20761973
C       -1.34319443       0.71888799      -0.53895844
C       -1.19378269      -0.65588468       0.03728122
C        0.84781005      -0.88405266       0.30787297
C        1.38020849      -0.42375280      -0.95246076
C        2.03365060       0.68127726      -0.15281289
O        1.31791522       0.24404211       1.02627449
H       -1.27808996       0.33157580       1.93419985
H       -2.68518631      -0.81051973       1.57415873
H       -2.24363892       0.95383213      -1.10040272
H       -0.93257694       1.56990335       0.00015864
H       -1.68891100      -1.43610794      -0.53920628
H        1.05771417      -1.83838749       0.78924850
H        1.86498970      -1.04953897      -1.69023746
H       -0.13700784       0.52462112      -1.41410218
H        3.11831987       0.63528107      -0.03497773
H        1.71806391       1.68406951      -0.45365566
17
Frame=11 idx=011434 GeodesicLength=1.4192791607404112 rxn_smarts="[C:1]1([H:8])([H:9])[C:2]([H:10])([H:11])[C:3]1([C@@:4]1([H:13])[C:5]([H:14])([H:15])[C:6]([H:16])([H:17])[O:7]1)[H:12]>>[C:1](=[C:3]([C:2]([H:10])([H:11])[H:15])[H:12])([H:8])[H:9].[C:4]1([H:13])=[C:5]([H:14])[C:6]([H:16])([H:17])[O:7]1"
C       -1.84583870      -0.24869833       1.19753503
C       -1.36536176       0.72978480      -0.52068412
C       -1.21615550      -0.65809480       0.01974931
C        0.87047897      -0.88574256       0.32071366
C        1.39719627      -0.44100411      -0.94775998
C        2.04123086       0.68195113      -0.16402725
O        1.32257973       0.26045266       1.01937401
H       -1.26635319       0.29087027       1.93606971
H       -2.69985466      -0.80998899       1.55822568
H       -2.26419924       0.98380964      -1.07596984
H       -0.93025756       1.56836875       0.01814602
H       -1.72502559      -1.42253983      -0.56556909
H        1.08834307      -1.82734882       0.82304863
H        1.89563225      -1.07860212      -1.66628464
H       -0.14187535       0.53306712      -1.42363102
H        3.12557668       0.64999285      -0.04181087
H        1.71388372       1.67372233      -0.48712524
17
Frame=12 idx=011434 GeodesicLength=1.5484961871667335 rxn_smarts="[C:1]1([H:8])([H:9])[C:2]([H:10])([H:11])[C:3]1([C@@:4]1([H:13])[C:5]([H:14])([H:15])[C:6]([H:16])([H:17])[O:7]1)[H:12]>>[C:1](=[C:3]([C:2]([H:10])([H:11])[H:15])[H:12])([H:8])[H:9].[C:4]1([H:13])=[C:5]([H:14])[C:6]([H:16])([H:17])[O:7]1"
C       -1.85498175      -0.25290522       1.18739262
C       -1.38803933       0.74116636      -0.50183159
C       -1.23949459      -0.65950060       0.00105783
C        0.89397329      -0.88731219       0.33446476
C        1.41477177      -0.45912093      -0.94228443
C        2.04876066       0.68236249      -0.17567238
O        1.32720588       0.27718704       1.01202834
H       -1.25486125       0.24861487       1.93630142
H       -2.71378984      -0.81034531       1.54260627
H       -2.28516635       1.01474498      -1.05013376
H       -0.92792696       1.56643051       0.03621252
H       -1.76281236      -1.40704893      -0.59304887
H        1.11989417      -1.81514714       0.85827854
H        1.92708583      -1.10809641      -1.64080510
H       -0.14675287       0.54169925      -1.43381211
H        3.13262895       0.66513102      -0.04934394
H        1.70950475       1.66214020      -0.52141011
17
Frame=13 idx=011434 GeodesicLength=1.6776857979944326 rxn_smarts="[C:1]1([H:8])([H:9])[C:2]([H:10])([H:11])[C:3]1([C@@:4]1([H:13])[C:5]([H:14])([H:15])[C:6]([H:16])([H:17])[O:7]1)[H:12]>>[C:1](=[C:3]([C:2]([H:10])([H:11])[H:15])[H:12])([H:8])[H:9].[C:4]1([H:13])=[C:5]([H:14])[C:6]([H:16])([H:17])[O:7]1"
C       -1.86371604      -0.25792000       1.17712184
C       -1.41126056       0.75304209      -0.48235192
C       -1.26385419      -0.66001346      -0.01886965
C        0.91835706      -0.88875000       0.34921325
C        1.43294686      -0.47813819      -0.93594661
C        2.05623097       0.68246191      -0.18776129
O        1.33177933       0.29423684       1.00422522
H       -1.24356321       0.20483450       1.93475430
H       -2.72695349      -0.81170231       1.52725943
H       -2.30658640       1.04665701      -1.02275202
H       -0.92560969       1.56406328       0.05431960
H       -1.80230554      -1.38950871      -0.62165216
H        1.15247624      -1.80169604       0.89501767
H        1.95932886      -1.13799932      -1.61374267
H       -0.15164636       0.55053935      -1.44469179
H        3.13944750       0.68066256      -0.05763576
H        1.70492865       1.64923048      -0.55650745
17
Frame=14 idx=011434 GeodesicLength=1.8068440541518294 rxn_smarts="[C:1]1([H:8])([H:9])[C:2]([H:10])([H:11])[C:3]1([C@@:4]1([H:13])[C:5]([H:14])([H:15])[C:6]([H:16])([H:17])[O:7]1)[H:12]>>[C:1](=[C:3]([C:2]([H:10])([H:11])[H:15])[H:12])([H:8])[H:9].[C:4]1([H:13])=[C:5]([H:14])[C:6]([H:16])([H:17])[O:7]1"
C       -1.87204295      -0.26382548       1.16662075
C       -1.43505588       0.76542638      -0.46217763
C       -1.28929783      -0.65952361      -0.04012006
C        0.94371516      -0.89002774       0.36507171
C        1.45172299      -0.49809976      -0.92863700
C        2.06362979       0.68218292      -0.20031148
O        1.33629179       0.31159213       0.99593476
H       -1.23241056       0.15951911       1.93124196
H       -2.73931939      -0.81419907       1.51210819
H       -2.32850189       1.07957477      -0.99362068
H       -0.92332763       1.56123955       0.07244482
H       -1.84355915      -1.36973727      -0.65139637
H        1.18624034      -1.78683655       0.93338380
H        1.99234779      -1.16829878      -1.58499459
H       -0.15657700       0.55962219      -1.45632531
H        3.14600328       0.69654481      -0.06678102
H        1.70014114       1.63484637      -0.59244183
17
Frame=15 idx=011434 GeodesicLength=1.9359493851230762 rxn_smarts="[C:1]1([H:8])([H:9])[C:2]([H:10])([H:11])[C:3]1([C@@:4]1([H:13])[C:5]([H:14])([H:15])[C:6]([H:16])([H:17])[O:7]1)[H:12]>>[C:1](=[C:3]([C:2]([H:10])([H:11])[H:15])[H:12])([H:8])[H:9].[C:4]1([H:13])=[C:5]([H:14])[C:6]([H:16])([H:17])[O:7]1"
C       -1.87996033      -0.27069772       1.15578692
C       -1.45945821       0.77832702      -0.44123125
C       -1.31589249      -0.65790834      -0.06277473
C        0.97013726      -0.89111279       0.38216125
C        1.47109956      -0.51905065      -0.92023998
C        2.07094570       0.68145275      -0.21334260
O        1.34073341       0.32924312       0.98713499
H       -1.22136012       0.11266959       1.92556643
H       -2.75084919      -0.81798243       1.49706557
H       -2.35095546       1.11351167      -0.96254210
H       -0.92110786       1.55793362       0.09054511
H       -1.88662287      -1.34755437      -0.68228169
H        1.22134081      -1.77040906       0.97348788
H        2.02611087      -1.19897590      -1.55448362
H       -0.16156161       0.56898037      -1.46876633
H        3.15226386       0.71271914      -0.07687375
H        1.69513668       1.61885398      -0.62921211
17
Frame=16 idx=011434 GeodesicLength=2.064989357699917 rxn_smarts="[C:1]1([H:8])([H:9])[C:2]([H:10])([H:11])[C:3]1([C@@:4]1([H:13])[C:5]([H:14])([H:15])[C:6]([H:16])([H:17])[O:7]1)[H:12]>>[C:1](=[C:3]([C:2]([H:10])([H:11])[H:15])[H:12])([H:8])[H:9].[C:4]1([H:13])=[C:5]([H:14])[C:6]([H:16])([H:17])[O:7]1"
C       -1.88746948      -0.27862841       1.14448783
C       -1.48449776       0.79175297      -0.41941902
C       -1.34371344      -0.65502043      -0.08692372
C        0.99772468      -0.89195097       0.40062127
C        1.49106857      -0.54104487      -0.91062198
C        2.07816562       0.68018573      -0.22688241
O        1.34509647       0.34718564       0.97779090
H       -1.21036341       0.06424776       1.91749163
H       -2.76150788      -0.82322600       1.48200269
H       -2.37399006       1.14848883      -0.92925222
H       -0.91897766       1.55411758       0.10858950
H       -1.93156121      -1.32273903      -0.71431657
H        1.25796100      -1.75219037       1.01547875
H        2.06059060      -1.23002927      -1.52209392
H       -0.16662475       0.57865362      -1.48207622
H        3.15819815       0.72911385      -0.08803419
H        1.68990057       1.60108338      -0.66684231
