13
Frame=0 idx=010712 GeodesicLength=0.0 rxn_smarts="[C:1]([O:2][C@@:3]1([H:11])[C:4]([H:12])([H:13])[O:5][C:6]1=[O:7])([H:8])([H:9])[H:10]>>[C:1]([O:2][C:3](=[C:6]=[O:7])[H:11])([H:8])([H:9])[H:10].[C:4](=[O:5])([H:12])[H:13]"
C        1.95826231       0.21662330      -0.59831514
O        1.41138316      -0.63838748       0.39115115
C        0.05769271      -0.58130837       0.52946105
C       -1.90620135       0.56345581       0.77727317
O       -2.36771464      -0.52995353       0.39392479
C       -0.72367251      -0.80589610      -0.60035947
O       -0.86578154      -0.78511408      -1.75058822
H        1.66030783      -0.09129202      -1.60505543
H        3.03968097       0.14404670      -0.50613284
H        1.64131105       1.25001375      -0.42944257
H       -0.29166409      -0.95157900       1.47798856
H       -1.72891739       1.38851172       0.07609191
H       -1.88468648       0.82087932       1.84400298
13
Frame=1 idx=010712 GeodesicLength=0.11443754161079409 rxn_smarts="[C:1]([O:2][C@@:3]1([H:11])[C:4]([H:12])([H:13])[O:5][C:6]1=[O:7])([H:8])([H:9])[H:10]>>[C:1]([O:2][C:3](=[C:6]=[O:7])[H:11])([H:8])([H:9])[H:10].[C:4](=[O:5])([H:12])[H:13]"
C        1.97058048       0.23821007      -0.57824391
O        1.40635200      -0.70422342       0.31509266
C        0.06040814      -0.59011955       0.50640094
C       -1.89744098       0.57630774       0.75761452
O       -2.36617797      -0.53731689       0.43120136
C       -0.75377294      -0.86202169      -0.59174429
O       -0.92836373      -0.88972502      -1.73847496
H        1.62671559       0.07254631      -1.60394683
H        3.04917923       0.10091284      -0.53675095
H        1.72121739       1.25827615      -0.27016856
H       -0.25760793      -0.91890530       1.48158662
H       -1.75016244       1.37156957       0.01632940
H       -1.88092684       0.88448920       1.81110400
13
Frame=2 idx=010712 GeodesicLength=0.22175245616052958 rxn_smarts="[C:1]([O:2][C@@:3]1([H:11])[C:4]([H:12])([H:13])[O:5][C:6]1=[O:7])([H:8])([H:9])[H:10]>>[C:1]([O:2][C:3](=[C:6]=[O:7])[H:11])([H:8])([H:9])[H:10].[C:4](=[O:5])([H:12])[H:13]"
C        1.98465281       0.25722907      -0.55810060
O        1.39848929      -0.75415617       0.23823375
C        0.06300687      -0.59660099       0.48135489
C       -1.89039215       0.58751505       0.73798688
O       -2.36312822      -0.54434032       0.46793631
C       -0.78334506      -0.91465405      -0.58205861
O       -0.98890857      -0.98522595      -1.72296881
H        1.59773385       0.23082394      -1.58186072
H        3.05549773       0.06360065      -0.57623450
H        1.80450877       1.24447882      -0.12078263
H       -0.22065907      -0.88582714       1.48003020
H       -1.77682083       1.35276350      -0.03985047
H       -1.88063543       0.94439360       1.77631430
13
Frame=3 idx=010712 GeodesicLength=0.3248781856673062 rxn_smarts="[C:1]([O:2][C@@:3]1([H:11])[C:4]([H:12])([H:13])[O:5][C:6]1=[O:7])([H:8])([H:9])[H:10]>>[C:1]([O:2][C:3](=[C:6]=[O:7])[H:11])([H:8])([H:9])[H:10].[C:4](=[O:5])([H:12])[H:13]"
C        2.00275216       0.27307795      -0.53867343
O        1.38813111      -0.79019083       0.16031361
C        0.06529927      -0.59650092       0.45400031
C       -1.88826813       0.59652647       0.71950512
O       -2.35897113      -0.55293550       0.50525302
C       -0.81209027      -0.96175110      -0.57118402
O       -1.04875617      -1.07356294      -1.70392948
H        1.57829032       0.38295670      -1.54216268
H        3.06048448       0.02971992      -0.62250380
H        1.89551199       1.21066962       0.01669902
H       -0.18108377      -0.84920692       1.47294525
H       -1.81384561       1.33163972      -0.09138463
H       -1.88745423       0.99955784       1.74112171
13
Frame=4 idx=010712 GeodesicLength=0.4237643715822388 rxn_smarts="[C:1]([O:2][C@@:3]1([H:11])[C:4]([H:12])([H:13])[O:5][C:6]1=[O:7])([H:8])([H:9])[H:10]>>[C:1]([O:2][C:3](=[C:6]=[O:7])[H:11])([H:8])([H:9])[H:10].[C:4](=[O:5])([H:12])[H:13]"
C        2.02031735       0.28872835      -0.51801974
O        1.37550506      -0.81647578       0.07879670
C        0.06695362      -0.59835599       0.42434670
C       -1.88412265       0.60668243       0.69984356
O       -2.35324127      -0.55752353       0.54264518
C       -0.84137749      -1.00892847      -0.55872868
O       -1.11030618      -1.16239804      -1.68053269
H        1.56529957       0.53159220      -1.48443215
H        3.06127281       0.00897566      -0.67174039
H        1.98183399       1.15874612       0.14618712
H       -0.14020296      -0.81568066       1.46067080
H       -1.84947118       1.30960446      -0.14171249
H       -1.89246068       1.05503325       1.70267606
13
Frame=5 idx=010712 GeodesicLength=0.5195343642444001 rxn_smarts="[C:1]([O:2][C@@:3]1([H:11])[C:4]([H:12])([H:13])[O:5][C:6]1=[O:7])([H:8])([H:9])[H:10]>>[C:1]([O:2][C:3](=[C:6]=[O:7])[H:11])([H:8])([H:9])[H:10].[C:4](=[O:5])([H:12])[H:13]"
C        2.04098903       0.30241518      -0.49745432
O        1.36014828      -0.83146523      -0.00668430
C        0.06780535      -0.59525600       0.39170841
C       -1.88335021       0.61615116       0.68071043
O       -2.34627361      -0.56175768       0.58111188
C       -0.87042283      -1.05242827      -0.54468015
O       -1.17323299      -1.25026768      -1.65200477
H        1.56486851       0.67437085      -1.41157671
H        3.06136278      -0.00454748      -0.72228808
H        2.07014530       1.08952989       0.26391092
H       -0.09763305      -0.78005785       1.44244548
H       -1.89228457       1.28553285      -0.18845701
H       -1.90212200       1.10778025       1.66325821
13
Frame=6 idx=010712 GeodesicLength=0.611776494637571 rxn_smarts="[C:1]([O:2][C@@:3]1([H:11])[C:4]([H:12])([H:13])[O:5][C:6]1=[O:7])([H:8])([H:9])[H:10]>>[C:1]([O:2][C:3](=[C:6]=[O:7])[H:11])([H:8])([H:9])[H:10].[C:4](=[O:5])([H:12])[H:13]"
C        2.06302802       0.31509763      -0.47640207
O        1.34175982      -0.83539508      -0.09817505
C        0.06773242      -0.59014486       0.35599012
C       -1.88346767       0.62614749       0.66107105
O       -2.33769545      -0.56357850       0.62048511
C       -0.89949773      -1.09453527      -0.52848719
O       -1.23791799      -1.34017960      -1.61696624
H        1.57548656       0.81177806      -1.32310232
H        3.06042698      -0.00756029      -0.77219750
H        2.15514002       1.00368340       0.37085338
H       -0.05370838      -0.74487605       1.41828892
H       -1.93805723       1.25981380      -0.23295364
H       -1.91322938       1.15974928       1.62159542
13
Frame=7 idx=010712 GeodesicLength=0.6997597298221925 rxn_smarts="[C:1]([O:2][C@@:3]1([H:11])[C:4]([H:12])([H:13])[O:5][C:6]1=[O:7])([H:8])([H:9])[H:10]>>[C:1]([O:2][C:3](=[C:6]=[O:7])[H:11])([H:8])([H:9])[H:10].[C:4](=[O:5])([H:12])[H:13]"
C        2.08555962       0.32680740      -0.45496040
O        1.31965129      -0.82667148      -0.19668716
C        0.06667595      -0.58347899       0.31760980
C       -1.88389134       0.63692640       0.64040944
O       -2.32714990      -0.56240652       0.66022438
C       -0.92793298      -1.13582628      -0.50950512
O       -1.30292959      -1.43273052      -1.57417726
H        1.59616106       0.94272938      -1.21849551
H        3.05843105       0.00038828      -0.82062674
H        2.23480984       0.90144492       0.46605869
H       -0.00871219      -0.71092751       1.38857462
H       -1.98535312       1.23249280      -0.27559151
H       -1.92531970       1.21125212       1.57716677
13
Frame=8 idx=010712 GeodesicLength=0.7840962810047751 rxn_smarts="[C:1]([O:2][C@@:3]1([H:11])[C:4]([H:12])([H:13])[O:5][C:6]1=[O:7])([H:8])([H:9])[H:10]>>[C:1]([O:2][C:3](=[C:6]=[O:7])[H:11])([H:8])([H:9])[H:10].[C:4](=[O:5])([H:12])[H:13]"
C        2.11160254       0.33549631      -0.43457849
O        1.29303536      -0.80160045      -0.30058249
C        0.06422477      -0.56888821       0.27667964
C       -1.89011934       0.64681701       0.62000205
O       -2.31511224      -0.56155684       0.70050780
C       -0.95358704      -1.17323729      -0.48748366
O       -1.36402613      -1.52492203      -1.52325578
H        1.63264592       1.06468999      -1.09885234
H        3.05724247       0.01283683      -0.86914464
H        2.31519642       0.78120898       0.54566980
H        0.03671829      -0.67231358       1.35343723
H       -2.04159006       1.20213619      -0.31437245
H       -1.94623097       1.25933307       1.53197333
13
Frame=9 idx=010712 GeodesicLength=0.8642299222452724 rxn_smarts="[C:1]([O:2][C@@:3]1([H:11])[C:4]([H:12])([H:13])[O:5][C:6]1=[O:7])([H:8])([H:9])[H:10]>>[C:1]([O:2][C:3](=[C:6]=[O:7])[H:11])([H:8])([H:9])[H:10].[C:4](=[O:5])([H:12])[H:13]"
C        2.13969244       0.34087965      -0.41571255
O        1.26105855      -0.75747684      -0.40918711
C        0.06037156      -0.54738419       0.23477335
C       -1.90135125       0.65616593       0.59930110
O       -2.30142719      -0.56015267       0.74035964
C       -0.97481799      -1.20734108      -0.46170859
O       -1.41761286      -1.61624291      -1.46389501
H        1.68371341       1.17485403      -0.96291372
H        3.05563423       0.03084931      -0.91828306
H        2.39277136       0.64217385       0.60715857
H        0.08183554      -0.62939120       1.31449925
H       -2.10389669       1.16874608      -0.34990445
H       -1.97597110       1.30432003       1.48551259
13
Frame=10 idx=010712 GeodesicLength=0.9403924996777169 rxn_smarts="[C:1]([O:2][C@@:3]1([H:11])[C:4]([H:12])([H:13])[O:5][C:6]1=[O:7])([H:8])([H:9])[H:10]>>[C:1]([O:2][C:3](=[C:6]=[O:7])[H:11])([H:8])([H:9])[H:10].[C:4](=[O:5])([H:12])[H:13]"
C        2.16914553       0.34195349      -0.39927618
O        1.22253149      -0.69042308      -0.52009748
C        0.05515468      -0.51826526       0.19429431
C       -1.91826180       0.66498507       0.57801461
O       -2.28654463      -0.55811454       0.77845980
C       -0.98926721      -1.23752184      -0.43154646
O       -1.45846142      -1.70605673      -1.39630765
H        1.74945754       1.26921355      -0.80835027
H        3.05179685       0.05448571      -0.97051974
H        2.46667763       0.48220172       0.64611881
H        0.12562684      -0.58036349       1.27431001
H       -2.17079744       1.13213786      -0.38280493
H       -2.01705806       1.34576754       1.43770517
13
Frame=11 idx=010712 GeodesicLength=1.0137280095997434 rxn_smarts="[C:1]([O:2][C@@:3]1([H:11])[C:4]([H:12])([H:13])[O:5][C:6]1=[O:7])([H:8])([H:9])[H:10]>>[C:1]([O:2][C:3](=[C:6]=[O:7])[H:11])([H:8])([H:9])[H:10].[C:4](=[O:5])([H:12])[H:13]"
C        2.20234134       0.33537587      -0.38751068
O        1.17788507      -0.59640397      -0.62576929
C        0.04804003      -0.47304675       0.15695854
C       -1.94752480       0.67068527       0.55884106
O       -2.27121925      -0.55965535       0.81456268
C       -0.99271101      -1.25844943      -0.39776273
O       -1.47833658      -1.78662651      -1.32421380
H        1.84065089       1.33862118      -0.64493954
H        3.04778606       0.07383065      -1.02398802
H        2.53616908       0.30345487       0.65577585
H        0.16629937      -0.51586736       1.23478648
H       -2.24982669       1.09026667      -0.40976158
H       -2.07955351       1.37781488       1.39302103
13
Frame=12 idx=010712 GeodesicLength=1.0844196521060656 rxn_smarts="[C:1]([O:2][C@@:3]1([H:11])[C:4]([H:12])([H:13])[O:5][C:6]1=[O:7])([H:8])([H:9])[H:10]>>[C:1]([O:2][C:3](=[C:6]=[O:7])[H:11])([H:8])([H:9])[H:10].[C:4](=[O:5])([H:12])[H:13]"
C        2.23550662       0.32116092      -0.38141045
O        1.12841508      -0.47497042      -0.71978341
C        0.03978417      -0.41503942       0.12712321
C       -1.98573077       0.67411502       0.54118157
O       -2.25614193      -0.56289071       0.84639395
C       -0.98326803      -1.27042968      -0.36046705
O       -1.47257365      -1.85750788      -1.25037940
H        1.95188183       1.37692225      -0.47527158
H        3.04062532       0.09101646      -1.07965003
H        2.59236870       0.11007323       0.63288631
H        0.20256443      -0.43757815       1.20086942
H       -2.33284331       1.04446857      -0.43274794
H       -2.16058845       1.40065982       1.35125539
13
Frame=13 idx=010712 GeodesicLength=1.1535337636286236 rxn_smarts="[C:1]([O:2][C@@:3]1([H:11])[C:4]([H:12])([H:13])[O:5][C:6]1=[O:7])([H:8])([H:9])[H:10]>>[C:1]([O:2][C:3](=[C:6]=[O:7])[H:11])([H:8])([H:9])[H:10].[C:4](=[O:5])([H:12])[H:13]"
C        2.26606388       0.29838746      -0.38181619
O        1.07828501      -0.32978775      -0.79339091
C        0.03111585      -0.34361943       0.10693235
C       -2.03156049       0.67474793       0.52607954
O       -2.24095913      -0.56828439       0.87239898
C       -0.95917202      -1.27076582      -0.32142127
O       -1.43700985      -1.91440613      -1.17933670
H        2.07997993       1.37760637      -0.31180813
H        3.02959264       0.10094594      -1.13482220
H        2.62571073      -0.08717216       0.57858131
H        0.23367986      -0.34444380       1.17517571
H       -2.41673514       0.99563183      -0.45126530
H       -2.25899127       1.41115993       1.31469281
13
Frame=14 idx=010712 GeodesicLength=1.2247900376117644 rxn_smarts="[C:1]([O:2][C@@:3]1([H:11])[C:4]([H:12])([H:13])[O:5][C:6]1=[O:7])([H:8])([H:9])[H:10]>>[C:1]([O:2][C:3](=[C:6]=[O:7])[H:11])([H:8])([H:9])[H:10].[C:4](=[O:5])([H:12])[H:13]"
C        2.29070338       0.26822662      -0.38825333
O        1.03241210      -0.16737128      -0.84014990
C        0.02274324      -0.26005649       0.09850390
C       -2.08241337       0.67215969       0.51271366
O       -2.22523690      -0.57545329       0.89271927
C       -0.92050957      -1.25891435      -0.28054872
O       -1.37215058      -1.95423467      -1.11345511
H        2.21961986       1.33958169      -0.16136699
H        3.01172676       0.10375832      -1.18966990
H        2.63207046      -0.28175087       0.49555727
H        0.25982825      -0.23844151       1.16045808
H       -2.49699611       0.94366676      -0.46778153
H       -2.37179754       1.40882938       1.28127330
13
Frame=15 idx=010712 GeodesicLength=1.3015386833476754 rxn_smarts="[C:1]([O:2][C@@:3]1([H:11])[C:4]([H:12])([H:13])[O:5][C:6]1=[O:7])([H:8])([H:9])[H:10]>>[C:1]([O:2][C:3](=[C:6]=[O:7])[H:11])([H:8])([H:9])[H:10].[C:4](=[O:5])([H:12])[H:13]"
C        2.30671625       0.23353610      -0.39897981
O        0.99753983      -0.00284961      -0.85923842
C        0.01534193      -0.17027878       0.09957455
C       -2.13245616       0.66784190       0.50071485
O       -2.20792015      -0.58235711       0.90758636
C       -0.87161289      -1.23635093      -0.24008626
O       -1.28526088      -1.97811671      -1.05402615
H        2.35628502       1.26658234      -0.03184978
H        2.98802702       0.10237437      -1.24052369
H        2.60822110      -0.45937273       0.39409288
H        0.28227332      -0.12755838       1.15505778
H       -2.56821550       0.89139991      -0.48300169
H       -2.48893889       1.39514963       1.25067937
13
Frame=16 idx=010712 GeodesicLength=1.385433570691652 rxn_smarts="[C:1]([O:2][C@@:3]1([H:11])[C:4]([H:12])([H:13])[O:5][C:6]1=[O:7])([H:8])([H:9])[H:10]>>[C:1]([O:2][C:3](=[C:6]=[O:7])[H:11])([H:8])([H:9])[H:10].[C:4](=[O:5])([H:12])[H:13]"
C        2.31322336       0.19785537      -0.41186029
O        0.97617801       0.15184770      -0.85615204
C        0.00938083      -0.08109313       0.10663553
C       -2.17696842       0.66333693       0.48922670
O       -2.18832488      -0.58688375       0.91810896
C       -0.81786247      -1.20658004      -0.20088364
O       -1.18629743      -1.98956184      -0.99913440
H        2.47725264       1.16712541       0.07591928
H        2.96062403       0.10183349      -1.28447356
H        2.55806726      -0.61222154       0.28361625
H        0.30302563      -0.02010137       1.15549003
H       -2.62702570       0.84116687      -0.49763917
H       -2.60127286       1.37327589       1.22114636
