12
Frame=0 idx=004251 GeodesicLength=0.0 rxn_smarts="[C:1]1([H:7])([H:8])[C@@:2]2([H:9])[C@:3]1([H:10])[C@@:4]1([H:11])[O:5][C@@:6]21[H:12]>>[C:1]1([H:7])([H:8])[C@@:2]2([H:9])[C@:3]1([H:10])[C@:4]2([O+:5]=[C-:6][H:12])[H:11]"
C        1.36774400       0.11993453      -0.39396502
C        0.26965489      -0.69041757       0.20977353
C        0.59499106       0.67455184       0.74112140
C       -0.79570267       0.43846435       0.34232964
O       -1.30434838       0.89636430      -0.86796592
C       -1.31673191      -0.41534935      -1.34301680
H        1.22046523       0.51618706      -1.39304517
H        2.37818945      -0.19752608      -0.16411823
H        0.29984239      -1.63385934       0.72732741
H        0.91434347       0.92057208       1.74004852
H       -1.53861002       0.31238335       1.12537654
H       -2.08983756      -0.94130513      -0.72386587
12
Frame=1 idx=004251 GeodesicLength=0.048641290630724365 rxn_smarts="[C:1]1([H:7])([H:8])[C@@:2]2([H:9])[C@:3]1([H:10])[C@@:4]1([H:11])[O:5][C@@:6]21[H:12]>>[C:1]1([H:7])([H:8])[C@@:2]2([H:9])[C@:3]1([H:10])[C@:4]2([O+:5]=[C-:6][H:12])[H:11]"
C        1.36497912       0.11834884      -0.39548296
C        0.26823472      -0.69512733       0.20723202
C        0.59211182       0.66929534       0.74181947
C       -0.80282316       0.44267896       0.34583030
O       -1.30059568       0.90010460      -0.87192133
C       -1.31120096      -0.41292568      -1.33186099
H        1.21873706       0.52187619      -1.39169131
H        2.37573746      -0.19903110      -0.16685613
H        0.30709685      -1.63964223       0.72276774
H        0.91715319       0.91543025       1.73900756
H       -1.54867920       0.33574709       1.12845766
H       -2.08075121      -0.95675493      -0.72730203
12
Frame=2 idx=004251 GeodesicLength=0.09727791793102614 rxn_smarts="[C:1]1([H:7])([H:8])[C@@:2]2([H:9])[C@:3]1([H:10])[C@@:4]1([H:11])[O:5][C@@:6]21[H:12]>>[C:1]1([H:7])([H:8])[C@@:2]2([H:9])[C@:3]1([H:10])[C@:4]2([O+:5]=[C-:6][H:12])[H:11]"
C        1.36218198       0.11679559      -0.39696862
C        0.26686109      -0.69994660       0.20465325
C        0.58913842       0.66390781       0.74258007
C       -0.80999210       0.44688123       0.34937690
O       -1.29675755       0.90378863      -0.87580278
C       -1.30601855      -0.41045887      -1.32053805
H        1.21693269       0.52747031      -1.39028982
H        2.37328418      -0.20040280      -0.16956258
H        0.31448580      -1.64555354       0.71797307
H        0.91983158       0.91017043       1.73800416
H       -1.55862928       0.35973151       1.13134767
H       -2.07131826      -0.97238369      -0.73077329
12
Frame=3 idx=004251 GeodesicLength=0.14590144587648696 rxn_smarts="[C:1]1([H:7])([H:8])[C@@:2]2([H:9])[C@:3]1([H:10])[C@@:4]1([H:11])[O:5][C@@:6]21[H:12]>>[C:1]1([H:7])([H:8])[C@@:2]2([H:9])[C@:3]1([H:10])[C@:4]2([O+:5]=[C-:6][H:12])[H:11]"
C        1.35934922       0.11527471      -0.39842013
C        0.26553417      -0.70487744       0.20203628
C        0.58606871       0.65838591       0.74340373
C       -0.81721284       0.45106796       0.35297883
O       -1.29284043       0.90740594      -0.87960023
C       -1.30118542      -0.40795735      -1.30903981
H        1.21504353       0.53296389      -1.38884218
H        2.37082744      -0.20163488      -0.17223404
H        0.32200731      -1.65158900       0.71294534
H        0.92237760       0.90479788       1.73703666
H       -1.56843198       0.38433635       1.13404055
H       -2.06153732      -0.98817398      -0.73430500
12
Frame=4 idx=004251 GeodesicLength=0.1945019697769127 rxn_smarts="[C:1]1([H:7])([H:8])[C@@:2]2([H:9])[C@:3]1([H:10])[C@@:4]1([H:11])[O:5][C@@:6]21[H:12]>>[C:1]1([H:7])([H:8])[C@@:2]2([H:9])[C@:3]1([H:10])[C@:4]2([O+:5]=[C-:6][H:12])[H:11]"
C        1.35647912       0.11378591      -0.39983688
C        0.26425328      -0.70992289       0.19938154
C        0.58290005       0.65272733       0.74429153
C       -0.82449128       0.45523648       0.35664691
O       -1.28885370       0.91094680      -0.88330494
C       -1.29670486      -0.40542879      -1.29736385
H        1.21306356       0.53835320      -1.38735345
H        2.36836782      -0.20272287      -0.17486776
H        0.32965768      -1.65774581       0.70769145
H        0.92479099       0.89932046       1.73610502
H       -1.57805726       0.40955927       1.13653597
H       -2.05140541      -1.00410909      -0.73792554
12
Frame=5 idx=004251 GeodesicLength=0.24307022774637063 rxn_smarts="[C:1]1([H:7])([H:8])[C@@:2]2([H:9])[C@:3]1([H:10])[C@@:4]1([H:11])[O:5][C@@:6]21[H:12]>>[C:1]1([H:7])([H:8])[C@@:2]2([H:9])[C@:3]1([H:10])[C@:4]2([O+:5]=[C-:6][H:12])[H:11]"
C        1.35357152       0.11232991      -0.40121610
C        0.26302323      -0.71508229       0.19668578
C        0.57963014       0.64693291       0.74524284
C       -0.83182524       0.45939397       0.36038292
O       -1.28480167       0.91440161      -0.88690794
C       -1.29254875      -0.40287500      -1.28549056
H        1.21099204       0.54363781      -1.38581671
H        2.36590349      -0.20366454      -0.17746179
H        0.33743537      -1.66401803       0.70221228
H        0.92706701       0.89374982       1.73520290
H       -1.58747878       0.43535416       1.13878937
H       -2.04096837      -1.02016034      -0.74162299
12
Frame=6 idx=004251 GeodesicLength=0.29162808431006915 rxn_smarts="[C:1]1([H:7])([H:8])[C@@:2]2([H:9])[C@:3]1([H:10])[C@@:4]1([H:11])[O:5][C@@:6]21[H:12]>>[C:1]1([H:7])([H:8])[C@@:2]2([H:9])[C@:3]1([H:10])[C@:4]2([O+:5]=[C-:6][H:12])[H:11]"
C        1.35061185       0.11090384      -0.40255802
C        0.26183702      -0.72036202       0.19395385
C        0.57625177       0.64099265       0.74625964
C       -0.83922908       0.46352807       0.36420875
O       -1.28070208       0.91775323      -0.89039978
C       -1.28874570      -0.40032008      -1.27342025
H        1.20880453       0.54882114      -1.38423983
H        2.36342222      -0.20445822      -0.18001543
H        0.34534351      -1.67040884       0.69650781
H        0.92920828       0.88806905       1.73433391
H       -1.59666253       0.46181656       1.14084680
H       -2.03013979      -1.03633538      -0.74547744
12
Frame=7 idx=004251 GeodesicLength=0.34015975394260956 rxn_smarts="[C:1]1([H:7])([H:8])[C@@:2]2([H:9])[C@:3]1([H:10])[C@@:4]1([H:11])[O:5][C@@:6]21[H:12]>>[C:1]1([H:7])([H:8])[C@@:2]2([H:9])[C@:3]1([H:10])[C@:4]2([O+:5]=[C-:6][H:12])[H:11]"
C        1.34760044       0.10950794      -0.40386119
C        0.26069312      -0.72576384       0.19118742
C        0.57276304       0.63490793       0.74734404
C       -0.84670859       0.46764062       0.36813370
O       -1.27656610       0.92098995      -0.89377215
C       -1.28529154      -0.39777155      -1.26114749
H        1.20650134       0.55390112      -1.38262546
H        2.36092607      -0.20510087      -0.18252792
H        0.35337501      -1.67691297       0.69058775
H        0.93121579       0.88229366       1.73349853
H       -1.60557062       0.48891902       1.14269341
H       -2.01893795      -1.05261100      -0.74951063
12
Frame=8 idx=004251 GeodesicLength=0.38862757694107214 rxn_smarts="[C:1]1([H:7])([H:8])[C@@:2]2([H:9])[C@:3]1([H:10])[C@@:4]1([H:11])[O:5][C@@:6]21[H:12]>>[C:1]1([H:7])([H:8])[C@@:2]2([H:9])[C@:3]1([H:10])[C@:4]2([O+:5]=[C-:6][H:12])[H:11]"
C        1.34454421       0.10814439      -0.40512286
C        0.25959957      -0.73127957       0.18837770
C        0.56916894       0.62868290       0.74849323
C       -0.85425122       0.47175109       0.37214802
O       -1.27239187       0.92410825      -0.89702290
C       -1.28213639      -0.39522100      -1.24865948
H        1.20409458       0.55888072      -1.38096266
H        2.35841765      -0.20559397      -0.18499708
H        0.36152118      -1.68351486       0.68445402
H        0.93308850       0.87643940       1.73268774
H       -1.61420444       0.51655482       1.14426294
H       -2.00745071      -1.06895217      -0.75365868
12
Frame=9 idx=004251 GeodesicLength=0.43709557423078055 rxn_smarts="[C:1]1([H:7])([H:8])[C@@:2]2([H:9])[C@:3]1([H:10])[C@@:4]1([H:11])[O:5][C@@:6]21[H:12]>>[C:1]1([H:7])([H:8])[C@@:2]2([H:9])[C@:3]1([H:10])[C@:4]2([O+:5]=[C-:6][H:12])[H:11]"
C        1.34141838       0.10680496      -0.40634347
C        0.25853670      -0.73692623       0.18555052
C        0.56544773       0.62230847       0.74971316
C       -0.86189387       0.47583643       0.37629150
O       -1.26822644       0.92708935      -0.90013137
C       -1.27935487      -0.39268880      -1.23595207
H        1.20153872       0.56375706      -1.37926762
H        2.35588375      -0.20594346      -0.18742734
H        0.36978618      -1.69023148       0.67813119
H        0.93482775       0.87049741       1.73190593
H       -1.62245897       0.54488164       1.14563339
H       -1.99550507      -1.08538536      -0.75810384
12
Frame=10 idx=004251 GeodesicLength=0.48549079897857794 rxn_smarts="[C:1]1([H:7])([H:8])[C@@:2]2([H:9])[C@:3]1([H:10])[C@@:4]1([H:11])[O:5][C@@:6]21[H:12]>>[C:1]1([H:7])([H:8])[C@@:2]2([H:9])[C@:3]1([H:10])[C@:4]2([O+:5]=[C-:6][H:12])[H:11]"
C        1.33823479       0.10549842      -0.40751867
C        0.25752910      -0.74268542       0.18267091
C        0.56162483       0.61578638       0.75099893
C       -0.86959536       0.47991648       0.38054854
O       -1.26403051       0.92990712      -0.90309456
C       -1.27684326      -0.39020545      -1.22300090
H        1.19886049       0.56853490      -1.37751778
H        2.35331549      -0.20613592      -0.18981545
H        0.37815945      -1.69702249       0.67159060
H        0.93644132       0.86448425       1.73114350
H       -1.63041436       0.57374901       1.14671874
H       -1.98328200      -1.10182729      -0.76272387
12
Frame=11 idx=004251 GeodesicLength=0.5338433142527808 rxn_smarts="[C:1]1([H:7])([H:8])[C@@:2]2([H:9])[C@:3]1([H:10])[C@@:4]1([H:11])[O:5][C@@:6]21[H:12]>>[C:1]1([H:7])([H:8])[C@@:2]2([H:9])[C@:3]1([H:10])[C@:4]2([O+:5]=[C-:6][H:12])[H:11]"
C        1.33497261       0.10421750      -0.40864580
C        0.25654685      -0.74857090       0.17977301
C        0.55766792       0.60911732       0.75235299
C       -0.87739371       0.48399133       0.38493444
O       -1.25986383       0.93256315      -0.90591004
C       -1.27467902      -0.38775198      -1.20981691
H        1.19602527       0.57321670      -1.37572268
H        2.35070609      -0.20618445      -0.19215625
H        0.38663614      -1.70391361       0.66486268
H        0.93791448       0.85838950       1.73040213
H       -1.63791350       0.60324887       1.14755978
H       -1.97061932      -1.11832342      -0.76763334
12
Frame=12 idx=004251 GeodesicLength=0.5821882003908458 rxn_smarts="[C:1]1([H:7])([H:8])[C@@:2]2([H:9])[C@:3]1([H:10])[C@@:4]1([H:11])[O:5][C@@:6]21[H:12]>>[C:1]1([H:7])([H:8])[C@@:2]2([H:9])[C@:3]1([H:10])[C@:4]2([O+:5]=[C-:6][H:12])[H:11]"
C        1.33163196       0.10296781      -0.40972788
C        0.25560195      -0.75458653       0.17685203
C        0.55358426       0.60229668       0.75378962
C       -0.88529336       0.48805714       0.38947801
O       -1.25572949       0.93502528      -0.90856737
C       -1.27283595      -0.38537333      -1.19636767
H        1.19302806       0.57781194      -1.37388930
H        2.34805791      -0.20607733      -0.19446567
H        0.39522960      -1.71090424       0.65794253
H        0.93925813       0.85220610       1.72970210
H       -1.64497186       0.63342252       1.14812667
H       -1.95756122      -1.13484605      -0.77287305
12
Frame=13 idx=004251 GeodesicLength=0.6305244601093688 rxn_smarts="[C:1]1([H:7])([H:8])[C@@:2]2([H:9])[C@:3]1([H:10])[C@@:4]1([H:11])[O:5][C@@:6]21[H:12]>>[C:1]1([H:7])([H:8])[C@@:2]2([H:9])[C@:3]1([H:10])[C@:4]2([O+:5]=[C-:6][H:12])[H:11]"
C        1.32819831       0.10174252      -0.41075457
C        0.25468847      -0.76072384       0.17391906
C        0.54936641       0.59531953       0.75530009
C       -0.89329663       0.49211961       0.39417523
O       -1.25165414       0.93727832      -0.91104742
C       -1.27132015      -0.38306615      -1.18262551
H        1.18984597       0.58231236      -1.37199392
H        2.34535717      -0.20581917      -0.19673758
H        0.40394146      -1.71797577       0.65083233
H        0.94047144       0.84592850       1.72901942
H       -1.65153240       0.66426437       1.14839523
H       -1.94406592      -1.15138026      -0.77848236
12
Frame=14 idx=004251 GeodesicLength=0.6788568862472896 rxn_smarts="[C:1]1([H:7])([H:8])[C@@:2]2([H:9])[C@:3]1([H:10])[C@@:4]1([H:11])[O:5][C@@:6]21[H:12]>>[C:1]1([H:7])([H:8])[C@@:2]2([H:9])[C@:3]1([H:10])[C@:4]2([O+:5]=[C-:6][H:12])[H:11]"
C        1.32466358       0.10054462      -0.41173033
C        0.25379668      -0.76699369       0.17097771
C        0.54500864       0.58818899       0.75689973
C       -0.90141054       0.49618700       0.39904915
O       -1.24764819       0.93931128      -0.91335213
C       -1.27013238      -0.38085502      -1.16858660
H        1.18647333       0.58673218      -1.37005205
H        2.34259424      -0.20540712      -0.19898149
H        0.41276554      -1.72514662       0.64352703
H        0.94155009       0.83955887       1.72838131
H       -1.65755011       0.69582286       1.14836652
H       -1.93011089      -1.16794334      -0.78449886
12
Frame=15 idx=004251 GeodesicLength=0.7271558714306933 rxn_smarts="[C:1]1([H:7])([H:8])[C@@:2]2([H:9])[C@:3]1([H:10])[C@@:4]1([H:11])[O:5][C@@:6]21[H:12]>>[C:1]1([H:7])([H:8])[C@@:2]2([H:9])[C@:3]1([H:10])[C@:4]2([O+:5]=[C-:6][H:12])[H:11]"
C        1.32101275       0.09937088      -0.41263950
C        0.25293486      -0.77337988       0.16803193
C        0.54051159       0.58089452       0.75857445
C       -0.90963164       0.50025550       0.40409430
O       -1.24373385       0.94108053      -0.91548013
C       -1.26926196      -0.37874833      -1.15423467
H        1.18288003       0.59105650      -1.36803937
H        2.33975073      -0.20483666      -0.20117066
H        0.42170318      -1.73236982       0.63605351
H        0.94250870       0.83310461       1.72775006
H       -1.66296566       0.72799641       1.14799875
H       -1.91570872      -1.18442426      -0.79093866
12
Frame=16 idx=004251 GeodesicLength=0.7754617953074141 rxn_smarts="[C:1]1([H:7])([H:8])[C@@:2]2([H:9])[C@:3]1([H:10])[C@@:4]1([H:11])[O:5][C@@:6]21[H:12]>>[C:1]1([H:7])([H:8])[C@@:2]2([H:9])[C@:3]1([H:10])[C@:4]2([O+:5]=[C-:6][H:12])[H:11]"
C        1.31724959       0.09821875      -0.41349542
C        0.25208883      -0.77989738       0.16509335
C        0.53586604       0.57345438       0.76033679
C       -0.91797450       0.50435287       0.40933873
O       -1.23992834       0.94259696      -0.91741532
C       -1.26871337      -0.37676314      -1.13954606
H        1.17907912       0.59529386      -1.36597860
H        2.33683329      -0.20412106      -0.20333164
H        0.43073902      -1.73967917       0.62841119
H        0.94333180       0.82658886       1.72714795
H       -1.66775028       0.76081799       1.14730360
H       -1.90082120      -1.20086292      -0.79786458
