10
Frame=0 idx=005917 GeodesicLength=0.0 rxn_smarts="[O:1]=[C:2]1[C:3]([H:7])([H:8])[O:4][C:5]([H:9])([H:10])[O:6]1>>[O:1]=[C:2]([C:3]([O+:4]=[C-:5][H:9])([H:7])[H:8])[O:6][H:10]"
O        1.95650093      -1.15065270      -0.24911824
C        0.84966828      -0.74066193      -0.05079130
C        0.57743021       0.75976367       0.17027571
O       -0.71515691       0.82661793       0.76616077
C       -1.56693714       0.12400290       0.05916165
O       -0.23788662      -1.50742610      -0.06376094
H        0.59787589       1.26745125      -0.80074868
H        1.30071856       1.19979367       0.85041482
H       -1.48117108       0.34967505      -1.02088873
H       -1.28104211      -1.12856375       0.33929494
10
Frame=1 idx=005917 GeodesicLength=0.04587097721946416 rxn_smarts="[O:1]=[C:2]1[C:3]([H:7])([H:8])[O:4][C:5]([H:9])([H:10])[O:6]1>>[O:1]=[C:2]([C:3]([O+:4]=[C-:5][H:9])([H:7])[H:8])[O:6][H:10]"
O        1.95899961      -1.15081833      -0.25683619
C        0.85469154      -0.74079497      -0.04748555
C        0.57871092       0.75800946       0.17074055
O       -0.71728157       0.82450997       0.75961326
C       -1.56966984       0.12260913       0.04900059
O       -0.23660891      -1.50334984      -0.06680133
H        0.60495629       1.26738589      -0.79910176
H        1.29739978       1.19764942       0.85621271
H       -1.49051621       0.35989534      -1.02902577
H       -1.28068160      -1.13509607       0.36368350
10
Frame=2 idx=005917 GeodesicLength=0.09172770225223784 rxn_smarts="[O:1]=[C:2]1[C:3]([H:7])([H:8])[O:4][C:5]([H:9])([H:10])[O:6]1>>[O:1]=[C:2]([C:3]([O+:4]=[C-:5][H:9])([H:7])[H:8])[O:6][H:10]"
O        1.96144218      -1.15101289      -0.26453407
C        0.85973402      -0.74098052      -0.04429284
C        0.57997158       0.75619185       0.17118313
O       -0.71943966       0.82229978       0.75294010
C       -1.57232306       0.12097195       0.03869289
O       -0.23529119      -1.49933985      -0.06928020
H        0.61200491       1.26728137      -0.79742330
H        1.29397982       1.19542907       0.86200268
H       -1.50013997       0.37053734      -1.03702614
H       -1.27993864      -1.14137810       0.38773775
10
Frame=3 idx=005917 GeodesicLength=0.1375860165665754 rxn_smarts="[O:1]=[C:2]1[C:3]([H:7])([H:8])[O:4][C:5]([H:9])([H:10])[O:6]1>>[O:1]=[C:2]([C:3]([O+:4]=[C-:5][H:9])([H:7])[H:8])[O:6][H:10]"
O        1.96383516      -1.15123398      -0.27220724
C        0.86479986      -0.74121410      -0.04120799
C        0.58121688       0.75431664       0.17160370
O       -0.72162594       0.81998695       0.74614336
C       -1.57489262       0.11910762       0.02822078
O       -0.23392952      -1.49540691      -0.07124013
H        0.61903285       1.26714732      -0.79571623
H        1.29046114       1.19313755       0.86779113
H       -1.51004806       0.38158206      -1.04488705
H       -1.27884974      -1.14742315       0.41149967
10
Frame=4 idx=005917 GeodesicLength=0.18344266835424033 rxn_smarts="[O:1]=[C:2]1[C:3]([H:7])([H:8])[O:4][C:5]([H:9])([H:10])[O:6]1>>[O:1]=[C:2]([C:3]([O+:4]=[C-:5][H:9])([H:7])[H:8])[O:6][H:10]"
O        1.96617642      -1.15147450      -0.27987970
C        0.86989196      -0.74149248      -0.03821576
C        0.58244744       0.75238577       0.17200558
O       -0.72383938       0.81757534       0.73921396
C       -1.57737110       0.11702989       0.01756163
O       -0.23251589      -1.49155542      -0.07270652
H        0.62604974       1.26698207      -0.79397393
H        1.28683476       1.19077284       0.87358930
H       -1.52023303       0.39301006      -1.05260673
H       -1.27744091      -1.15323357       0.43501217
10
Frame=5 idx=005917 GeodesicLength=0.2293148791549182 rxn_smarts="[O:1]=[C:2]1[C:3]([H:7])([H:8])[O:4][C:5]([H:9])([H:10])[O:6]1>>[O:1]=[C:2]([C:3]([O+:4]=[C-:5][H:9])([H:7])[H:8])[O:6][H:10]"
O        1.96846962      -1.15172910      -0.28757872
C        0.87501713      -0.74181345      -0.03530467
C        0.58366680       0.75040129       0.17239336
O       -0.72608399       0.81506669       0.73214160
C       -1.57975301       0.11475192       0.00668517
O       -0.23104418      -1.48779382      -0.07369400
H        0.63306944       1.26679644      -0.79218945
H        1.28309772       1.18832947       0.87941166
H       -1.53069863       0.40479958      -1.06018530
H       -1.27574090      -1.15880902       0.45832036
10
Frame=6 idx=005917 GeodesicLength=0.27518615451490874 rxn_smarts="[O:1]=[C:2]1[C:3]([H:7])([H:8])[O:4][C:5]([H:9])([H:10])[O:6]1>>[O:1]=[C:2]([C:3]([O+:4]=[C-:5][H:9])([H:7])[H:8])[O:6][H:10]"
O        1.97072415      -1.15200310      -0.29524717
C        0.88017676      -0.74217376      -0.03247555
C        0.58487649       0.74836525       0.17275997
O       -0.72834636       0.81245108       0.72493775
C       -1.58203205       0.11228563      -0.00440917
O       -0.22951242      -1.48412046      -0.07426568
H        0.64008489       1.26658381      -0.79037255
H        1.27925489       1.18582138       0.88523748
H       -1.54145843       0.41695180      -1.06759213
H       -1.27376793      -1.16416162       0.48142706
10
Frame=7 idx=005917 GeodesicLength=0.3210674809710866 rxn_smarts="[O:1]=[C:2]1[C:3]([H:7])([H:8])[O:4][C:5]([H:9])([H:10])[O:6]1>>[O:1]=[C:2]([C:3]([O+:4]=[C-:5][H:9])([H:7])[H:8])[O:6][H:10]"
O        1.97294289      -1.15229414      -0.30289926
C        0.88537567      -0.74257171      -0.02971318
C        0.58607837       0.74627800       0.17310870
O       -0.73062870       0.80972836       0.71759158
C       -1.58420144       0.10963587      -0.01574388
O       -0.22791643      -1.48053660      -0.07444753
H        0.64710812       1.26634386      -0.78851922
H        1.27530093       1.18324738       0.89107528
H       -1.55252289       0.42946063      -1.07482492
H       -1.27153652      -1.16929166       0.50437242
10
Frame=8 idx=005917 GeodesicLength=0.36695456136515436 rxn_smarts="[O:1]=[C:2]1[C:3]([H:7])([H:8])[O:4][C:5]([H:9])([H:10])[O:6]1>>[O:1]=[C:2]([C:3]([O+:4]=[C-:5][H:9])([H:7])[H:8])[O:6][H:10]"
O        1.97513712      -1.15260872      -0.31049423
C        0.89061586      -0.74300651      -0.02702024
C        0.58727375       0.74414138       0.17343411
O       -0.73292280       0.80689243       0.71010961
C       -1.58625317       0.10681769      -0.02733001
O       -0.22625185      -1.47704352      -0.07428467
H        0.65413430       1.26607733      -0.78663580
H        1.27123775       1.18061426       0.89691258
H       -1.56390754       0.44232031      -1.08185297
H       -1.26906341      -1.17420465       0.52716161
10
Frame=9 idx=005917 GeodesicLength=0.41283997600607086 rxn_smarts="[O:1]=[C:2]1[C:3]([H:7])([H:8])[O:4][C:5]([H:9])([H:10])[O:6]1>>[O:1]=[C:2]([C:3]([O+:4]=[C-:5][H:9])([H:7])[H:8])[O:6][H:10]"
O        1.97731804      -1.15295227      -0.31799283
C        0.89589895      -0.74347591      -0.02439361
C        0.58846411       0.74195608       0.17373161
O       -0.73522139       0.80393546       0.70249705
C       -1.58818082       0.10384194      -0.03917575
O       -0.22451725      -1.47363689      -0.07382210
H        0.66115951       1.26577996      -0.78472796
H        1.26706937       1.17793020       0.90273406
H       -1.57562845       0.45553064      -1.08864896
H       -1.26636206      -1.17890923       0.54979850
10
Frame=10 idx=005917 GeodesicLength=0.458730162818195 rxn_smarts="[O:1]=[C:2]1[C:3]([H:7])([H:8])[O:4][C:5]([H:9])([H:10])[O:6]1>>[O:1]=[C:2]([C:3]([O+:4]=[C-:5][H:9])([H:7])[H:8])[O:6][H:10]"
O        1.97948460      -1.15332192      -0.32541372
C        0.90122677      -0.74397858      -0.02182624
C        0.58965201       0.73972408       0.17400453
O       -0.73752724       0.80085994       0.69473927
C       -1.58997403       0.10071049      -0.05130976
O       -0.22271201      -1.47032113      -0.07307288
H        0.66819920       1.26545715      -0.78279100
H        1.26278897       1.17518992       0.90855589
H       -1.58769807       0.46907949      -1.09520621
H       -1.26344020      -1.18339944       0.57232011
10
Frame=11 idx=005917 GeodesicLength=0.5046197248359778 rxn_smarts="[O:1]=[C:2]1[C:3]([H:7])([H:8])[O:4][C:5]([H:9])([H:10])[O:6]1>>[O:1]=[C:2]([C:3]([O+:4]=[C-:5][H:9])([H:7])[H:8])[O:6][H:10]"
O        1.98164799      -1.15372427      -0.33272193
C        0.90660113      -0.74451467      -0.01931297
C        0.59083864       0.73744531       0.17424876
O       -0.73983457       0.79765935       0.68683906
C       -1.59162499       0.09743437      -0.06374530
O       -0.22083439      -1.46709243      -0.07207638
H        0.67525028       1.26510471      -0.78083016
H        1.25839856       1.17240162       0.91436455
H       -1.60013555       0.48296697      -1.10149282
H       -1.26030712      -1.18768095       0.59472720
10
Frame=12 idx=005917 GeodesicLength=0.5505188755911243 rxn_smarts="[O:1]=[C:2]1[C:3]([H:7])([H:8])[O:4][C:5]([H:9])([H:10])[O:6]1>>[O:1]=[C:2]([C:3]([O+:4]=[C-:5][H:9])([H:7])[H:8])[O:6][H:10]"
O        1.98381078      -1.15416069      -0.33993029
C        0.91202448      -0.74508452      -0.01685044
C        0.59202546       0.73512054       0.17446615
O       -0.74214703       0.79433611       0.67878080
C       -1.59312159       0.09401701      -0.07651374
O       -0.21888132      -1.46395315      -0.07084336
H        0.68232575       1.26472790      -0.77884071
H        1.25388818       1.16955775       0.92017433
H       -1.61295828       0.49718404      -1.10749494
H       -1.25696644      -1.19174500       0.61705220
10
Frame=13 idx=005917 GeodesicLength=0.596409671793119 rxn_smarts="[O:1]=[C:2]1[C:3]([H:7])([H:8])[O:4][C:5]([H:9])([H:10])[O:6]1>>[O:1]=[C:2]([C:3]([O+:4]=[C-:5][H:9])([H:7])[H:8])[O:6][H:10]"
O        1.98597649      -1.15462915      -0.34701257
C        0.91749581      -0.74568435      -0.01443159
C        0.59321589       0.73274865       0.17465447
O       -0.74445722       0.79088354       0.67056019
C       -1.59445257       0.09046692      -0.08963312
O       -0.21685648      -1.46089438      -0.06940627
H        0.68942933       1.26432036      -0.77682205
H        1.24926157       1.16666218       0.92597492
H       -1.62618634       0.51171737      -1.11317628
H       -1.25342647      -1.19559116       0.63929230
10
Frame=14 idx=005917 GeodesicLength=0.6423113825644269 rxn_smarts="[O:1]=[C:2]1[C:3]([H:7])([H:8])[O:4][C:5]([H:9])([H:10])[O:6]1>>[O:1]=[C:2]([C:3]([O+:4]=[C-:5][H:9])([H:7])[H:8])[O:6][H:10]"
O        1.98814780      -1.15513472      -0.35399486
C        0.92301966      -0.74631854      -0.01204999
C        0.59441040       0.73033115       0.17481786
O       -0.74677251       0.78730656       0.66216097
C       -1.59560417       0.08678678      -0.10313964
O       -0.21475444      -1.45792401      -0.06776506
H        0.69657466       1.26389223      -0.77476828
H        1.24450652       1.16370855       0.93178445
H       -1.63983693       0.52655995      -1.11852700
H       -1.24969100      -1.19920795       0.66148155
10
Frame=15 idx=005917 GeodesicLength=0.6882121314956321 rxn_smarts="[O:1]=[C:2]1[C:3]([H:7])([H:8])[O:4][C:5]([H:9])([H:10])[O:6]1>>[O:1]=[C:2]([C:3]([O+:4]=[C-:5][H:9])([H:7])[H:8])[O:6][H:10]"
O        1.99033222      -1.15568042      -0.36084248
C        0.92859504      -0.74698433      -0.00970258
C        0.59561266       0.72786784       0.17495301
O       -0.74908456       0.78360086       0.65357893
C       -1.59656313       0.08298837      -0.11705202
O       -0.21257819      -1.45503255      -0.06595706
H        0.70376599       1.26343749      -0.77268176
H        1.23962479       1.16069908       0.93759536
H       -1.65394060       0.54169620      -1.12350632
H       -1.24576422      -1.20259255       0.68361492
10
Frame=16 idx=005917 GeodesicLength=0.734108049028306 rxn_smarts="[O:1]=[C:2]1[C:3]([H:7])([H:8])[O:4][C:5]([H:9])([H:10])[O:6]1>>[O:1]=[C:2]([C:3]([O+:4]=[C-:5][H:9])([H:7])[H:8])[O:6][H:10]"
O        1.99253655      -1.15627235      -0.36753530
C        0.93422167      -0.74768304      -0.00738194
C        0.59682474       0.72536026       0.17505847
O       -0.75138980       0.77976491       0.64481163
C       -1.59731734       0.07908510      -0.13139037
O       -0.21033066      -1.45221625      -0.06401309
H        0.71100711       1.26295699      -0.77056420
H        1.23461640       1.15763951       0.94340112
H       -1.66851516       0.55710897      -1.12807819
H       -1.24165352      -1.20574412       0.70569187
