15
Frame=0 idx=005890 GeodesicLength=0.0 rxn_smarts="[C:1]([C:2]([C:3]([H:11])([H:12])[H:13])([C:4](=[O:5])[N:6]([H:14])[H:15])[H:10])([H:7])([H:8])[H:9]>>[C:1](/[C:2](=[C:4](/[O:5][C:3]([H:11])([H:12])[H:13])[N:6]([H:14])[H:15])[H:10])([H:7])([H:8])[H:9]"
C       -0.38730154      -1.81203575       0.16055017
C       -0.36662264      -0.37599411      -0.28291992
C       -1.24688993       1.75828661       0.23096929
C        0.79238658       0.41582101      -0.21760292
O        0.67443986       1.67843116      -0.26523874
N        2.03294745      -0.09826916      -0.05912868
H        0.11379381      -1.94100893       1.12299519
H        0.08319892      -2.50315134      -0.55533922
H       -1.41501866      -2.15977290       0.28646723
H       -0.94625806      -0.15161209      -1.17254488
H       -1.14945225       2.73509476      -0.22374316
H       -2.14954152       1.24582959      -0.07076883
H       -1.06360350       1.72790646       1.29446071
H        2.22320301      -1.05194764      -0.30378010
H        2.80471843       0.53242237       0.05562388
15
Frame=1 idx=005890 GeodesicLength=0.05749017244454735 rxn_smarts="[C:1]([C:2]([C:3]([H:11])([H:12])[H:13])([C:4](=[O:5])[N:6]([H:14])[H:15])[H:10])([H:7])([H:8])[H:9]>>[C:1](/[C:2](=[C:4](/[O:5][C:3]([H:11])([H:12])[H:13])[N:6]([H:14])[H:15])[H:10])([H:7])([H:8])[H:9]"
C       -0.39666834      -1.79690508       0.16441959
C       -0.35916190      -0.36470775      -0.29074645
C       -1.24607318       1.73450178       0.23095199
C        0.80419809       0.41842167      -0.19485005
O        0.69016999       1.68279615      -0.19882403
N        2.04762482      -0.10292763      -0.08722939
H        0.08457349      -1.92271860       1.13740756
H        0.08556331      -2.49321476      -0.53778315
H       -1.42849377      -2.13887741       0.27024545
H       -0.92111141      -0.14368854      -1.19216804
H       -1.17203007       2.69201267      -0.26852709
H       -2.15732057       1.21505792      -0.03412982
H       -1.07855446       1.75430102       1.29778981
H        2.22602995      -1.05578204      -0.34274704
H        2.82125408       0.52173060       0.04619067
15
Frame=2 idx=005890 GeodesicLength=0.11463662926606635 rxn_smarts="[C:1]([C:2]([C:3]([H:11])([H:12])[H:13])([C:4](=[O:5])[N:6]([H:14])[H:15])[H:10])([H:7])([H:8])[H:9]>>[C:1](/[C:2](=[C:4](/[O:5][C:3]([H:11])([H:12])[H:13])[N:6]([H:14])[H:15])[H:10])([H:7])([H:8])[H:9]"
C       -0.40564983      -1.78279494       0.16794383
C       -0.35268172      -0.35414337      -0.29769411
C       -1.24400926       1.71170012       0.23162153
C        0.81483393       0.41997098      -0.17367378
O        0.70405869       1.68462904      -0.13347405
N        2.06047687      -0.10527098      -0.11635476
H        0.05588097      -1.90526067       1.15098717
H        0.08849942      -2.48350627      -0.52074739
H       -1.44077520      -2.12026668       0.25371988
H       -0.89861595      -0.13653171      -1.20952040
H       -1.18948212       2.64706133      -0.31206809
H       -2.16298599       1.18707456       0.00154122
H       -1.09328236       1.78202916       1.29943929
H        2.22834844      -1.05740375      -0.38071607
H        2.83538409       0.51271320       0.03899572
15
Frame=3 idx=005890 GeodesicLength=0.17160657825137116 rxn_smarts="[C:1]([C:2]([C:3]([H:11])([H:12])[H:13])([C:4](=[O:5])[N:6]([H:14])[H:15])[H:10])([H:7])([H:8])[H:9]>>[C:1](/[C:2](=[C:4](/[O:5][C:3]([H:11])([H:12])[H:13])[N:6]([H:14])[H:15])[H:10])([H:7])([H:8])[H:9]"
C       -0.41405273      -1.76917838       0.17127067
C       -0.34710199      -0.34419115      -0.30412008
C       -1.24080046       1.68954923       0.23295558
C        0.82431179       0.42052109      -0.15482010
O        0.71611686       1.68367965      -0.07014237
N        2.07149085      -0.10533166      -0.14746164
H        0.02789239      -1.88768782       1.16371895
H        0.09218708      -2.47368057      -0.50387108
H       -1.45158601      -2.10325042       0.23737506
H       -0.87880090      -0.13026845      -1.22478896
H       -1.20242898       2.60035919      -0.35325331
H       -2.16668786       1.16174831       0.03619255
H       -1.10751649       1.81047308       1.29901802
H        2.23011779      -1.05692154      -0.41848893
H        2.84685864       0.50417945       0.03641564
15
Frame=4 idx=005890 GeodesicLength=0.22820520991885507 rxn_smarts="[C:1]([C:2]([C:3]([H:11])([H:12])[H:13])([C:4](=[O:5])[N:6]([H:14])[H:15])[H:10])([H:7])([H:8])[H:9]>>[C:1](/[C:2](=[C:4](/[O:5][C:3]([H:11])([H:12])[H:13])[N:6]([H:14])[H:15])[H:10])([H:7])([H:8])[H:9]"
C       -0.42195710      -1.75649821       0.17450847
C       -0.34242442      -0.33490139      -0.31001674
C       -1.23667761       1.66838907       0.23482830
C        0.83284410       0.42035136      -0.13771841
O        0.72669900       1.68047503      -0.00810146
N        2.08101666      -0.10298587      -0.18003269
H        0.00057002      -1.87059426       1.17597178
H        0.09659071      -2.46422534      -0.48704965
H       -1.46117482      -2.08839236       0.22111633
H       -0.86153752      -0.12486405      -1.23846594
H       -1.21148763       2.55311039      -0.39193365
H       -2.16894417       1.13913283       0.06928912
H       -1.12146500       1.83968418       1.29665723
H        2.23151201      -1.05445279      -0.45570984
H        2.85643576       0.49577141       0.03665717
15
Frame=5 idx=005890 GeodesicLength=0.28466696229049065 rxn_smarts="[C:1]([C:2]([C:3]([H:11])([H:12])[H:13])([C:4](=[O:5])[N:6]([H:14])[H:15])[H:10])([H:7])([H:8])[H:9]>>[C:1](/[C:2](=[C:4](/[O:5][C:3]([H:11])([H:12])[H:13])[N:6]([H:14])[H:15])[H:10])([H:7])([H:8])[H:9]"
C       -0.42969446      -1.74466102       0.17769571
C       -0.33834736      -0.32626573      -0.31501720
C       -1.23174294       1.64798502       0.23714530
C        0.84062324       0.41925026      -0.12075178
O        0.73604273       1.67459958       0.05469129
N        2.08910580      -0.09869482      -0.21186936
H       -0.02738134      -1.85415762       1.18799765
H        0.10187303      -2.45489205      -0.46989411
H       -1.46990660      -2.07538277       0.20412739
H       -0.84545120      -0.12012865      -1.25069662
H       -1.21636563       2.50562652      -0.42768484
H       -2.16986657       1.11912836       0.09976519
H       -1.13616675       1.86894789       1.29232231
H        2.23252495      -1.05011765      -0.49080546
H        2.86475311       0.48876267       0.03297454
15
Frame=6 idx=005890 GeodesicLength=0.3409447765393926 rxn_smarts="[C:1]([C:2]([C:3]([H:11])([H:12])[H:13])([C:4](=[O:5])[N:6]([H:14])[H:15])[H:10])([H:7])([H:8])[H:9]>>[C:1](/[C:2](=[C:4](/[O:5][C:3]([H:11])([H:12])[H:13])[N:6]([H:14])[H:15])[H:10])([H:7])([H:8])[H:9]"
C       -0.43696191      -1.73364982       0.18085742
C       -0.33509670      -0.31824060      -0.31942829
C       -1.22599041       1.62847784       0.23982071
C        0.84757062       0.41747915      -0.10510405
O        0.74419106       1.66631372       0.11613853
N        2.09576940      -0.09226079      -0.24430901
H       -0.05498857      -1.83815455       1.19960199
H        0.10800475      -2.44574917      -0.45258663
H       -1.47743901      -2.06433312       0.18711402
H       -0.83150321      -0.11623935      -1.26146675
H       -1.21828663       2.45815448      -0.46086619
H       -2.16973742       1.10149676       0.12894088
H       -1.15013994       1.89890856       1.28566858
H        2.23319905      -1.04366935      -0.52613006
H        2.87140893       0.48146626       0.03174886
15
Frame=7 idx=005890 GeodesicLength=0.39707614628141985 rxn_smarts="[C:1]([C:2]([C:3]([H:11])([H:12])[H:13])([C:4](=[O:5])[N:6]([H:14])[H:15])[H:10])([H:7])([H:8])[H:9]>>[C:1](/[C:2](=[C:4](/[O:5][C:3]([H:11])([H:12])[H:13])[N:6]([H:14])[H:15])[H:10])([H:7])([H:8])[H:9]"
C       -0.44401967      -1.72355857       0.18400102
C       -0.33248722      -0.31085332      -0.32294086
C       -1.21948636       1.60983695       0.24276495
C        0.85382163       0.41484637      -0.08958562
O        0.75128670       1.65537828       0.17755460
N        2.10108667      -0.08419183      -0.27549271
H       -0.08315547      -1.82294981       1.21095830
H        0.11500569      -2.43677419      -0.43493869
H       -1.48401543      -2.05520779       0.16948392
H       -0.81878030      -0.11305109      -1.27085604
H       -1.21718087       2.41097902      -0.49147594
H       -2.16867725       1.08620078       0.15635939
H       -1.16380943       1.92937997       1.27657916
H        2.23349845      -1.03521502      -0.56101112
H        2.87691287       0.47518026       0.02859965
15
Frame=8 idx=005890 GeodesicLength=0.4529675326719399 rxn_smarts="[C:1]([C:2]([C:3]([H:11])([H:12])[H:13])([C:4](=[O:5])[N:6]([H:14])[H:15])[H:10])([H:7])([H:8])[H:9]>>[C:1](/[C:2](=[C:4](/[O:5][C:3]([H:11])([H:12])[H:13])[N:6]([H:14])[H:15])[H:10])([H:7])([H:8])[H:9]"
C       -0.45097108      -1.71455482       0.18713988
C       -0.33053158      -0.30416405      -0.32548819
C       -1.21223299       1.59216640       0.24588943
C        0.85941486       0.41130119      -0.07388122
O        0.75742509       1.64178298       0.23917722
N        2.10513152      -0.07469772      -0.30509124
H       -0.11205005      -1.80882347       1.22208151
H        0.12278723      -2.42812946      -0.41688355
H       -1.48975302      -2.04812931       0.15114726
H       -0.80716945      -0.11059139      -1.27893795
H       -1.21332124       2.36449368      -0.51968319
H       -2.16683787       1.07327070       0.18205506
H       -1.17684934       1.96037335       1.26497974
H        2.23347847      -1.02484265      -0.59552393
H        2.88147946       0.47054456       0.02301919
15
Frame=9 idx=005890 GeodesicLength=0.5086468456292642 rxn_smarts="[C:1]([C:2]([C:3]([H:11])([H:12])[H:13])([C:4](=[O:5])[N:6]([H:14])[H:15])[H:10])([H:7])([H:8])[H:9]>>[C:1](/[C:2](=[C:4](/[O:5][C:3]([H:11])([H:12])[H:13])[N:6]([H:14])[H:15])[H:10])([H:7])([H:8])[H:9]"
C       -0.45784339      -1.70664365       0.19027023
C       -0.32922681      -0.29817913      -0.32708722
C       -1.20421267       1.57546982       0.24912623
C        0.86436036       0.40681635      -0.05795272
O        0.76263404       1.62546179       0.30096749
N        2.10791714      -0.06385601      -0.33318917
H       -0.14172360      -1.79581732       1.23291039
H        0.13128220      -2.41980650      -0.39839090
H       -1.49463489      -2.04305254       0.13212770
H       -0.79661889      -0.10886423      -1.28575844
H       -1.20703450       2.31882396      -0.54567884
H       -2.16427822       1.06264789       0.20630638
H       -1.18879744       1.99182787       1.25074960
H        2.23310695      -1.01259624      -0.62977802
H        2.88506973       0.46776795       0.01537730
15
Frame=10 idx=005890 GeodesicLength=0.5641302583983698 rxn_smarts="[C:1]([C:2]([C:3]([H:11])([H:12])[H:13])([C:4](=[O:5])[N:6]([H:14])[H:15])[H:10])([H:7])([H:8])[H:9]>>[C:1](/[C:2](=[C:4](/[O:5][C:3]([H:11])([H:12])[H:13])[N:6]([H:14])[H:15])[H:10])([H:7])([H:8])[H:9]"
C       -0.46465748      -1.69981300       0.19336632
C       -0.32856940      -0.29289606      -0.32782161
C       -1.19541833       1.55974527       0.25241800
C        0.86867707       0.40139702      -0.04185814
O        0.76693204       1.60642413       0.36271055
N        2.10947845      -0.05169766      -0.35987570
H       -0.17217741      -1.78393676       1.24336176
H        0.14038880      -2.41180683      -0.37946346
H       -1.49864557      -2.03990587       0.11247071
H       -0.78712806      -0.10785584      -1.29140329
H       -1.19874310       2.27404284      -0.56966295
H       -2.16103299       1.05424022       0.22949225
H       -1.19911271       2.02364691       1.23382220
H        2.23237585      -0.99852491      -0.66377843
H        2.88763283       0.46694056       0.00622178
15
Frame=11 idx=005890 GeodesicLength=0.6194465007003094 rxn_smarts="[C:1]([C:2]([C:3]([H:11])([H:12])[H:13])([C:4](=[O:5])[N:6]([H:14])[H:15])[H:10])([H:7])([H:8])[H:9]>>[C:1](/[C:2](=[C:4](/[O:5][C:3]([H:11])([H:12])[H:13])[N:6]([H:14])[H:15])[H:10])([H:7])([H:8])[H:9]"
C       -0.47143844      -1.69407650       0.19640375
C       -0.32856518      -0.28831155      -0.32772815
C       -1.18583333       1.54500928       0.25569300
C        0.87237257       0.39503914      -0.02557774
O        0.77032618       1.58468943       0.42426727
N        2.10981752      -0.03821663      -0.38523626
H       -0.20342123      -1.77324622       1.25335507
H        0.15001745      -2.40414112      -0.36011196
H       -1.50177743      -2.03865150       0.09219325
H       -0.77868420      -0.10756107      -1.29593507
H       -1.18881030       2.23018773      -0.59186766
H       -2.15709962       1.04801772       0.25192200
H       -1.20728166       2.05573081       1.21416527
H        2.23127140      -0.98265260      -0.69744463
H        2.88910624       0.46818307      -0.00409813
15
Frame=12 idx=005890 GeodesicLength=0.6746294524298492 rxn_smarts="[C:1]([C:2]([C:3]([H:11])([H:12])[H:13])([C:4](=[O:5])[N:6]([H:14])[H:15])[H:10])([H:7])([H:8])[H:9]>>[C:1](/[C:2](=[C:4](/[O:5][C:3]([H:11])([H:12])[H:13])[N:6]([H:14])[H:15])[H:10])([H:7])([H:8])[H:9]"
C       -0.47819783      -1.68942241       0.19935735
C       -0.32921430      -0.28441363      -0.32687055
C       -1.17544925       1.53126718       0.25887139
C        0.87545624       0.38776099      -0.00914884
O        0.77281446       1.56034643       0.48537562
N        2.10893978      -0.02339270      -0.40932039
H       -0.23541478      -1.76377632       1.26280248
H        0.16006051      -2.39680705      -0.34036773
H       -1.50401563      -2.03921487       0.07135506
H       -0.77128444      -0.10797615      -1.29943367
H       -1.17764964       2.18724312      -0.61253404
H       -2.15245030       1.04393938       0.27393764
H       -1.21278414       2.08793193       1.19179626
H        2.22977223      -0.96496395      -0.73074124
H        2.88941709       0.47147807      -0.01507933
15
Frame=13 idx=005890 GeodesicLength=0.7297304818248243 rxn_smarts="[C:1]([C:2]([C:3]([H:11])([H:12])[H:13])([C:4](=[O:5])[N:6]([H:14])[H:15])[H:10])([H:7])([H:8])[H:9]>>[C:1](/[C:2](=[C:4](/[O:5][C:3]([H:11])([H:12])[H:13])[N:6]([H:14])[H:15])[H:10])([H:7])([H:8])[H:9]"
C       -0.48496455      -1.68584510       0.20220593
C       -0.33051381      -0.28119304      -0.32529510
C       -1.16424618       1.51851789       0.26186972
C        0.87793920       0.37956502       0.00743930
O        0.77439582       1.53349754       0.54582426
N        2.10683193      -0.00721150      -0.43214350
H       -0.26817421      -1.75556823       1.27163338
H        0.17041914      -2.38981128      -0.32022921
H       -1.50536063      -2.04152780       0.04996384
H       -0.76489910      -0.10909920      -1.30197557
H       -1.16561028       2.14517876      -0.63188466
H       -2.14703058       1.04200211       0.29579970
H       -1.21515421       2.12004679       1.16679742
H        2.22786901      -0.94546296      -0.76352786
H        2.88849843       0.47691099      -0.02647765
15
Frame=14 idx=005890 GeodesicLength=0.7848065998144568 rxn_smarts="[C:1]([C:2]([C:3]([H:11])([H:12])[H:13])([C:4](=[O:5])[N:6]([H:14])[H:15])[H:10])([H:7])([H:8])[H:9]>>[C:1](/[C:2](=[C:4](/[O:5][C:3]([H:11])([H:12])[H:13])[N:6]([H:14])[H:15])[H:10])([H:7])([H:8])[H:9]"
C       -0.49175697      -1.68330749       0.20493187
C       -0.33244719      -0.27863320      -0.32308182
C       -1.15221706       1.50673587       0.26459115
C        0.87984189       0.37047657       0.02413265
O        0.77506290       1.50430669       0.60532481
N        2.10350365       0.01033424      -0.45368579
H       -0.30162453      -1.74862874       1.27976632
H        0.18093408      -2.38315437      -0.29975089
H       -1.50582817      -2.04545564       0.02813109
H       -0.75949408      -0.11092954      -1.30365884
H       -1.15306635       2.10393666      -0.65013146
H       -2.14077690       1.04218055       0.31775361
H       -1.21399025       2.15181598       1.13930947
H        2.22556164      -0.92414822      -0.79569804
H        2.88629734       0.48447063      -0.03793414
15
Frame=15 idx=005890 GeodesicLength=0.8399334384131248 rxn_smarts="[C:1]([C:2]([C:3]([H:11])([H:12])[H:13])([C:4](=[O:5])[N:6]([H:14])[H:15])[H:10])([H:7])([H:8])[H:9]>>[C:1](/[C:2](=[C:4](/[O:5][C:3]([H:11])([H:12])[H:13])[N:6]([H:14])[H:15])[H:10])([H:7])([H:8])[H:9]"
C       -0.49860049      -1.68178037       0.20752752
C       -0.33499736      -0.27672157      -0.32028999
C       -1.13934451       1.49588749       0.26694048
C        0.88118631       0.36050766       0.04090841
O        0.77481308       1.47294546       0.66364660
N        2.09894692       0.02924321      -0.47392891
H       -0.33572604      -1.74296867       1.28714363
H        0.19146808      -2.37684715      -0.27895480
H       -1.50544101      -2.05088183       0.00593067
H       -0.75502232      -0.11347410      -1.30456975
H       -1.14031389       2.06345936      -0.66745985
H       -2.13361065       1.04448926       0.33995052
H       -1.20897140       2.18296234       1.10952531
H        2.22285358      -0.90103224      -0.82711042
H        2.88275972       0.49421116      -0.04925942
15
Frame=16 idx=005890 GeodesicLength=0.8951935671896832 rxn_smarts="[C:1]([C:2]([C:3]([H:11])([H:12])[H:13])([C:4](=[O:5])[N:6]([H:14])[H:15])[H:10])([H:7])([H:8])[H:9]>>[C:1](/[C:2](=[C:4](/[O:5][C:3]([H:11])([H:12])[H:13])[N:6]([H:14])[H:15])[H:10])([H:7])([H:8])[H:9]"
C       -0.50551711      -1.68122007       0.20999307
C       -0.33813746      -0.27544346      -0.31699210
C       -1.12561606       1.48591721       0.26882874
C        0.88200334       0.34967838       0.05771662
O        0.77364995       1.43961907       0.72054806
N        2.09316094       0.04949783      -0.49285152
H       -0.37041777      -1.73856869       1.29371993
H        0.20187602      -2.37090338      -0.25786343
H       -1.50423158      -2.05766942      -0.01653807
H       -0.75143314      -0.11674114      -1.30480322
H       -1.12762101       2.02368903      -0.68402006
H       -2.12544869       1.04894026       0.36247957
H       -1.19986427       2.21318337       1.07769313
H        2.21975676      -0.87614204      -0.85763341
H        2.87784007       0.50616304      -0.06027731
