13
Frame=0 idx=008557 GeodesicLength=0.0 rxn_smarts="[N:1](=[C:2](/[O:3][C:4]([C:5]([C:6]#[N:7])([H:12])[H:13])([H:10])[H:11])[H:9])\[H:8]>>[N:1](=[C:2]([H:9])[H:11])[H:8].[O:3]=[C:4]([C:5]([C:6]#[N:7])([H:12])[H:13])[H:10]"
N       -2.66827978      -0.23552648      -0.65826494
C       -1.72083685      -0.59184651       0.01010282
O       -0.82729978       0.59441653       1.23364465
C        0.00566013       0.49727655       0.23951797
C        1.44524135       0.10423778       0.58700979
C        2.27307661      -0.10856661      -0.59342115
N        2.88310659      -0.27474494      -1.55032959
H       -2.71443552       0.49974780      -1.34051868
H       -1.52679046      -1.36783563       0.73257492
H       -0.04322320       1.25175877      -0.56703762
H       -0.40260486      -0.49405026      -0.49225041
H        1.85789507       0.91708969       1.19014222
H        1.43849074      -0.79195666       1.20883003
13
Frame=1 idx=008557 GeodesicLength=0.1201567382512478 rxn_smarts="[N:1](=[C:2](/[O:3][C:4]([C:5]([C:6]#[N:7])([H:12])[H:13])([H:10])[H:11])[H:9])\[H:8]>>[N:1](=[C:2]([H:9])[H:11])[H:8].[O:3]=[C:4]([C:5]([C:6]#[N:7])([H:12])[H:13])[H:10]"
N       -2.70055903      -0.16012353      -0.62029203
C       -1.75555305      -0.59030159       0.01126189
O       -0.80611024       0.54421235       1.24749331
C        0.01639143       0.46510934       0.24183096
C        1.46725296       0.11559697       0.58689972
C        2.29592135      -0.08992485      -0.59415905
N        2.91092326      -0.25292915      -1.54838187
H       -2.70290912       0.48691783      -1.38831311
H       -1.60606023      -1.37614062       0.73454874
H       -0.04911924       1.21860069      -0.56413056
H       -0.42139544      -0.53903126      -0.50377844
H        1.86068747       0.94901530       1.17512239
H        1.49052988      -0.77100148       1.22189804
13
Frame=2 idx=008557 GeodesicLength=0.2396429959795629 rxn_smarts="[N:1](=[C:2](/[O:3][C:4]([C:5]([C:6]#[N:7])([H:12])[H:13])([H:10])[H:11])[H:9])\[H:8]>>[N:1](=[C:2]([H:9])[H:11])[H:8].[O:3]=[C:4]([C:5]([C:6]#[N:7])([H:12])[H:13])[H:10]"
N       -2.72290952      -0.08082568      -0.58792253
C       -1.79091021      -0.58633231       0.01134925
O       -0.78421470       0.49104078       1.25919777
C        0.02881775       0.43030576       0.24331327
C        1.48984284       0.12663466       0.58710079
C        2.32008069      -0.07168748      -0.59402612
N        2.94055133      -0.22758773      -1.54585358
H       -2.70195062       0.46974224      -1.42790434
H       -1.69028063      -1.37891311       0.73657482
H       -0.05271315       1.18275806      -0.56186976
H       -0.44129004      -0.58707873      -0.51528918
H        1.86167228       0.98081187       1.15986813
H        1.54330399      -0.74886833       1.23546148
13
Frame=3 idx=008557 GeodesicLength=0.358630981533978 rxn_smarts="[N:1](=[C:2](/[O:3][C:4]([C:5]([C:6]#[N:7])([H:12])[H:13])([H:10])[H:11])[H:9])\[H:8]>>[N:1](=[C:2]([H:9])[H:11])[H:8].[O:3]=[C:4]([C:5]([C:6]#[N:7])([H:12])[H:13])[H:10]"
N       -2.73669161       0.00170714      -0.55763034
C       -1.82523816      -0.57991872       0.00893919
O       -0.76139752       0.43482660       1.26777169
C        0.04349228       0.39396909       0.24312026
C        1.51297401       0.13763539       0.58788900
C        2.34649889      -0.05334062      -0.59205492
N        2.97493406      -0.20352994      -1.53951539
H       -2.72081305       0.44744487      -1.45816082
H       -1.77480600      -1.37677969       0.73562436
H       -0.05345888       1.14600965      -0.56050695
H       -0.46205334      -0.63479026      -0.53048068
H        1.86074691       1.01216173       1.14531014
H        1.59581241      -0.72539525       1.24969445
13
Frame=4 idx=008557 GeodesicLength=0.4768520349775698 rxn_smarts="[N:1](=[C:2](/[O:3][C:4]([C:5]([C:6]#[N:7])([H:12])[H:13])([H:10])[H:11])[H:9])\[H:8]>>[N:1](=[C:2]([H:9])[H:11])[H:8].[O:3]=[C:4]([C:5]([C:6]#[N:7])([H:12])[H:13])[H:10]"
N       -2.74094980       0.08216422      -0.53383499
C       -1.85976261      -0.57286298       0.00640699
O       -0.73875451       0.37649537       1.27237377
C        0.05948327       0.35396756       0.24061608
C        1.53585507       0.14821749       0.58876519
C        2.37447725      -0.03561027      -0.58866527
N        3.01159867      -0.17362969      -1.53214047
H       -2.74657011       0.42967676      -1.47730388
H       -1.86271761      -1.36833452       0.73726742
H       -0.05205646       1.10439482      -0.56246870
H       -0.48471902      -0.68732995      -0.54581509
H        1.85638167       1.04328612       1.13011733
H        1.64773419      -0.70043493       1.26468163
13
Frame=5 idx=008557 GeodesicLength=0.5943238357959263 rxn_smarts="[N:1](=[C:2](/[O:3][C:4]([C:5]([C:6]#[N:7])([H:12])[H:13])([H:10])[H:11])[H:9])\[H:8]>>[N:1](=[C:2]([H:9])[H:11])[H:8].[O:3]=[C:4]([C:5]([C:6]#[N:7])([H:12])[H:13])[H:10]"
N       -2.73780389       0.16047333      -0.51162705
C       -1.89248991      -0.56571065       0.00119653
O       -0.71601986       0.31471548       1.27229901
C        0.07732049       0.31171324       0.23517848
C        1.55843965       0.15986047       0.59009802
C        2.40482209      -0.01748043      -0.58266273
N        3.05311441      -0.14792349      -1.51952054
H       -2.78955255       0.41657661      -1.48309394
H       -1.94764537      -1.35667947       0.73581559
H       -0.04837989       1.06056545      -0.56714396
H       -0.50852443      -0.74004759      -0.56632496
H        1.84823504       1.07571326       1.11413830
H        1.69848423      -0.67177621       1.28164725
13
Frame=6 idx=008557 GeodesicLength=0.710864547509774 rxn_smarts="[N:1](=[C:2](/[O:3][C:4]([C:5]([C:6]#[N:7])([H:12])[H:13])([H:10])[H:11])[H:9])\[H:8]>>[N:1](=[C:2]([H:9])[H:11])[H:8].[O:3]=[C:4]([C:5]([C:6]#[N:7])([H:12])[H:13])[H:10]"
N       -2.72690279       0.23461829      -0.49404796
C       -1.92486846      -0.55842824      -0.00357369
O       -0.69348141       0.25111380       1.26799597
C        0.09649855       0.26556891       0.22700906
C        1.58009739       0.17116789       0.59136143
C        2.43665508       0.00088309      -0.57497791
N        3.09677851      -0.11689616      -1.50518723
H       -2.83680841       0.41026437      -1.47907495
H       -2.03327432      -1.33860424       0.73759800
H       -0.04274956       1.01145510      -0.57575946
H       -0.53500332      -0.79695944      -0.58787479
H        1.83566804       1.10731537       1.09740290
H        1.74739070      -0.64149876       1.29912864
13
Frame=7 idx=008557 GeodesicLength=0.826624863124093 rxn_smarts="[N:1](=[C:2](/[O:3][C:4]([C:5]([C:6]#[N:7])([H:12])[H:13])([H:10])[H:11])[H:9])\[H:8]>>[N:1](=[C:2]([H:9])[H:11])[H:8].[O:3]=[C:4]([C:5]([C:6]#[N:7])([H:12])[H:13])[H:10]"
N       -2.70872033       0.30475178      -0.48011750
C       -1.95642528      -0.55098527      -0.00823606
O       -0.67097669       0.18515955       1.25952323
C        0.11724398       0.21540117       0.21607954
C        1.60061618       0.18239112       0.59256465
C        2.46996767       0.01995683      -0.56536424
N        3.14255823      -0.08202809      -1.48845365
H       -2.88916400       0.41060381      -1.46537383
H       -2.11802761      -1.31424329       0.74180812
H       -0.03511483       0.95712594      -0.58815111
H       -0.56434303      -0.85728416      -0.61128651
H        1.81823064       1.13818632       1.07959080
H        1.79415506      -0.60903573       1.31741656
13
Frame=8 idx=008557 GeodesicLength=0.9417883028826104 rxn_smarts="[N:1](=[C:2](/[O:3][C:4]([C:5]([C:6]#[N:7])([H:12])[H:13])([H:10])[H:11])[H:9])\[H:8]>>[N:1](=[C:2]([H:9])[H:11])[H:8].[O:3]=[C:4]([C:5]([C:6]#[N:7])([H:12])[H:13])[H:10]"
N       -2.68379071       0.37026880      -0.46923097
C       -1.98690158      -0.54387823      -0.01280225
O       -0.64856437       0.11636923       1.24698719
C        0.13954647       0.16090702       0.20230953
C        1.61945384       0.19391687       0.59356553
C        2.50436692       0.04005511      -0.55379719
N        3.19016662      -0.04439348      -1.46893694
H       -2.94465609       0.41964223      -1.44169647
H       -2.20033443      -1.28428400       0.74831667
H       -0.02574647       0.89717453      -0.60459286
H       -0.59680754      -0.92101703      -0.63694000
H        1.79507432       1.16871280       1.05991609
H        1.83819302      -0.57347384       1.33690168
13
Frame=9 idx=008557 GeodesicLength=1.0554677499371834 rxn_smarts="[N:1](=[C:2](/[O:3][C:4]([C:5]([C:6]#[N:7])([H:12])[H:13])([H:10])[H:11])[H:9])\[H:8]>>[N:1](=[C:2]([H:9])[H:11])[H:8].[O:3]=[C:4]([C:5]([C:6]#[N:7])([H:12])[H:13])[H:10]"
N       -2.65316964       0.42997601      -0.45878001
C       -2.01581407      -0.53820702      -0.01812771
O       -0.62623312       0.04302232       1.22973534
C        0.16337045       0.10181264       0.18538591
C        1.63576923       0.20723816       0.59394077
C        2.53930045       0.06221311      -0.53987526
N        3.23978568      -0.00916527      -1.44489197
H       -3.00089051       0.44182234      -1.40551574
H       -2.27780554      -1.25129337       0.75477364
H       -0.01531349       0.83104491      -0.62506290
H       -0.63229695      -0.98737296      -0.66605382
H        1.76446242       1.20046566       1.03623841
H        1.87883509      -0.53155653       1.35823331
13
Frame=10 idx=008557 GeodesicLength=1.168233771847753 rxn_smarts="[N:1](=[C:2](/[O:3][C:4]([C:5]([C:6]#[N:7])([H:12])[H:13])([H:10])[H:11])[H:9])\[H:8]>>[N:1](=[C:2]([H:9])[H:11])[H:8].[O:3]=[C:4]([C:5]([C:6]#[N:7])([H:12])[H:13])[H:10]"
N       -2.61589700       0.48443918      -0.45205676
C       -2.04349387      -0.53222696      -0.02172775
O       -0.60400836      -0.03241025       1.20917638
C        0.18878766       0.03805405       0.16628302
C        1.64912071       0.22012834       0.59365617
C        2.57370311       0.08666247      -0.52450043
N        3.28855892       0.03230648      -1.41939001
H       -3.05173993       0.47197262      -1.36242668
H       -2.35172687      -1.21101365       0.76595837
H       -0.00325026       0.75808439      -0.64951484
H       -0.67197240      -1.05760479      -0.69543672
H        1.72720623       1.22949918       1.01076231
H        1.91471207      -0.48789105       1.37921695
13
Frame=11 idx=008557 GeodesicLength=1.2802053455656566 rxn_smarts="[N:1](=[C:2](/[O:3][C:4]([C:5]([C:6]#[N:7])([H:12])[H:13])([H:10])[H:11])[H:9])\[H:8]>>[N:1](=[C:2]([H:9])[H:11])[H:8].[O:3]=[C:4]([C:5]([C:6]#[N:7])([H:12])[H:13])[H:10]"
N       -2.57165036       0.53369657      -0.44848641
C       -2.06933335      -0.52595839      -0.02413546
O       -0.58177905      -0.11123507       1.18527599
C        0.21609639      -0.03087813       0.14520766
C        1.65891665       0.23299703       0.59255236
C        2.60693915       0.11381400      -0.50745565
N        3.33598674       0.07867993      -1.39179032
H       -3.09655555       0.51125747      -1.31130696
H       -2.42067344      -1.16372390       0.78070632
H        0.01050692       0.67752035      -0.67768866
H       -0.71590510      -1.13129792      -0.72543336
H        1.68215728       1.25609929       0.98217649
H        1.94529372      -0.44097123       1.40037799
13
Frame=12 idx=008557 GeodesicLength=1.3916265830768435 rxn_smarts="[N:1](=[C:2](/[O:3][C:4]([C:5]([C:6]#[N:7])([H:12])[H:13])([H:10])[H:11])[H:9])\[H:8]>>[N:1](=[C:2]([H:9])[H:11])[H:8].[O:3]=[C:4]([C:5]([C:6]#[N:7])([H:12])[H:13])[H:10]"
N       -2.52030881       0.57743148      -0.44816231
C       -2.09281866      -0.51924481      -0.02510045
O       -0.55966017      -0.19360409       1.15849736
C        0.24532983      -0.10475641       0.12271132
C        1.66436404       0.24581306       0.59042735
C        2.63773241       0.14417944      -0.48907379
N        3.38084353       0.12998359      -1.36223669
H       -3.13228794       0.55985953      -1.25282844
H       -2.48302376      -1.10948446       0.79904165
H        0.02583782       0.58921188      -0.70919161
H       -0.76424459      -1.20810338      -0.75552688
H        1.62880286       1.27957747       0.95013008
H        1.96943344      -0.39086330       1.42131241
13
Frame=13 idx=008557 GeodesicLength=1.5025640044712691 rxn_smarts="[N:1](=[C:2](/[O:3][C:4]([C:5]([C:6]#[N:7])([H:12])[H:13])([H:10])[H:11])[H:9])\[H:8]>>[N:1](=[C:2]([H:9])[H:11])[H:8].[O:3]=[C:4]([C:5]([C:6]#[N:7])([H:12])[H:13])[H:10]"
N       -2.46209434       0.61543446      -0.44822721
C       -2.11360499      -0.51243323      -0.02416140
O       -0.53762648      -0.28118908       1.12919441
C        0.27637793      -0.18385568       0.09932599
C        1.66416174       0.25915131       0.58677068
C        2.66429494       0.17890424      -0.46980778
N        3.42132958       0.18498625      -1.33100861
H       -3.15135604       0.62009224      -1.18903155
H       -2.53721871      -1.04962287       0.82060092
H        0.04203350       0.49239084      -0.74334079
H       -0.81746634      -1.28772130      -0.78531287
H        1.56525482       1.29983648       0.91326448
H        1.98591440      -0.33597366       1.44173374
13
Frame=14 idx=008557 GeodesicLength=1.6138171425163654 rxn_smarts="[N:1](=[C:2](/[O:3][C:4]([C:5]([C:6]#[N:7])([H:12])[H:13])([H:10])[H:11])[H:9])\[H:8]>>[N:1](=[C:2]([H:9])[H:11])[H:8].[O:3]=[C:4]([C:5]([C:6]#[N:7])([H:12])[H:13])[H:10]"
N       -2.39636679       0.64763811      -0.45156920
C       -2.13074966      -0.50419782      -0.02106528
O       -0.51590577      -0.37221566       1.09793085
C        0.30949017      -0.26680752       0.07593626
C        1.65812219       0.27179373       0.58182386
C        2.68547776       0.21746060      -0.44999790
N        3.45606003       0.24593752      -1.29864130
H       -3.15542668       0.68742157      -1.12085937
H       -2.58158509      -0.98230145       0.84594240
H        0.05971536       0.38855723      -0.77904479
H       -0.87537952      -1.36878348      -0.81411184
H        1.49301827       1.31463981       0.87289065
H        1.99352973      -0.27914264       1.46076566
13
Frame=15 idx=008557 GeodesicLength=1.726568339728313 rxn_smarts="[N:1](=[C:2](/[O:3][C:4]([C:5]([C:6]#[N:7])([H:12])[H:13])([H:10])[H:11])[H:9])\[H:8]>>[N:1](=[C:2]([H:9])[H:11])[H:8].[O:3]=[C:4]([C:5]([C:6]#[N:7])([H:12])[H:13])[H:10]"
N       -2.32282704       0.67430795      -0.45610535
C       -2.14366385      -0.49430603      -0.01534615
O       -0.49443575      -0.46803287       1.06497708
C        0.34478417      -0.35380055       0.05312354
C        1.64519310       0.28380313       0.57534495
C        2.69959380       0.26046893      -0.43000749
N        3.48313334       0.31288397      -1.26554874
H       -3.13913019       0.76233083      -1.05061155
H       -2.61441590      -0.90808246       0.87496927
H        0.07859799       0.27724245      -0.81545619
H       -0.93863850      -1.45049550      -0.84183046
H        1.41069550       1.32336213       0.82819399
H        1.99111333      -0.21968198       1.47829710
13
Frame=16 idx=008557 GeodesicLength=1.842304546254919 rxn_smarts="[N:1](=[C:2](/[O:3][C:4]([C:5]([C:6]#[N:7])([H:12])[H:13])([H:10])[H:11])[H:9])\[H:8]>>[N:1](=[C:2]([H:9])[H:11])[H:8].[O:3]=[C:4]([C:5]([C:6]#[N:7])([H:12])[H:13])[H:10]"
N       -2.24150911       0.69526710      -0.46207400
C       -2.15148271      -0.48213712      -0.00685077
O       -0.47341484      -0.56789820       1.03040777
C        0.38237126      -0.44353688       0.03148154
C        1.62490937       0.29474375       0.56735489
C        2.70529495       0.30767570      -0.41016484
N        3.50137317       0.38566313      -1.23174472
H       -3.10180633       0.84239662      -0.97944518
H       -2.63354201      -0.82708704       0.90752345
H        0.09869561       0.15997322      -0.85139360
H       -1.00724943      -1.53113762      -0.86846805
H        1.31887593       1.32480159       0.77950006
H        1.97748413      -0.15872425       1.49387345
