14
Frame=0 idx=005381 GeodesicLength=0.0 rxn_smarts="[C:1]([N:2]([C:3]([H:10])([H:11])[H:12])[C:4](=[O:5])[N:6]([H:13])[H:14])([H:7])([H:8])[H:9]>>[C-:1]([N+:2]([C:3]([H:10])([H:11])[H:12])([C:4](=[O:5])[N:6]([H:13])[H:14])[H:9])([H:7])[H:8]"
C       -1.03898465      -0.60476135       1.06405232
N       -0.35824624      -0.10468246      -0.26234492
C       -0.97507825       1.11461806      -0.77996233
C        1.04887401      -0.22813826      -0.57757261
O        1.46707692       0.09881713      -1.66026644
N        1.78610451      -0.75793764       0.41444879
H       -0.40795434      -1.38151924       1.48690352
H       -1.19238126       0.24202837       1.73220178
H       -1.10101319      -0.93008113      -0.33972010
H       -0.66931766       1.27575481      -1.81008509
H       -2.05500133       0.99220534      -0.70930161
H       -0.67750030       1.96658895      -0.16446009
H        2.77687275      -0.82134041       0.27157776
H        1.39654901      -0.86155222       1.33452903
14
Frame=1 idx=005381 GeodesicLength=0.08088168910029749 rxn_smarts="[C:1]([N:2]([C:3]([H:10])([H:11])[H:12])[C:4](=[O:5])[N:6]([H:13])[H:14])([H:7])([H:8])[H:9]>>[C-:1]([N+:2]([C:3]([H:10])([H:11])[H:12])([C:4](=[O:5])[N:6]([H:13])[H:14])[H:9])([H:7])[H:8]"
C       -1.05155626      -0.63304112       1.04188055
N       -0.36578544      -0.11441883      -0.26585966
C       -0.95523672       1.12835025      -0.75793331
C        1.03538048      -0.26528742      -0.59123175
O        1.43024640      -0.04544753      -1.70920494
N        1.79866307      -0.68122198       0.43464721
H       -0.41824818      -1.41326933       1.45575226
H       -1.20890068       0.20057636       1.72585956
H       -1.13116924      -0.93507673      -0.36422641
H       -0.64051104       1.31042002      -1.78196910
H       -2.03778360       1.02480336      -0.69739224
H       -0.64814564       1.96073078      -0.12062537
H        2.78386302      -0.77605784       0.27328110
H        1.40918384      -0.76106000       1.35702209
14
Frame=2 idx=005381 GeodesicLength=0.1615839840879396 rxn_smarts="[C:1]([N:2]([C:3]([H:10])([H:11])[H:12])[C:4](=[O:5])[N:6]([H:13])[H:14])([H:7])([H:8])[H:9]>>[C-:1]([N+:2]([C:3]([H:10])([H:11])[H:12])([C:4](=[O:5])[N:6]([H:13])[H:14])[H:9])([H:7])[H:8]"
C       -1.06204854      -0.65840113       1.02146374
N       -0.37293679      -0.12335653      -0.26889393
C       -0.93679352       1.13958794      -0.73788336
C        1.02304985      -0.29801218      -0.60054379
O        1.39676504      -0.17585289      -1.74043135
N        1.80880850      -0.60597771       0.44638579
H       -0.42608689      -1.44118496       1.42719707
H       -1.22322466       0.16306445       1.71946017
H       -1.15993335      -0.93994684      -0.38585811
H       -0.60908052       1.34064072      -1.75436996
H       -2.02131670       1.05237618      -0.68854818
H       -0.62418676       1.95372996      -0.07996422
H        2.78656872      -0.74249115       0.27114622
H        1.42041563      -0.66417587       1.37083992
14
Frame=3 idx=005381 GeodesicLength=0.24214672789066854 rxn_smarts="[C:1]([N:2]([C:3]([H:10])([H:11])[H:12])[C:4](=[O:5])[N:6]([H:13])[H:14])([H:7])([H:8])[H:9]>>[C-:1]([N+:2]([C:3]([H:10])([H:11])[H:12])([C:4](=[O:5])[N:6]([H:13])[H:14])[H:9])([H:7])[H:8]"
C       -1.07126324      -0.68136269       1.00240836
N       -0.37982123      -0.13176447      -0.27167317
C       -0.91925306       1.14910077      -0.71918490
C        1.01155492      -0.32823741      -0.60694424
O        1.36639916      -0.29585950      -1.75881619
N        1.81666536      -0.53590574       0.45044799
H       -0.43350866      -1.46722707       1.40017971
H       -1.23485360       0.12865301       1.71345959
H       -1.18816757      -0.94447251      -0.40531587
H       -0.57660961       1.36705246      -1.72739672
H       -2.00532875       1.07712260      -0.68106325
H       -0.60314353       1.94597843      -0.04200344
H        2.78684279      -0.71226500       0.26871384
H        1.43048702      -0.57081291       1.37718829
14
Frame=4 idx=005381 GeodesicLength=0.32264268326908135 rxn_smarts="[C:1]([N:2]([C:3]([H:10])([H:11])[H:12])[C:4](=[O:5])[N:6]([H:13])[H:14])([H:7])([H:8])[H:9]>>[C-:1]([N+:2]([C:3]([H:10])([H:11])[H:12])([C:4](=[O:5])[N:6]([H:13])[H:14])[H:9])([H:7])[H:8]"
C       -1.07950109      -0.70241718       0.98425445
N       -0.38616212      -0.13930042      -0.27393460
C       -0.90251927       1.15744597      -0.70134968
C        1.00108146      -0.35542094      -0.61069122
O        1.33810656      -0.40828936      -1.76704150
N        1.82294105      -0.47151188       0.44848674
H       -0.44115974      -1.49224047       1.37396111
H       -1.24466321       0.09649302       1.70770356
H       -1.21536595      -0.94855757      -0.42318974
H       -0.54373877       1.39063723      -1.70065842
H       -1.98971397       1.09940502      -0.67486417
H       -0.58475862       1.93795895      -0.00608109
H        2.78558203      -0.68481867       0.26601061
H        1.43987165      -0.47938370       1.37739396
14
Frame=5 idx=005381 GeodesicLength=0.40325195852580004 rxn_smarts="[C:1]([N:2]([C:3]([H:10])([H:11])[H:12])[C:4](=[O:5])[N:6]([H:13])[H:14])([H:7])([H:8])[H:9]>>[C-:1]([N+:2]([C:3]([H:10])([H:11])[H:12])([C:4](=[O:5])[N:6]([H:13])[H:14])[H:9])([H:7])[H:8]"
C       -1.08711927      -0.72187249       0.96667122
N       -0.39205433      -0.14607822      -0.27596177
C       -0.88657378       1.16495344      -0.68416936
C        0.99153388      -0.38011743      -0.61258402
O        1.31221462      -0.51515735      -1.76684818
N        1.82799088      -0.41189992       0.44189926
H       -0.44970943      -1.51707896       1.34770074
H       -1.25203518       0.06603237       1.70248752
H       -1.24187070      -0.95217632      -0.44001822
H       -0.51118287       1.41186415      -1.67424775
H       -1.97457972       1.12010588      -0.66905843
H       -0.56844466       1.92983472       0.02818353
H        2.78339208      -0.65916949       0.26359104
H        1.44843848      -0.38924037       1.37235442
14
Frame=6 idx=005381 GeodesicLength=0.4837957309243023 rxn_smarts="[C:1]([N:2]([C:3]([H:10])([H:11])[H:12])[C:4](=[O:5])[N:6]([H:13])[H:14])([H:7])([H:8])[H:9]>>[C-:1]([N+:2]([C:3]([H:10])([H:11])[H:12])([C:4](=[O:5])[N:6]([H:13])[H:14])[H:9])([H:7])[H:8]"
C       -1.09463729      -0.73984750       0.94956985
N       -0.39748901      -0.15217973      -0.27746408
C       -0.87098528       1.17179075      -0.66742013
C        0.98265092      -0.40327570      -0.61274034
O        1.28773350      -0.61783848      -1.75911537
N        1.83213392      -0.35714498       0.43164407
H       -0.46007908      -1.54208111       1.32129903
H       -1.25776513       0.03709804       1.69766476
H       -1.26786099      -0.95522861      -0.45592405
H       -0.47873639       1.43110965      -1.64795195
H       -1.95949491       1.13960874      -0.66383085
H       -0.55342212       1.92165102       0.06104664
H        2.78149492      -0.63178356       0.26055272
H        1.45645694      -0.30187853       1.36266971
14
Frame=7 idx=005381 GeodesicLength=0.5645750056945809 rxn_smarts="[C:1]([N:2]([C:3]([H:10])([H:11])[H:12])[C:4](=[O:5])[N:6]([H:13])[H:14])([H:7])([H:8])[H:9]>>[C-:1]([N+:2]([C:3]([H:10])([H:11])[H:12])([C:4](=[O:5])[N:6]([H:13])[H:14])[H:9])([H:7])[H:8]"
C       -1.10179483      -0.75666230       0.93257424
N       -0.40246608      -0.15760822      -0.27886037
C       -0.85603661       1.17812935      -0.65100231
C        0.97446744      -0.42443085      -0.61166763
O        1.26541137      -0.71730486      -1.74420879
N        1.83544395      -0.30538960       0.41835570
H       -0.47187280      -1.56756840       1.29394463
H       -1.26083568       0.00905375       1.69330392
H       -1.29322762      -0.95783676      -0.47127799
H       -0.44706411       1.44886588      -1.62174350
H       -1.94472774       1.15817034      -0.65836617
H       -0.53983901       1.91350053       0.09270643
H        2.77889571      -0.60584449       0.25771951
H        1.46364601      -0.21507437       1.34852234
14
Frame=8 idx=005381 GeodesicLength=0.6457167509321996 rxn_smarts="[C:1]([N:2]([C:3]([H:10])([H:11])[H:12])[C:4](=[O:5])[N:6]([H:13])[H:14])([H:7])([H:8])[H:9]>>[C-:1]([N+:2]([C:3]([H:10])([H:11])[H:12])([C:4](=[O:5])[N:6]([H:13])[H:14])[H:9])([H:7])[H:8]"
C       -1.10908779      -0.77240584       0.91566601
N       -0.40703292      -0.16241269      -0.27998889
C       -0.84152417       1.18411820      -0.63476799
C        0.96695118      -0.44428187      -0.60947250
O        1.24464567      -0.81472924      -1.72248091
N        1.83837919      -0.25652380       0.40246000
H       -0.48568384      -1.59362393       1.26567515
H       -1.26219346      -0.01827619       1.68942955
H       -1.31826780      -0.95986713      -0.48633785
H       -0.41581415       1.46550108      -1.59547038
H       -1.93021169       1.17605585      -0.65297707
H       -0.52742079       1.90538584       0.12361354
H        2.77672935      -0.57910075       0.25430513
H        1.47053122      -0.12983954       1.33034621
14
Frame=9 idx=005381 GeodesicLength=0.7270337412121204 rxn_smarts="[C:1]([N:2]([C:3]([H:10])([H:11])[H:12])[C:4](=[O:5])[N:6]([H:13])[H:14])([H:7])([H:8])[H:9]>>[C-:1]([N+:2]([C:3]([H:10])([H:11])[H:12])([C:4](=[O:5])[N:6]([H:13])[H:14])[H:9])([H:7])[H:8]"
C       -1.11659101      -0.78714995       0.89874662
N       -0.41105887      -0.16656963      -0.28061273
C       -0.82727177       1.18979977      -0.61863851
C        0.95999292      -0.46298255      -0.60603799
O        1.22484982      -0.91009252      -1.69372379
N        1.84095593      -0.21040588       0.38430644
H       -0.50178193      -1.62023934       1.23639930
H       -1.26218318      -0.04508013       1.68578578
H       -1.34269602      -0.96133427      -0.50112077
H       -0.38500000       1.48114947      -1.56902011
H       -1.91564623       1.19319777      -0.64786250
H       -0.51599581       1.89733280       0.15375017
H        2.77508510      -0.55092373       0.24964424
H        1.47734105      -0.04670180       1.30838384
14
Frame=10 idx=005381 GeodesicLength=0.8087024372063457 rxn_smarts="[C:1]([N:2]([C:3]([H:10])([H:11])[H:12])[C:4](=[O:5])[N:6]([H:13])[H:14])([H:7])([H:8])[H:9]>>[C-:1]([N+:2]([C:3]([H:10])([H:11])[H:12])([C:4](=[O:5])[N:6]([H:13])[H:14])[H:9])([H:7])[H:8]"
C       -1.12433937      -0.80095233       0.88171035
N       -0.41463315      -0.17017070      -0.28103788
C       -0.81353784       1.19522130      -0.60257304
C        0.95367341      -0.48051015      -0.60179410
O        1.20680517      -1.00345178      -1.65812634
N        1.84339844      -0.16636804       0.36397647
H       -0.52004530      -1.64726611       1.20596273
H       -1.26045926      -0.07154989       1.68251895
H       -1.36669825      -0.96238638      -0.51588793
H       -0.35496353       1.49610234      -1.54242875
H       -1.90142880       1.20974856      -0.64260210
H       -0.50561583       1.88933999       0.18332539
H        2.77373998      -0.52289931       0.24432521
H        1.48410433       0.03514249       1.28263106
14
Frame=11 idx=005381 GeodesicLength=0.8904878148905246 rxn_smarts="[C:1]([N:2]([C:3]([H:10])([H:11])[H:12])[C:4](=[O:5])[N:6]([H:13])[H:14])([H:7])([H:8])[H:9]>>[C-:1]([N+:2]([C:3]([H:10])([H:11])[H:12])([C:4](=[O:5])[N:6]([H:13])[H:14])[H:9])([H:7])[H:8]"
C       -1.13244572      -0.81382264       0.86450566
N       -0.41777974      -0.17338750      -0.28128457
C       -0.80021046       1.20032395      -0.58655365
C        0.94783057      -0.49737520      -0.59667868
O        1.19084598      -1.09414830      -1.61577816
N        1.84559843      -0.12421557       0.34156785
H       -0.54058848      -1.67440418       1.17463641
H       -1.25730331      -0.09773897       1.67940169
H       -1.39027726      -0.96314650      -0.53066672
H       -0.32591488       1.51027838      -1.51582072
H       -1.88741739       1.22591923      -0.63684088
H       -0.49576759       1.88129960       0.21221418
H        2.77268402      -0.49443291       0.23801379
H        1.49074582       0.11485061       1.25328378
14
Frame=12 idx=005381 GeodesicLength=0.972530558444759 rxn_smarts="[C:1]([N:2]([C:3]([H:10])([H:11])[H:12])[C:4](=[O:5])[N:6]([H:13])[H:14])([H:7])([H:8])[H:9]>>[C-:1]([N+:2]([C:3]([H:10])([H:11])[H:12])([C:4](=[O:5])[N:6]([H:13])[H:14])[H:9])([H:7])[H:8]"
C       -1.14114118      -0.82586466       0.84711944
N       -0.42031728      -0.17611193      -0.28086442
C       -0.78705216       1.20516850      -0.57045210
C        0.94248137      -0.51369337      -0.59034618
O        1.17563704      -1.18235558      -1.56637900
N        1.84775254      -0.08413368       0.31727334
H       -0.56387444      -1.70173899       1.14231091
H       -1.25348156      -0.12394282       1.67631097
H       -1.41306871      -0.96355140      -0.54556731
H       -0.29725364       1.52391572      -1.48881907
H       -1.87328394       1.24137784      -0.63151961
H       -0.48675677       1.87318831       0.24075550
H        2.77243675      -0.46449429       0.22954093
H        1.49792198       0.19223635       1.22063659
14
Frame=13 idx=005381 GeodesicLength=1.055006079038976 rxn_smarts="[C:1]([N:2]([C:3]([H:10])([H:11])[H:12])[C:4](=[O:5])[N:6]([H:13])[H:14])([H:7])([H:8])[H:9]>>[C-:1]([N+:2]([C:3]([H:10])([H:11])[H:12])([C:4](=[O:5])[N:6]([H:13])[H:14])[H:9])([H:7])[H:8]"
C       -1.15052816      -0.83712136       0.82937965
N       -0.42240512      -0.17855188      -0.28017097
C       -0.77418693       1.20974029      -0.55420093
C        0.93761877      -0.52953316      -0.58315298
O        1.16238584      -1.26806520      -1.50984014
N        1.84982082      -0.04580220       0.29105379
H       -0.58975977      -1.72889633       1.10911009
H       -1.24900170      -0.15025731       1.67313870
H       -1.43536697      -0.96378758      -0.56086903
H       -0.26941732       1.53703390      -1.46158218
H       -1.85927304       1.25654409      -0.62564190
H       -0.47806870       1.86492036       0.26899152
H        2.77285619      -0.43363741       0.21909004
H        1.50532610       0.26741379       1.18469434
14
Frame=14 idx=005381 GeodesicLength=1.1377425127598821 rxn_smarts="[C:1]([N:2]([C:3]([H:10])([H:11])[H:12])[C:4](=[O:5])[N:6]([H:13])[H:14])([H:7])([H:8])[H:9]>>[C-:1]([N+:2]([C:3]([H:10])([H:11])[H:12])([C:4](=[O:5])[N:6]([H:13])[H:14])[H:9])([H:7])[H:8]"
C       -1.16083349      -0.84758960       0.81134810
N       -0.42401084      -0.18080475      -0.27895233
C       -0.76151933       1.21396300      -0.53777419
C        0.93323392      -0.54535246      -0.57466999
O        1.15095092      -1.35017123      -1.44669493
N        1.85192760      -0.00926164       0.26304513
H       -0.61839902      -1.75559533       1.07541545
H       -1.24466809      -0.17665993       1.66976829
H       -1.45701616      -0.96402994      -0.57664510
H       -0.24230580       1.54948185      -1.43414442
H       -1.84529947       1.27132590      -0.61947475
H       -0.46958529       1.85643165       0.29697338
H        2.77424180      -0.40157224       0.20590734
H        1.51328323       0.33983472       1.14589802
14
Frame=15 idx=005381 GeodesicLength=1.2207685694369865 rxn_smarts="[C:1]([N:2]([C:3]([H:10])([H:11])[H:12])[C:4](=[O:5])[N:6]([H:13])[H:14])([H:7])([H:8])[H:9]>>[C-:1]([N+:2]([C:3]([H:10])([H:11])[H:12])([C:4](=[O:5])[N:6]([H:13])[H:14])[H:9])([H:7])[H:8]"
C       -1.17207251      -0.85734717       0.79302496
N       -0.42501293      -0.18282918      -0.27691184
C       -0.74900520       1.21783256      -0.52109844
C        0.92937157      -0.56112716      -0.56455064
O        1.14081591      -1.42796706      -1.37723171
N        1.85419900       0.02552272       0.23326892
H       -0.64983779      -1.78178342       1.04118397
H       -1.24085497      -0.20338417       1.66613946
H       -1.47764409      -0.96438788      -0.59298012
H       -0.21588932       1.56126707      -1.40644486
H       -1.83125813       1.28549281      -0.61329840
H       -0.46140468       1.84769757       0.32478930
H        2.77647280      -0.36891328       0.18991546
H        1.52212035       0.40992658       1.10419394
14
Frame=16 idx=005381 GeodesicLength=1.3038904601433527 rxn_smarts="[C:1]([N:2]([C:3]([H:10])([H:11])[H:12])[C:4](=[O:5])[N:6]([H:13])[H:14])([H:7])([H:8])[H:9]>>[C-:1]([N+:2]([C:3]([H:10])([H:11])[H:12])([C:4](=[O:5])[N:6]([H:13])[H:14])[H:9])([H:7])[H:8]"
C       -1.18425715      -0.86646863       0.77425467
N       -0.42551470      -0.18481983      -0.27425673
C       -0.73654732       1.22128595      -0.50411838
C        0.92589764      -0.57694196      -0.55276285
O        1.13290181      -1.50109875      -1.30151365
N        1.85627704       0.05860311       0.20175562
H       -0.68353483      -1.80688571       1.00701549
H       -1.23836177      -0.23032594       1.66179009
H       -1.49727029      -0.96503116      -0.61003066
H       -0.19038809       1.57231480      -1.37864334
H       -1.81704705       1.29941018      -0.60629276
H       -0.45282374       1.83853842       0.35235454
H        2.77931227      -0.33534141       0.17044512
H        1.53135617       0.47676091       1.06000284
