14
Frame=0 idx=010169 GeodesicLength=0.0 rxn_smarts="[N:1]([C:2](=[O:3])[C:4]([C@@:5]1([H:12])[C:6]([H:13])([H:14])[O:7]1)([H:10])[H:11])([H:8])[H:9]>>[N:1]([C@:2]1([H:11])[O:3][C@@:4]1([C@@:5]1([H:12])[C:6]([H:13])([H:14])[O:7]1)[H:10])([H:8])[H:9]"
N        1.52715266       0.13201960       2.00739890
C        0.94440013       0.63367532       0.79309704
O        0.06524667       1.58395779       0.86246294
C        0.35531192      -0.31455996      -0.17588573
C       -1.07849242      -0.37141111      -0.35035923
C       -1.70221228      -0.29333925      -1.68249026
O       -1.50691936      -1.53626474      -1.05829833
H        2.12499869       0.83016755       2.42716018
H        2.03531812      -0.73404633       1.88651537
H        0.96014697      -0.77172454      -0.95784040
H        1.75156697       0.93651222       0.02562852
H       -1.66343817      -0.05280263       0.50944821
H       -1.08495081      -0.10092662      -2.55541363
H       -2.72812910       0.05874265      -1.73142362
14
Frame=1 idx=010169 GeodesicLength=0.07497338823584536 rxn_smarts="[N:1]([C:2](=[O:3])[C:4]([C@@:5]1([H:12])[C:6]([H:13])([H:14])[O:7]1)([H:10])[H:11])([H:8])[H:9]>>[N:1]([C@:2]1([H:11])[O:3][C@@:4]1([C@@:5]1([H:12])[C:6]([H:13])([H:14])[O:7]1)[H:10])([H:8])[H:9]"
N        1.52323964       0.13579235       2.00914945
C        0.95181441       0.64137934       0.79675740
O        0.06540860       1.58529584       0.84696692
C        0.35990586      -0.29148608      -0.18169092
C       -1.07553925      -0.37278538      -0.35044490
C       -1.70439079      -0.28801888      -1.67875277
O       -1.49543767      -1.53530984      -1.06596481
H        2.11848322       0.82942254       2.43931256
H        2.02196414      -0.73603638       1.89357259
H        0.96578908      -0.77994863      -0.94352345
H        1.75538690       0.91426873      -0.00607379
H       -1.66096162      -0.07355259       0.51586319
H       -1.09158698      -0.08250024      -2.55188928
H       -2.73407555       0.05347922      -1.72328219
14
Frame=2 idx=010169 GeodesicLength=0.1499645674325402 rxn_smarts="[N:1]([C:2](=[O:3])[C:4]([C@@:5]1([H:12])[C:6]([H:13])([H:14])[O:7]1)([H:10])[H:11])([H:8])[H:9]>>[N:1]([C@:2]1([H:11])[O:3][C@@:4]1([C@@:5]1([H:12])[C:6]([H:13])([H:14])[O:7]1)[H:10])([H:8])[H:9]"
N        1.51884799       0.13950277       2.01030986
C        0.95969155       0.64947790       0.79946643
O        0.06595629       1.58661753       0.83142038
C        0.36474521      -0.26843155      -0.18798362
C       -1.07206689      -0.37419391      -0.35062700
C       -1.70662758      -0.28266887      -1.67478222
O       -1.48393024      -1.53417009      -1.07364709
H        2.11069609       0.82843593       2.45191127
H        2.00820466      -0.73787544       1.90001868
H        0.97111795      -0.78855798      -0.92816020
H        1.75933469       0.89228121      -0.03733705
H       -1.65734016      -0.09461581       0.52221782
H       -1.09870203      -0.06413378      -2.54822861
H       -2.73992753       0.04833209      -1.71457864
14
Frame=3 idx=010169 GeodesicLength=0.22498107665201345 rxn_smarts="[N:1]([C:2](=[O:3])[C:4]([C@@:5]1([H:12])[C:6]([H:13])([H:14])[O:7]1)([H:10])[H:11])([H:8])[H:9]>>[N:1]([C@:2]1([H:11])[O:3][C@@:4]1([C@@:5]1([H:12])[C:6]([H:13])([H:14])[O:7]1)[H:10])([H:8])[H:9]"
N        1.51406281       0.14323569       2.01093907
C        0.96794344       0.65782660       0.80131613
O        0.06684512       1.58784762       0.81577563
C        0.36980608      -0.24564469      -0.19462629
C       -1.06810679      -0.37571549      -0.35089439
C       -1.70888673      -0.27722590      -1.67058153
O       -1.47246256      -1.53284729      -1.08145522
H        2.10171144       0.82737541       2.46480162
H        1.99413154      -0.73949728       1.90597285
H        0.97607820      -0.79741882      -0.91178781
H        1.76333808       0.87042372      -0.06824548
H       -1.65262444      -0.11607043       0.52849693
H       -1.10620709      -0.04571133      -2.54438378
H       -2.74562910       0.04342219      -1.70532774
14
Frame=4 idx=010169 GeodesicLength=0.30003131115580217 rxn_smarts="[N:1]([C:2](=[O:3])[C:4]([C@@:5]1([H:12])[C:6]([H:13])([H:14])[O:7]1)([H:10])[H:11])([H:8])[H:9]>>[N:1]([C@:2]1([H:11])[O:3][C@@:4]1([C@@:5]1([H:12])[C:6]([H:13])([H:14])[O:7]1)[H:10])([H:8])[H:9]"
N        1.50895475       0.14708328       2.01109613
C        0.97649010       0.66629088       0.80238035
O        0.06803196       1.58889999       0.79995387
C        0.37508393      -0.22337523      -0.20150013
C       -1.06367986      -0.37742942      -0.35125345
C       -1.71114359      -0.27161521      -1.66613889
O       -1.46108910      -1.53133003      -1.08952171
H        2.09158565       0.82642163       2.47784632
H        1.97981940      -0.74081011       1.91157866
H        0.98061919      -0.80641700      -0.89444731
H        1.76733928       0.84852670      -0.09886982
H       -1.64683278      -0.13802668       0.53466994
H       -1.11403407      -0.02707548      -2.54028261
H       -2.75114487       0.03885667      -1.69551135
14
Frame=5 idx=010169 GeodesicLength=0.37513133979117175 rxn_smarts="[N:1]([C:2](=[O:3])[C:4]([C@@:5]1([H:12])[C:6]([H:13])([H:14])[O:7]1)([H:10])[H:11])([H:8])[H:9]>>[N:1]([C@:2]1([H:11])[O:3][C@@:4]1([C@@:5]1([H:12])[C:6]([H:13])([H:14])[O:7]1)[H:10])([H:8])[H:9]"
N        1.50361248       0.15113222       2.01084785
C        0.98525004       0.67474692       0.80274566
O        0.06946284       1.58968154       0.78390520
C        0.38057040      -0.20186804      -0.20847623
C       -1.05882026      -0.37941386      -0.35170568
C       -1.71337391      -0.26576580      -1.66145782
O       -1.44987447      -1.52960915      -1.09797101
H        2.08039006       0.82575907       2.49091966
H        1.96538865      -0.74171866       1.91696552
H        0.98469472      -0.81545827      -0.87619814
H        1.77125909       0.82642819      -0.12926939
H       -1.64001367      -0.16057864       0.54070599
H       -1.12210829      -0.00808762      -2.53586831
H       -2.75643769       0.03475211      -1.68514332
14
Frame=6 idx=010169 GeodesicLength=0.4502866990861231 rxn_smarts="[N:1]([C:2](=[O:3])[C:4]([C@@:5]1([H:12])[C:6]([H:13])([H:14])[O:7]1)([H:10])[H:11])([H:8])[H:9]>>[N:1]([C@:2]1([H:11])[O:3][C@@:4]1([C@@:5]1([H:12])[C:6]([H:13])([H:14])[O:7]1)[H:10])([H:8])[H:9]"
N        1.49812589       0.15543724       2.01025082
C        0.99415886       0.68310213       0.80250493
O        0.07109216       1.59011932       0.76762611
C        0.38624243      -0.18128683      -0.21542794
C       -1.05358232      -0.38170187      -0.35225320
C       -1.71555457      -0.25964372      -1.65653738
O       -1.43886593      -1.52766875      -1.10686524
H        2.06820580       0.82551151       2.50392257
H        1.95094699      -0.74216431       1.92222827
H        0.98829524      -0.82446193      -0.85718135
H        1.77502325       0.80401796      -0.15947235
H       -1.63225936      -0.18374098       0.54654174
H       -1.13034753       0.01132317      -2.53107284
H       -2.76148090       0.03115708      -1.67426413
14
Frame=7 idx=010169 GeodesicLength=0.5254923323285321 rxn_smarts="[N:1]([C:2](=[O:3])[C:4]([C@@:5]1([H:12])[C:6]([H:13])([H:14])[O:7]1)([H:10])[H:11])([H:8])[H:9]>>[N:1]([C@:2]1([H:11])[O:3][C@@:4]1([C@@:5]1([H:12])[C:6]([H:13])([H:14])[O:7]1)[H:10])([H:8])[H:9]"
N        1.49257459       0.16003470       2.00935786
C        1.00316323       0.69128809       0.80174215
O        0.07288427       1.59015778       0.75112418
C        0.39208843      -0.16174390      -0.22226778
C       -1.04801223      -0.38431293      -0.35289953
C       -1.71767267      -0.25322541      -1.65138194
O       -1.42809516      -1.52549512      -1.11625441
H        2.05510529       0.82578239       2.51678231
H        1.93659147      -0.74210334       1.92744211
H        0.99141521      -0.83337473      -0.83750672
H        1.77856945       0.78120244      -0.18949102
H       -1.62364897      -0.20752116       0.55212160
H       -1.13869689       0.03121202      -2.52585129
H       -2.76626603       0.02809917      -1.66291753
14
Frame=8 idx=010169 GeodesicLength=0.600721196933028 rxn_smarts="[N:1]([C:2](=[O:3])[C:4]([C@@:5]1([H:12])[C:6]([H:13])([H:14])[O:7]1)([H:10])[H:11])([H:8])[H:9]>>[N:1]([C@:2]1([H:11])[O:3][C@@:4]1([C@@:5]1([H:12])[C:6]([H:13])([H:14])[O:7]1)[H:10])([H:8])[H:9]"
N        1.48703517       0.16495056       2.00822058
C        1.01222138       0.69925869       0.80053943
O        0.07480187       1.58976413       0.73443518
C        0.39809555      -0.14330569      -0.22892522
C       -1.04215505      -0.38725583      -0.35364333
C       -1.71971776      -0.24650342      -1.64601002
O       -1.41759328      -1.52308588      -1.12615909
H        2.04116378       0.82663957       2.52944998
H        1.92241401      -0.74152005       1.93266003
H        0.99406580      -0.84217363      -0.81729545
H        1.78182530       0.75793857      -0.21933449
H       -1.61427047      -0.23189955       0.55740670
H       -1.14710697       0.05159009      -2.52018795
H       -2.77077930       0.02560245      -1.65115633
14
Frame=9 idx=010169 GeodesicLength=0.6760073149940039 rxn_smarts="[N:1]([C:2](=[O:3])[C:4]([C@@:5]1([H:12])[C:6]([H:13])([H:14])[O:7]1)([H:10])[H:11])([H:8])[H:9]>>[N:1]([C@:2]1([H:11])[O:3][C@@:4]1([C@@:5]1([H:12])[C:6]([H:13])([H:14])[O:7]1)[H:10])([H:8])[H:9]"
N        1.48158214       0.17016889       2.00686032
C        1.02129613       0.70699854       0.79897670
O        0.07681022       1.58895851       0.71765231
C        0.40423017      -0.12593042      -0.23533123
C       -1.03606140      -0.39048399      -0.35447354
C       -1.72166944      -0.23951271      -1.64042577
O       -1.40733842      -1.52041770      -1.13651008
H        2.02645154       0.82806779       2.54191129
H        1.90847671      -0.74043634       1.93785670
H        0.99631903      -0.85083610      -0.79671520
H        1.78469234       0.73417198      -0.24901825
H       -1.60426135      -0.25675195       0.56232706
H       -1.15551172       0.07240677      -2.51404364
H       -2.77501593       0.02359672      -1.63906668
14
Frame=10 idx=010169 GeodesicLength=0.7513299160959238 rxn_smarts="[N:1]([C:2](=[O:3])[C:4]([C@@:5]1([H:12])[C:6]([H:13])([H:14])[O:7]1)([H:10])[H:11])([H:8])[H:9]>>[N:1]([C@:2]1([H:11])[O:3][C@@:4]1([C@@:5]1([H:12])[C:6]([H:13])([H:14])[O:7]1)[H:10])([H:8])[H:9]"
N        1.47626215       0.17570120       2.00533136
C        1.03035003       0.71447479       0.79712525
O        0.07890101       1.58769397       0.70076651
C        0.41051283      -0.10967141      -0.24148367
C       -1.02975715      -0.39400004      -0.35541685
C       -1.72354084      -0.23224055      -1.63465126
O       -1.39736862      -1.51749247      -1.14736036
H        2.01101885       0.83012151       2.55412294
H        1.89485648      -0.73882559       1.94310158
H        0.99812576      -0.85933336      -0.77575898
H        1.78717617       0.70990074      -0.27853212
H       -1.59363228      -0.28211119       0.56685245
H       -1.16391394       0.09368086      -2.50742832
H       -2.77899047       0.02210155      -1.62666852
14
Frame=11 idx=010169 GeodesicLength=0.8266974937675984 rxn_smarts="[N:1]([C:2](=[O:3])[C:4]([C@@:5]1([H:12])[C:6]([H:13])([H:14])[O:7]1)([H:10])[H:11])([H:8])[H:9]>>[N:1]([C@:2]1([H:11])[O:3][C@@:4]1([C@@:5]1([H:12])[C:6]([H:13])([H:14])[O:7]1)[H:10])([H:8])[H:9]"
N        1.47111448       0.18151895       2.00365804
C        1.03935704       0.72168137       0.79504725
O        0.08107056       1.58597971       0.68382084
C        0.41694205      -0.09448347      -0.24737686
C       -1.02327588      -0.39775503      -0.35648730
C       -1.72533272      -0.22471610      -1.62868809
O       -1.38767051      -1.51428955      -1.15866338
H        1.99489527       0.83277721       2.56608050
H        1.88160075      -0.73670636       1.94839008
H        0.99950061      -0.86763675      -0.75449393
H        1.78925822       0.68511671      -0.30787914
H       -1.58244555      -0.30790274       0.57091945
H       -1.17229325       0.11536776      -2.50031905
H       -2.78272108       0.02104828      -1.61400842
14
Frame=12 idx=010169 GeodesicLength=0.9021141901884395 rxn_smarts="[N:1]([C:2](=[O:3])[C:4]([C@@:5]1([H:12])[C:6]([H:13])([H:14])[O:7]1)([H:10])[H:11])([H:8])[H:9]>>[N:1]([C@:2]1([H:11])[O:3][C@@:4]1([C@@:5]1([H:12])[C:6]([H:13])([H:14])[O:7]1)[H:10])([H:8])[H:9]"
N        1.46617505       0.18760314       2.00186823
C        1.04829539       0.72862435       0.79280130
O        0.08331369       1.58383370       0.66685912
C        0.42351595      -0.08031419      -0.25300683
C       -1.01664478      -0.40171539      -0.35768635
C       -1.72704672      -0.21696466      -1.62254753
O       -1.37823358      -1.51080749      -1.17038311
H        1.97811853       0.83601001       2.57778371
H        1.86874255      -0.73410161       1.95372356
H        1.00047503      -0.87573793      -0.73299077
H        1.79090778       0.65981614      -0.33707147
H       -1.57076340      -0.33406248       0.57449603
H       -1.18063596       0.13742692      -2.49271459
H       -2.78621956       0.02038950      -1.60113130
14
Frame=13 idx=010169 GeodesicLength=0.9775573744314905 rxn_smarts="[N:1]([C:2](=[O:3])[C:4]([C@@:5]1([H:12])[C:6]([H:13])([H:14])[O:7]1)([H:10])[H:11])([H:8])[H:9]>>[N:1]([C@:2]1([H:11])[O:3][C@@:4]1([C@@:5]1([H:12])[C:6]([H:13])([H:14])[O:7]1)[H:10])([H:8])[H:9]"
N        1.46146936       0.19392992       1.99998699
C        1.05715298       0.73531238       0.79043412
O        0.08563067       1.58128206       0.64991950
C        0.43023536      -0.06710107      -0.25838154
C       -1.00988580      -0.40584565      -0.35901156
C       -1.72868307      -0.20901463      -1.61624007
O       -1.36904332      -1.50704741      -1.18247957
H        1.96071240       0.83978372       2.58923328
H        1.85630684      -0.73104499       1.95909280
H        1.00106708      -0.88362726      -0.71129219
H        1.79210432       0.63401404      -0.36612220
H       -1.55863697      -0.36052930       0.57755970
H       -1.18893354       0.15981027      -2.48462308
H       -2.78949631       0.02007792      -1.58807618
14
Frame=14 idx=010169 GeodesicLength=1.0530301887844313 rxn_smarts="[N:1]([C:2](=[O:3])[C:4]([C@@:5]1([H:12])[C:6]([H:13])([H:14])[O:7]1)([H:10])[H:11])([H:8])[H:9]>>[N:1]([C@:2]1([H:11])[O:3][C@@:4]1([C@@:5]1([H:12])[C:6]([H:13])([H:14])[O:7]1)[H:10])([H:8])[H:9]"
N        1.45701920       0.20048129       1.99803494
C        1.06591499       0.74176175       0.78799122
O        0.08801990       1.57835400       0.63303789
C        0.43710160      -0.05477242      -0.26350969
C       -1.00301536      -0.41011476      -0.36045953
C       -1.73023965      -0.20089567      -1.60977511
O       -1.36007961      -1.50300795      -1.19491142
H        1.94271160       0.84405331       2.60042401
H        1.84429194      -0.72757242       1.96449248
H        1.00130519      -0.89129314      -0.68944317
H        1.79281503       0.60771554      -0.39505129
H       -1.54611352      -0.38724608       0.58009234
H       -1.19717399       0.18247017      -2.47604663
H       -2.79255731       0.02006638      -1.57487604
14
Frame=15 idx=010169 GeodesicLength=1.1285391295619152 rxn_smarts="[N:1]([C:2](=[O:3])[C:4]([C@@:5]1([H:12])[C:6]([H:13])([H:14])[O:7]1)([H:10])[H:11])([H:8])[H:9]>>[N:1]([C@:2]1([H:11])[O:3][C@@:4]1([C@@:5]1([H:12])[C:6]([H:13])([H:14])[O:7]1)[H:10])([H:8])[H:9]"
N        1.45282935       0.20723551       1.99602478
C        1.07457758       0.74799046       0.78549898
O        0.09049446       1.57508139       0.61622302
C        0.44412513      -0.04325822      -0.26841488
C       -0.99604128      -0.41448944      -0.36203224
C       -1.73172043      -0.19263208      -1.60314744
O       -1.35131141      -1.49867959      -1.20764274
H        1.92411532       0.84877866       2.61137465
H        1.83268329      -0.72371217       1.96991835
H        1.00121569      -0.89871632      -0.66747763
H        1.79303096       0.58089758      -0.42388259
H       -1.53321624      -0.41417019       0.58207083
H       -1.20536310       0.20538067      -2.46697132
H       -2.79541933       0.02029373      -1.56154177
14
Frame=16 idx=010169 GeodesicLength=1.2040771162858088 rxn_smarts="[N:1]([C:2](=[O:3])[C:4]([C@@:5]1([H:12])[C:6]([H:13])([H:14])[O:7]1)([H:10])[H:11])([H:8])[H:9]>>[N:1]([C@:2]1([H:11])[O:3][C@@:4]1([C@@:5]1([H:12])[C:6]([H:13])([H:14])[O:7]1)[H:10])([H:8])[H:9]"
N        1.44890544       0.21418155       1.99397187
C        1.08313864       0.75401841       0.78298165
O        0.09306202       1.57149602       0.59948298
C        0.45131619      -0.03249593      -0.27311620
C       -0.98896749      -0.41894905      -0.36372501
C       -1.73312495      -0.18424493      -1.59635470
O       -1.34271441      -1.49406017      -1.22064660
H        1.90492597       0.85391919       2.62209208
H        1.82146040      -0.71949312       1.97537018
H        1.00083089      -0.90588791      -0.64542867
H        1.79272797       0.55354665      -0.45264146
H       -1.51996781      -0.44126694       0.58348646
H       -1.21350330       0.22851678      -2.45739128
H       -2.79808957       0.02071946      -1.54808130
