15
Frame=0 idx=009116 GeodesicLength=0.0 rxn_smarts="[C:1]([C:2](=[O:3])[C:4]1([O:5][H:11])[C:6]([H:12])([H:13])[C:7]1([H:14])[H:15])([H:8])([H:9])[H:10]>>[C:1]([C@:2]1([O:3][H:11])[C:4]2([O:5]1)[C:6]([H:12])([H:13])[C:7]2([H:14])[H:15])([H:8])([H:9])[H:10]"
C        1.78320160       0.33108171      -0.70399420
C        0.82828110      -0.54398697      -0.00299247
O        1.20381538      -1.76034227       0.20781568
C       -0.43652016      -0.12458818       0.59228657
O       -0.14304669      -0.46662496       1.85499967
C       -1.77118476      -0.28504342      -0.09998897
C       -1.19017336       1.09052439       0.14757677
H        2.68863293      -0.19733894      -0.99192717
H        1.30079288       0.78623401      -1.57081459
H        2.02602457       1.14519055      -0.01623160
H        0.58562566      -2.05881297       0.91967044
H       -2.57205591      -0.61459260       0.55005936
H       -1.82555285      -0.64086708      -1.12224418
H       -0.86019206       1.66136491      -0.71327739
H       -1.61764829       1.67780178       0.94906205
15
Frame=1 idx=009116 GeodesicLength=0.08764102833924936 rxn_smarts="[C:1]([C:2](=[O:3])[C:4]1([O:5][H:11])[C:6]([H:12])([H:13])[C:7]1([H:14])[H:15])([H:8])([H:9])[H:10]>>[C:1]([C@:2]1([O:3][H:11])[C:4]2([O:5]1)[C:6]([H:12])([H:13])[C:7]2([H:14])[H:15])([H:8])([H:9])[H:10]"
C        1.78273700       0.32837310      -0.70816390
C        0.83194387      -0.54342801       0.00404429
O        1.20554349      -1.76015690       0.22068024
C       -0.43931842      -0.12241478       0.58286467
O       -0.13796403      -0.47452186       1.84358594
C       -1.77036522      -0.28462899      -0.11134974
C       -1.19812968       1.09208953       0.15096198
H        2.67133084      -0.21089686      -1.02727021
H        1.29115412       0.80293254      -1.55888778
H        2.05960247       1.12664202      -0.01487833
H        0.58962866      -2.03859389       0.96519343
H       -2.56997583      -0.62521195       0.53447986
H       -1.81773093      -0.63218610      -1.13675889
H       -0.86805993       1.67367616      -0.70242401
H       -1.63039640       1.66832601       0.95792244
15
Frame=2 idx=009116 GeodesicLength=0.17521592295577482 rxn_smarts="[C:1]([C:2](=[O:3])[C:4]1([O:5][H:11])[C:6]([H:12])([H:13])[C:7]1([H:14])[H:15])([H:8])([H:9])[H:10]>>[C:1]([C@:2]1([O:3][H:11])[C:4]2([O:5]1)[C:6]([H:12])([H:13])[C:7]2([H:14])[H:15])([H:8])([H:9])[H:10]"
C        1.78241871       0.32576231      -0.71205378
C        0.83579819      -0.54265206       0.01142959
O        1.20766102      -1.75971237       0.23381745
C       -0.44184405      -0.12013005       0.57368592
O       -0.13268115      -0.48116113       1.83272226
C       -1.76931857      -0.28443752      -0.12243546
C       -1.20613610       1.09343537       0.15423570
H        2.65284405      -0.22411814      -1.06221461
H        1.28232016       0.82001565      -1.54610822
H        2.09367083       1.10730804      -0.01438738
H        0.59202555      -2.01864904       1.00836125
H       -2.56750950      -0.63597957       0.51919575
H       -1.80967475      -0.62398117      -1.15083171
H       -0.87626219       1.68554444      -0.69176490
H       -1.64331219       1.65875524       0.96634814
15
Frame=3 idx=009116 GeodesicLength=0.2627569975837054 rxn_smarts="[C:1]([C:2](=[O:3])[C:4]1([O:5][H:11])[C:6]([H:12])([H:13])[C:7]1([H:14])[H:15])([H:8])([H:9])[H:10]>>[C:1]([C@:2]1([O:3][H:11])[C:4]2([O:5]1)[C:6]([H:12])([H:13])[C:7]2([H:14])[H:15])([H:8])([H:9])[H:10]"
C        1.78221268       0.32326755      -0.71569438
C        0.83980746      -0.54157557       0.01917879
O        1.21005933      -1.75884442       0.24712395
C       -0.44410586      -0.11774895       0.56471843
O       -0.12730545      -0.48665189       1.82226275
C       -1.76797080      -0.28445286      -0.13321181
C       -1.21407628       1.09446324       0.15743223
H        2.63314394      -0.23680903      -1.09662036
H        1.27434549       0.83730673      -1.53247954
H        2.12804480       1.08722076      -0.01502985
H        0.59260871      -1.99889712       1.04934199
H       -2.56461061      -0.64689854       0.50419278
H       -1.80126493      -0.61615040      -1.16435432
H       -0.88461404       1.69687788      -0.68119383
H       -1.65627443       1.64889263       0.97433317
15
Frame=4 idx=009116 GeodesicLength=0.3502060427852701 rxn_smarts="[C:1]([C:2](=[O:3])[C:4]1([O:5][H:11])[C:6]([H:12])([H:13])[C:7]1([H:14])[H:15])([H:8])([H:9])[H:10]>>[C:1]([C@:2]1([O:3][H:11])[C:4]2([O:5]1)[C:6]([H:12])([H:13])[C:7]2([H:14])[H:15])([H:8])([H:9])[H:10]"
C        1.78213218       0.32090341      -0.71907453
C        0.84398709      -0.54026476       0.02722053
O        1.21279534      -1.75771480       0.26042723
C       -0.44610144      -0.11528202       0.55594883
O       -0.12174166      -0.49107347       1.81228362
C       -1.76638782      -0.28465797      -0.14370531
C       -1.22199761       1.09525742       0.16050951
H        2.61233816      -0.24892758      -1.13040226
H        1.26725243       0.85485871      -1.51807537
H        2.16261720       1.06641063      -0.01668918
H        0.59155359      -1.97953887       1.08838962
H       -2.56131733      -0.65789295       0.48952915
H       -1.79264228      -0.60873385      -1.17742914
H       -0.89322966       1.70774257      -0.67085066
H       -1.66925818       1.63891353       0.98191795
15
Frame=5 idx=009116 GeodesicLength=0.43759422476345433 rxn_smarts="[C:1]([C:2](=[O:3])[C:4]1([O:5][H:11])[C:6]([H:12])([H:13])[C:7]1([H:14])[H:15])([H:8])([H:9])[H:10]>>[C:1]([C@:2]1([O:3][H:11])[C:4]2([O:5]1)[C:6]([H:12])([H:13])[C:7]2([H:14])[H:15])([H:8])([H:9])[H:10]"
C        1.78217342       0.31870652      -0.72218026
C        0.84829962      -0.53874252       0.03548563
O        1.21578988      -1.75637401       0.27355308
C       -0.44782605      -0.11275959       0.54732812
O       -0.11593604      -0.49453285       1.80269152
C       -1.76459380      -0.28504885      -0.15388659
C       -1.22983955       1.09582152       0.16344178
H        2.59055236      -0.26036615      -1.16333268
H        1.26108241       0.87258767      -1.50295516
H        2.19713499       1.04501629      -0.01938161
H        0.58887356      -1.96061914       1.12565639
H       -2.55763597      -0.66891755       0.47526467
H       -1.78390168      -0.60174797      -1.18999320
H       -0.90206379       1.71812752      -0.66077271
H       -1.68210936       1.62884913       0.98908100
15
Frame=6 idx=009116 GeodesicLength=0.5248776781225098 rxn_smarts="[C:1]([C:2](=[O:3])[C:4]1([O:5][H:11])[C:6]([H:12])([H:13])[C:7]1([H:14])[H:15])([H:8])([H:9])[H:10]>>[C:1]([C@:2]1([O:3][H:11])[C:4]2([O:5]1)[C:6]([H:12])([H:13])[C:7]2([H:14])[H:15])([H:8])([H:9])[H:10]"
C        1.78234458       0.31665104      -0.72503062
C        0.85278877      -0.53698248       0.04402366
O        1.21909573      -1.75480838       0.28653930
C       -0.44929619      -0.11014535       0.53886758
O       -0.10993974      -0.49699917       1.79353653
C       -1.76258822      -0.28563210      -0.16382735
C       -1.23766877       1.09616767       0.16623370
H        2.56758019      -0.27117699      -1.19573464
H        1.25581510       0.89068908      -1.48695971
H        2.23190101       1.02278910      -0.02310516
H        0.58467812      -1.94210594       1.16141951
H       -2.55358813      -0.68002848       0.46130104
H       -1.77498405      -0.59517113      -1.20216644
H       -0.91116468       1.72807047      -0.65094597
H       -1.69497372       1.61868266       0.99584856
15
Frame=7 idx=009116 GeodesicLength=0.6120824500305342 rxn_smarts="[C:1]([C:2](=[O:3])[C:4]1([O:5][H:11])[C:6]([H:12])([H:13])[C:7]1([H:14])[H:15])([H:8])([H:9])[H:10]>>[C:1]([C@:2]1([O:3][H:11])[C:4]2([O:5]1)[C:6]([H:12])([H:13])[C:7]2([H:14])[H:15])([H:8])([H:9])[H:10]"
C        1.78264389       0.31477137      -0.72761408
C        0.85741046      -0.53502015       0.05274718
O        1.22264429      -1.75306393       0.29922894
C       -0.45051304      -0.10747624       0.53052361
O       -0.10372014      -0.49858183       1.78473690
C       -1.76039437      -0.28639206      -0.17348796
C       -1.24542317       1.09629001       0.16886033
H        2.54359676      -0.28123149      -1.22737407
H        1.25149896       0.90903597      -1.47018278
H        2.26660079       0.99986777      -0.02784016
H        0.57899933      -1.92402329       1.19577789
H       -2.54918494      -0.69114575       0.44772646
H       -1.76598086      -0.58900836      -1.21388812
H       -0.92048411       1.73753449      -0.64142642
H       -1.70769386       1.60844348       1.00221227
15
Frame=8 idx=009116 GeodesicLength=0.6992131347744799 rxn_smarts="[C:1]([C:2](=[O:3])[C:4]1([O:5][H:11])[C:6]([H:12])([H:13])[C:7]1([H:14])[H:15])([H:8])([H:9])[H:10]>>[C:1]([C@:2]1([O:3][H:11])[C:4]2([O:5]1)[C:6]([H:12])([H:13])[C:7]2([H:14])[H:15])([H:8])([H:9])[H:10]"
C        1.78306133       0.31305035      -0.72994632
C        0.86217117      -0.53283752       0.06169357
O        1.22642311      -1.75113309       0.31165359
C       -0.45148471      -0.10473409       0.52229618
O       -0.09731061      -0.49926909       1.77630851
C       -1.75799129      -0.28734499      -0.18292137
C       -1.25312972       1.09619335       0.17131522
H        2.51837444      -0.29051089      -1.25846261
H        1.24815880       0.92779990      -1.45245310
H        2.30142617       0.97602050      -0.03365083
H        0.57192122      -1.90630779       1.22897289
H       -2.54440978      -0.70234033       0.43445899
H       -1.75683068      -0.58324629      -1.22523132
H       -0.93002883       1.74655497      -0.63220149
H       -1.72035062       1.59810501       1.00816811
15
Frame=9 idx=009116 GeodesicLength=0.7862722823323416 rxn_smarts="[C:1]([C:2](=[O:3])[C:4]1([O:5][H:11])[C:6]([H:12])([H:13])[C:7]1([H:14])[H:15])([H:8])([H:9])[H:10]>>[C:1]([C@:2]1([O:3][H:11])[C:4]2([O:5]1)[C:6]([H:12])([H:13])[C:7]2([H:14])[H:15])([H:8])([H:9])[H:10]"
C        1.78359115       0.31150095      -0.73203109
C        0.86705287      -0.53046259       0.07079615
O        1.23041591      -1.74905930       0.32370178
C       -0.45221127      -0.10195809       0.51416202
O       -0.09069489      -0.49919754       1.76819951
C       -1.75540193      -0.28845714      -0.19210314
C       -1.26072543       1.09588289       0.17360874
H        2.49219219      -0.29893579      -1.28871640
H        1.24576764       0.94672423      -1.43395874
H        2.33600289       0.95150435      -0.04055533
H        0.56345355      -1.88898777       1.26103650
H       -2.53929128      -0.71352388       0.42155858
H       -1.74760631      -0.57784902      -1.23617436
H       -0.93974003       1.75512456      -0.62328334
H       -1.73280506       1.58769413       1.01375911
15
Frame=10 idx=009116 GeodesicLength=0.8732563804661627 rxn_smarts="[C:1]([C:2](=[O:3])[C:4]1([O:5][H:11])[C:6]([H:12])([H:13])[C:7]1([H:14])[H:15])([H:8])([H:9])[H:10]>>[C:1]([C@:2]1([O:3][H:11])[C:4]2([O:5]1)[C:6]([H:12])([H:13])[C:7]2([H:14])[H:15])([H:8])([H:9])[H:10]"
C        1.78422433       0.31010809      -0.73388128
C        0.87207404      -0.52788186       0.08011082
O        1.23462196      -1.74683513       0.33544086
C       -0.45269793      -0.09912644       0.50612941
O       -0.08390975      -0.49834153       1.76043537
C       -1.75259946      -0.28974950      -0.20109440
C       -1.26824286       1.09536347       0.17573062
H        2.46473543      -0.30646853      -1.31838644
H        1.24437544       0.96601443      -1.41448346
H        2.37055736       0.92603710      -0.04864020
H        0.55368329      -1.87199115       1.29220101
H       -2.53381052      -0.72477440       0.40892490
H       -1.73822585      -0.57281708      -1.24679605
H       -0.94962720       1.76327516      -0.61465910
H       -1.74515829       1.57718740       1.01896795
15
Frame=11 idx=009116 GeodesicLength=0.9601808198214017 rxn_smarts="[C:1]([C:2](=[O:3])[C:4]1([O:5][H:11])[C:6]([H:12])([H:13])[C:7]1([H:14])[H:15])([H:8])([H:9])[H:10]>>[C:1]([C@:2]1([O:3][H:11])[C:4]2([O:5]1)[C:6]([H:12])([H:13])[C:7]2([H:14])[H:15])([H:8])([H:9])[H:10]"
C        1.78496927       0.30889585      -0.73549127
C        0.87719106      -0.52516591       0.08951458
O        1.23901639      -1.74453454       0.34672457
C       -0.45294642      -0.09628740       0.49815447
O       -0.07690518      -0.49682367       1.75293262
C       -1.74963900      -0.29119458      -0.20984113
C       -1.27561928       1.09464387       0.17766629
H        2.43638410      -0.31300061      -1.34716414
H        1.24397503       0.98543081      -1.39423233
H        2.40467282       0.89989254      -0.05780736
H        0.54263704      -1.85535053       1.32247025
H       -2.52801767      -0.73597997       0.39668086
H       -1.72883974      -0.56815312      -1.25703262
H       -0.95964370       1.77097874      -0.60638841
H       -1.75723472       1.56664853       1.02381363
15
Frame=12 idx=009116 GeodesicLength=1.0470301935709692 rxn_smarts="[C:1]([C:2](=[O:3])[C:4]1([O:5][H:11])[C:6]([H:12])([H:13])[C:7]1([H:14])[H:15])([H:8])([H:9])[H:10]>>[C:1]([C@:2]1([O:3][H:11])[C:4]2([O:5]1)[C:6]([H:12])([H:13])[C:7]2([H:14])[H:15])([H:8])([H:9])[H:10]"
C        1.78580299       0.30783252      -0.73687517
C        0.88243329      -0.52227767       0.09908710
O        1.24361735      -1.74211948       0.35766123
C       -0.45296227      -0.09342082       0.49025712
O       -0.06974300      -0.49462336       1.74574123
C       -1.74647003      -0.29280896      -0.21842235
C       -1.28287985       1.09371130       0.17942226
H        2.40678866      -0.31850806      -1.37529934
H        1.24459055       1.00513738      -1.37295900
H        2.43857811       0.87279441      -0.06822838
H        0.53037019      -1.83894368       1.35204717
H       -2.52187703      -0.74721990       0.38469409
H       -1.71931992      -0.56382356      -1.26699547
H       -0.96978221       1.77825680      -0.59843071
H       -1.76914683       1.55601306       1.02830021
15
Frame=13 idx=009116 GeodesicLength=1.1338225492745475 rxn_smarts="[C:1]([C:2](=[O:3])[C:4]1([O:5][H:11])[C:6]([H:12])([H:13])[C:7]1([H:14])[H:15])([H:8])([H:9])[H:10]>>[C:1]([C@:2]1([O:3][H:11])[C:4]2([O:5]1)[C:6]([H:12])([H:13])[C:7]2([H:14])[H:15])([H:8])([H:9])[H:10]"
C        1.78672525       0.30695024      -0.73803619
C        0.88773971      -0.51930971       0.10867199
O        1.24838475      -1.73967536       0.36807205
C       -0.45273990      -0.09057877       0.48238559
O       -0.06235264      -0.49187821       1.73874078
C       -1.74315444      -0.29456253      -0.22675969
C       -1.28994038       1.09259014       0.18099106
H        2.37645490      -0.32288764      -1.40237384
H        1.24619138       1.02481712      -1.35098436
H        2.47174543       0.84512977      -0.07974054
H        0.51688244      -1.82283424       1.38088302
H       -2.51543820      -0.75837843       0.37311831
H       -1.70984513      -0.55985049      -1.27658038
H       -0.97997596       1.78509164      -0.59083786
H       -1.78067723       1.54537646       1.03245007
15
Frame=14 idx=009116 GeodesicLength=1.2205707589103403 rxn_smarts="[C:1]([C:2](=[O:3])[C:4]1([O:5][H:11])[C:6]([H:12])([H:13])[C:7]1([H:14])[H:15])([H:8])([H:9])[H:10]>>[C:1]([C@:2]1([O:3][H:11])[C:4]2([O:5]1)[C:6]([H:12])([H:13])[C:7]2([H:14])[H:15])([H:8])([H:9])[H:10]"
C        1.78774882       0.30622877      -0.73898553
C        0.89313655      -0.51624411       0.11832886
O        1.25334218      -1.73718907       0.37805106
C       -0.45229221      -0.08774996       0.47455797
O       -0.05478099      -0.48857263       1.73198245
C       -1.73967548      -0.29647382      -0.23491583
C       -1.29683937       1.09126896       0.18236411
H        2.34510115      -0.32609226      -1.42866517
H        1.24883123       1.04464453      -1.32806758
H        2.50440854       0.81663290      -0.09245881
H        0.50223428      -1.80690019       1.40917965
H       -2.50870723      -0.76952238       0.36185778
H       -1.70033541      -0.55621927      -1.28588017
H       -0.99023268       1.79150045      -0.58360528
H       -1.79193936       1.53468809       1.03625650
15
Frame=15 idx=009116 GeodesicLength=1.3073006885167449 rxn_smarts="[C:1]([C:2](=[O:3])[C:4]1([O:5][H:11])[C:6]([H:12])([H:13])[C:7]1([H:14])[H:15])([H:8])([H:9])[H:10]>>[C:1]([C@:2]1([O:3][H:11])[C:4]2([O:5]1)[C:6]([H:12])([H:13])[C:7]2([H:14])[H:15])([H:8])([H:9])[H:10]"
C        1.78883320       0.30564280      -0.73974084
C        0.89865698      -0.51304118       0.12814612
O        1.25852504      -1.73461265       0.38771783
C       -0.45160955      -0.08491706       0.46678968
O       -0.04707577      -0.48469690       1.72548875
C       -1.73595629      -0.29856185      -0.24296645
C       -1.30358985       1.08974238       0.18354577
H        2.31233711      -0.32811716      -1.45436618
H        1.25254460       1.06477065      -1.30394201
H        2.53671083       0.78704772      -0.10659315
H        0.48643905      -1.79101997       1.43710563
H       -2.50161339      -0.78073679       0.35076536
H       -1.69063081      -0.55290908      -1.29497706
H       -1.00054066       1.79751813      -0.57667667
H       -1.80303049       1.52389096       1.03970322
15
Frame=16 idx=009116 GeodesicLength=1.3939888020251108 rxn_smarts="[C:1]([C:2](=[O:3])[C:4]1([O:5][H:11])[C:6]([H:12])([H:13])[C:7]1([H:14])[H:15])([H:8])([H:9])[H:10]>>[C:1]([C@:2]1([O:3][H:11])[C:4]2([O:5]1)[C:6]([H:12])([H:13])[C:7]2([H:14])[H:15])([H:8])([H:9])[H:10]"
C        1.78999590       0.30522107      -0.74029151
C        0.90422692      -0.50983034       0.13792555
O        1.26389387      -1.73206137       0.39686343
C       -0.45069877      -0.08214550       0.45902716
O       -0.03915834      -0.48038551       1.71914875
C       -1.73209189      -0.30079137      -0.25081939
C       -1.31010643       1.08802402       0.18452356
H        2.27879149      -0.32880172      -1.47905548
H        1.25728490       1.08480976      -1.27897883
H        2.56809655       0.75681736      -0.12189404
H        0.46951873      -1.77523327       1.46459037
H       -2.49425139      -0.79186276       0.34003767
H       -1.68096664      -0.54994493      -1.30377033
H       -1.01082834       1.80309258      -0.57013471
H       -1.81370654       1.51309198       1.04282780
