13
Frame=0 idx=010135 GeodesicLength=0.0 rxn_smarts="[O:1]=[C:2]1[N:3]([H:8])[C:4]([H:9])([H:10])[C@@:5]2([H:11])[C:6]([H:12])([H:13])[N:7]12>>[H:8][H:13].[O:1]=[C:2]=[N:3][C:4]([C@@:5]1([H:11])[C:6]([H:12])=[N:7]1)([H:9])[H:10]"
O        1.79742647       2.15560080      -0.15935027
C        1.31145957       1.11506112       0.00983229
N        1.36820804      -0.11054816       0.38855362
C        0.59049465      -1.02285981      -0.43834715
C       -0.75148444      -0.32204811      -0.71306374
C       -1.34054300       0.40873925       0.37731228
N       -0.63585632       1.12967970      -0.47298359
H        0.28216451      -0.06328018       1.38699560
H        0.47741795      -1.96887108       0.09226998
H        1.10102114      -1.21263160      -1.38428634
H       -1.33220955      -0.66985247      -1.56066569
H       -2.27538220       0.57114461       0.89601228
H       -0.59271688      -0.01013401       1.57772067
13
Frame=1 idx=010135 GeodesicLength=0.07583701778553238 rxn_smarts="[O:1]=[C:2]1[N:3]([H:8])[C:4]([H:9])([H:10])[C@@:5]2([H:11])[C:6]([H:12])([H:13])[N:7]12>>[H:8][H:13].[O:1]=[C:2]=[N:3][C:4]([C@@:5]1([H:11])[C:6]([H:12])=[N:7]1)([H:9])[H:10]"
O        1.79953531       2.16085906      -0.14175114
C        1.30840012       1.11747007       0.00174861
N        1.36626540      -0.10834475       0.38217942
C        0.59060751      -1.02375641      -0.44367982
C       -0.75303671      -0.32613519      -0.71418720
C       -1.33869657       0.40935668       0.37695491
N       -0.63854920       1.12790521      -0.48297265
H        0.29891596      -0.06734867       1.40615331
H        0.47777472      -1.97005996       0.08663423
H        1.09893168      -1.21594294      -1.39036591
H       -1.33704960      -0.67823688      -1.55757120
H       -2.27948740       0.58024605       0.88195876
H       -0.59361122      -0.00601227       1.59489867
13
Frame=2 idx=010135 GeodesicLength=0.15163279633193427 rxn_smarts="[O:1]=[C:2]1[N:3]([H:8])[C:4]([H:9])([H:10])[C@@:5]2([H:11])[C:6]([H:12])([H:13])[N:7]12>>[H:8][H:13].[O:1]=[C:2]=[N:3][C:4]([C@@:5]1([H:11])[C:6]([H:12])=[N:7]1)([H:9])[H:10]"
O        1.80139545       2.16558579      -0.12422985
C        1.30523228       1.11994246      -0.00616009
N        1.36406564      -0.10610440       0.37599553
C        0.59067445      -1.02459010      -0.44905729
C       -0.75461569      -0.33016125      -0.71541408
C       -1.33685193       0.41005482       0.37649805
N       -0.64134807       1.12614169      -0.49311926
H        0.31628649      -0.07154742       1.42550590
H        0.47803658      -1.97120285       0.08091725
H        1.09692488      -1.21908738      -1.39642889
H       -1.34189679      -0.68660442      -1.55451577
H       -2.28337469       0.58913814       0.86776736
H       -0.59452860      -0.00156509       1.61224113
13
Frame=3 idx=010135 GeodesicLength=0.2273959167999757 rxn_smarts="[O:1]=[C:2]1[N:3]([H:8])[C:4]([H:9])([H:10])[C@@:5]2([H:11])[C:6]([H:12])([H:13])[N:7]12>>[H:8][H:13].[O:1]=[C:2]=[N:3][C:4]([C@@:5]1([H:11])[C:6]([H:12])=[N:7]1)([H:9])[H:10]"
O        1.80303522       2.16977493      -0.10689022
C        1.30194885       1.12247959      -0.01384916
N        1.36159922      -0.10383010       0.37002922
C        0.59069627      -1.02535360      -0.45447290
C       -0.75621820      -0.33411709      -0.71674819
C       -1.33502560       0.41082787       0.37593692
N       -0.64425228       1.12439419      -0.50340236
H        0.33430118      -0.07589582       1.44506492
H        0.47819869      -1.97229807       0.07511289
H        1.09501264      -1.22204798      -1.40246614
H       -1.34673366      -0.69493269      -1.55151765
H       -2.28706231       0.59780413       0.85344945
H       -0.59550001       0.00319465       1.62975320
13
Frame=4 idx=010135 GeodesicLength=0.30313302143756915 rxn_smarts="[O:1]=[C:2]1[N:3]([H:8])[C:4]([H:9])([H:10])[C@@:5]2([H:11])[C:6]([H:12])([H:13])[N:7]12>>[H:8][H:13].[O:1]=[C:2]=[N:3][C:4]([C@@:5]1([H:11])[C:6]([H:12])=[N:7]1)([H:9])[H:10]"
O        1.80448630       2.17342873      -0.08983125
C        1.29854234       1.12508159      -0.02127835
N        1.35885714      -0.10152497       0.36430733
C        0.59067293      -1.02604042      -0.45991888
C       -0.75784184      -0.33799419      -0.71819367
C       -1.33323499       0.41166996       0.37526633
N       -0.64726116       1.12266768      -0.51380150
H        0.35299033      -0.08041415       1.46483961
H        0.47825520      -1.97334458       0.06921673
H        1.09320555      -1.22481053      -1.40846690
H       -1.35154266      -0.70319945      -1.54859625
H       -2.29057210       0.60622846       0.83901628
H       -0.59655704       0.00825186       1.64744050
13
Frame=5 idx=010135 GeodesicLength=0.378843547262803 rxn_smarts="[O:1]=[C:2]1[N:3]([H:8])[C:4]([H:9])([H:10])[C@@:5]2([H:11])[C:6]([H:12])([H:13])[N:7]12>>[H:8][H:13].[O:1]=[C:2]=[N:3][C:4]([C@@:5]1([H:11])[C:6]([H:12])=[N:7]1)([H:9])[H:10]"
O        1.80577712       2.17656258      -0.07311864
C        1.29500607       1.12774465      -0.02841940
N        1.35583175      -0.09919442       0.35884943
C        0.59060262      -1.02664803      -0.46539006
C       -0.75948618      -0.34178819      -0.71975505
C       -1.33149671       0.41257453       0.37447967
N       -0.65037357       1.12096423      -0.52430215
H        0.37238965      -0.08511386       1.48483722
H        0.47819923      -1.97434272       0.06322696
H        1.09151074      -1.22736786      -1.41442407
H       -1.35631206      -0.71138982      -1.54577022
H       -2.29392045       0.61439953       0.82447821
H       -0.59772821       0.01359939       1.66530810
13
Frame=6 idx=010135 GeodesicLength=0.4545373503260992 rxn_smarts="[O:1]=[C:2]1[N:3]([H:8])[C:4]([H:9])([H:10])[C@@:5]2([H:11])[C:6]([H:12])([H:13])[N:7]12>>[H:8][H:13].[O:1]=[C:2]=[N:3][C:4]([C@@:5]1([H:11])[C:6]([H:12])=[N:7]1)([H:9])[H:10]"
O        1.80693514       2.17919837      -0.05680871
C        1.29133374       1.13046550      -0.03525151
N        1.35251775      -0.09684222       0.35367067
C        0.59048361      -1.02717412      -0.47087865
C       -0.76115126      -0.34549538      -0.72143641
C       -1.32982682       0.41353674       0.37357060
N       -0.65358788       1.11928606      -0.53489002
H        0.39254536      -0.09001107       1.50506070
H        0.47802426      -1.97529250       0.05714456
H        1.08993150      -1.22971842      -1.42032846
H       -1.36102889      -0.71948885      -1.54305652
H       -2.29712997       0.62231052       0.80984200
H       -0.59904653       0.01922538       1.68336175
13
Frame=7 idx=010135 GeodesicLength=0.5302310011020351 rxn_smarts="[O:1]=[C:2]1[N:3]([H:8])[C:4]([H:9])([H:10])[C@@:5]2([H:11])[C:6]([H:12])([H:13])[N:7]12>>[H:8][H:13].[O:1]=[C:2]=[N:3][C:4]([C@@:5]1([H:11])[C:6]([H:12])=[N:7]1)([H:9])[H:10]"
O        1.80798677       2.18136091      -0.04093799
C        1.28751881       1.13323829      -0.04175896
N        1.34890756      -0.09447331       0.34878595
C        0.59031181      -1.02761841      -0.47637893
C       -0.76283917      -0.34911390      -0.72324277
C       -1.32824255       0.41455048       0.37253161
N       -0.65690385       1.11763429      -0.54555517
H        0.41351927      -0.09511595       1.52550889
H        0.47772215      -1.97619494       0.05097327
H        1.08847133      -1.23186154      -1.42617203
H       -1.36568508      -0.72748615      -1.54047350
H       -2.30022259       0.62995571       0.79511269
H       -0.60054448       0.02512451       1.70160693
13
Frame=8 idx=010135 GeodesicLength=0.6059229884825632 rxn_smarts="[O:1]=[C:2]1[N:3]([H:8])[C:4]([H:9])([H:10])[C@@:5]2([H:11])[C:6]([H:12])([H:13])[N:7]12>>[H:8][H:13].[O:1]=[C:2]=[N:3][C:4]([C@@:5]1([H:11])[C:6]([H:12])=[N:7]1)([H:9])[H:10]"
O        1.80895273       2.18308083      -0.02552281
C        1.28355645       1.13605714      -0.04793617
N        1.34499836      -0.09209312       0.34419994
C        0.59008384      -1.02798181      -0.48188490
C       -0.76455181      -0.35264330      -0.72517843
C       -1.32675851       0.41561081       0.37135538
N       -0.66031961       1.11600917      -0.55629041
H        0.43537199      -0.10043677       1.54618027
H        0.47728518      -1.97705087       0.04471893
H        1.08712988      -1.23380409      -1.43194878
H       -1.37027364      -0.73537408      -1.53803673
H       -2.30321826       0.63733308       0.78029407
H       -0.60225661       0.03129302       1.72004963
13
Frame=9 idx=010135 GeodesicLength=0.6816051379441784 rxn_smarts="[O:1]=[C:2]1[N:3]([H:8])[C:4]([H:9])([H:10])[C@@:5]2([H:11])[C:6]([H:12])([H:13])[N:7]12>>[H:8][H:13].[O:1]=[C:2]=[N:3][C:4]([C@@:5]1([H:11])[C:6]([H:12])=[N:7]1)([H:9])[H:10]"
O        1.80984857       2.18437337      -0.01057705
C        1.27944063       1.13892046      -0.05377914
N        1.34077727      -0.08969754       0.33992798
C        0.58979571      -1.02826242      -0.48738786
C       -0.76629135      -0.35608245      -0.72724941
C       -1.32539218       0.41671884       0.37002976
N       -0.66383756       1.11441214      -0.56709668
H        0.45817911      -0.10600340       1.56706715
H        0.47670575      -1.97785688       0.03838869
H        1.08590865      -1.23554662      -1.43764528
H       -1.37478954      -0.74314974      -1.53576151
H       -2.30613496       0.64444313       0.76538955
H       -0.60421009       0.03773110       1.73869381
13
Frame=10 idx=010135 GeodesicLength=0.7573048376137883 rxn_smarts="[O:1]=[C:2]1[N:3]([H:8])[C:4]([H:9])([H:10])[C@@:5]2([H:11])[C:6]([H:12])([H:13])[N:7]12>>[H:8][H:13].[O:1]=[C:2]=[N:3][C:4]([C@@:5]1([H:11])[C:6]([H:12])=[N:7]1)([H:9])[H:10]"
O        1.81069257       2.18527206       0.00389860
C        1.27516482       1.14182165      -0.05928427
N        1.33624425      -0.08729424       0.33596872
C        0.58944181      -1.02846358      -0.49288167
C       -0.76806177      -0.35943225      -0.72945812
C       -1.32416011       0.41786739       0.36854901
N       -0.66745511       1.11284268      -0.57796456
H        0.48203531      -0.11181806       1.58815950
H        0.47597545      -1.97861556       0.03199172
H        1.08480394      -1.23709966      -1.44325617
H       -1.37922701      -0.75080521      -1.53366357
H       -2.30899770       0.65128729       0.75039058
H       -0.60645644       0.04443748       1.75755022
13
Frame=11 idx=010135 GeodesicLength=0.8330321794097124 rxn_smarts="[O:1]=[C:2]1[N:3]([H:8])[C:4]([H:9])([H:10])[C@@:5]2([H:11])[C:6]([H:12])([H:13])[N:7]12>>[H:8][H:13].[O:1]=[C:2]=[N:3][C:4]([C@@:5]1([H:11])[C:6]([H:12])=[N:7]1)([H:9])[H:10]"
O        1.81149979       2.18580292       0.01790731
C        1.27072111       1.14475617      -0.06444801
N        1.33139175      -0.08488558       0.33232949
C        0.58901621      -1.02858704      -0.49835798
C       -0.76986784      -0.36269441      -0.73180890
C       -1.32308095       0.41905329       0.36690356
N       -0.67117231       1.11130003      -0.58889096
H        0.50704927      -0.11789689       1.60943889
H        0.47508493      -1.97932725       0.02553719
H        1.08381497      -1.23847022      -1.44877012
H       -1.38358157      -0.75833667      -1.53175886
H       -2.31183248       0.65787165       0.73529051
H       -0.60904287       0.05141400       1.77662789
13
Frame=12 idx=010135 GeodesicLength=0.9087805985853552 rxn_smarts="[O:1]=[C:2]1[N:3]([H:8])[C:4]([H:9])([H:10])[C@@:5]2([H:11])[C:6]([H:12])([H:13])[N:7]12>>[H:8][H:13].[O:1]=[C:2]=[N:3][C:4]([C@@:5]1([H:11])[C:6]([H:12])=[N:7]1)([H:9])[H:10]"
O        1.81227935       2.18598994       0.03146450
C        1.26610217       1.14772011      -0.06927033
N        1.32621214      -0.08247262       0.32901460
C        0.58851256      -1.02863500      -0.50380877
C       -0.77171421      -0.36587059      -0.73430622
C       -1.32217203       0.42027469       0.36508296
N       -0.67498947       1.10978371      -0.59987687
H        0.53333756      -0.12426103       1.63088697
H        0.47402516      -1.97999155       0.01903638
H        1.08293917      -1.23966660      -1.45417626
H       -1.38785105      -0.76574338      -1.53006111
H       -2.31466457       0.66420411       0.72007843
H       -0.61201679       0.05866823       1.79593571
13
Frame=13 idx=010135 GeodesicLength=0.9845369016190049 rxn_smarts="[O:1]=[C:2]1[N:3]([H:8])[C:4]([H:9])([H:10])[C@@:5]2([H:11])[C:6]([H:12])([H:13])[N:7]12>>[H:8][H:13].[O:1]=[C:2]=[N:3][C:4]([C@@:5]1([H:11])[C:6]([H:12])=[N:7]1)([H:9])[H:10]"
O        1.81304144       2.18585554       0.04458334
C        1.26129836       1.15071030      -0.07374756
N        1.32069692      -0.08005759       0.32602928
C        0.58792437      -1.02860904      -0.50922443
C       -0.77360628      -0.36896259      -0.73695380
C       -1.32145287       0.42152904       0.36307738
N       -0.67890658       1.10829322      -0.61092094
H        0.56102956      -0.13093225       1.65247821
H        0.47278626      -1.98060848       0.01250098
H        1.08217515      -1.24069703      -1.45946246
H       -1.39203155      -0.77302282      -1.52858515
H       -2.31752005       0.67029248       0.70474043
H       -0.61543473       0.06620922       1.81548472
13
Frame=14 idx=010135 GeodesicLength=1.0603039443334676 rxn_smarts="[O:1]=[C:2]1[N:3]([H:8])[C:4]([H:9])([H:10])[C@@:5]2([H:11])[C:6]([H:12])([H:13])[N:7]12>>[H:8][H:13].[O:1]=[C:2]=[N:3][C:4]([C@@:5]1([H:11])[C:6]([H:12])=[N:7]1)([H:9])[H:10]"
O        1.81379605       2.18541757       0.05727875
C        1.25629799       1.15372495      -0.07787242
N        1.31483304      -0.07763986       0.32338358
C        0.58724365      -1.02851032      -0.51459332
C       -0.77555004      -0.37197155      -0.73975566
C       -1.32094562       0.42281493       0.36087532
N       -0.68292547       1.10682888      -0.62202420
H        0.59028682      -0.13794197       1.67417900
H        0.47135662      -1.98117695       0.00594493
H        1.08152175      -1.24156709      -1.46461226
H       -1.39612056      -0.78017408      -1.52734681
H       -2.32042926       0.67614531       0.68925578
H       -0.61936499       0.07405019       1.83528729
13
Frame=15 idx=010135 GeodesicLength=1.1360482050345677 rxn_smarts="[O:1]=[C:2]1[N:3]([H:8])[C:4]([H:9])([H:10])[C@@:5]2([H:11])[C:6]([H:12])([H:13])[N:7]12>>[H:8][H:13].[O:1]=[C:2]=[N:3][C:4]([C@@:5]1([H:11])[C:6]([H:12])=[N:7]1)([H:9])[H:10]"
O        1.81455312       2.18469195       0.06956571
C        1.25108779       1.15676228      -0.08163422
N        1.30860722      -0.07522066       0.32108761
C        0.58646277      -1.02833983      -0.51990343
C       -0.77755164      -0.37489900      -0.74271571
C       -1.32067312       0.42412982       0.35846585
N       -0.68704751       1.10539068      -0.63318614
H        0.62127249      -0.14532107       1.69595175
H        0.46972476      -1.98169654      -0.00061797
H        1.08097926      -1.24228237      -1.46960960
H       -1.40011451      -0.78719550      -1.52636243
H       -2.32342426       0.68177154       0.67360193
H       -0.62387636       0.08220870       1.85535665
13
Frame=16 idx=010135 GeodesicLength=1.211745791757986 rxn_smarts="[O:1]=[C:2]1[N:3]([H:8])[C:4]([H:9])([H:10])[C@@:5]2([H:11])[C:6]([H:12])([H:13])[N:7]12>>[H:8][H:13].[O:1]=[C:2]=[N:3][C:4]([C@@:5]1([H:11])[C:6]([H:12])=[N:7]1)([H:9])[H:10]"
O        1.81532212       2.18369239       0.08145993
C        1.24565152       1.15982142      -0.08501844
N        1.30200029      -0.07279937       0.31915821
C        0.58557233      -1.02809790      -0.52513902
C       -0.77961807      -0.37774572      -0.74583820
C       -1.32066212       0.42547248       0.35583567
N       -0.69127517       1.10397935      -0.64440833
H        0.65418335      -0.15311102       1.71774514
H        0.46787597      -1.98216607      -0.00717088
H        1.08054946      -1.24284657      -1.47443233
H       -1.40400909      -0.79408561      -1.52565026
H       -2.32653957       0.68718058       0.65775139
H       -0.62905103       0.09070605       1.87570712
