15
Frame=0 idx=008911 GeodesicLength=0.0 rxn_smarts="[C:1]([n:2]1[c:3]([H:11])[c:4]([H:12])[c:5]([H:13])[c:6]1[N:7]([H:14])[H:15])([H:8])([H:9])[H:10]>>[C:1]([N+:2]1([H:15])[C-:3]([H:11])[C:4]([H:12])=[C:5]([H:13])[C:6]1=[N:7][H:14])([H:8])([H:9])[H:10]"
C       -1.16591933      -1.10231268       0.61402965
N       -0.33031990      -0.44461743      -0.41173593
C        1.01819603      -0.97688227      -0.40599209
C        1.82451430      -0.01411303       0.07871704
C        1.10703094       1.22517524       0.29981522
C       -0.15856521       0.99845766      -0.15853073
N       -1.24689712       1.47136486      -0.74849031
H       -2.12089850      -0.58031365       0.66692252
H       -1.33170422      -2.13800648       0.31881679
H       -0.66095422      -1.07271148       1.58068408
H        1.19074778      -2.02365224      -0.59212142
H        2.88540936      -0.14431474       0.24512491
H        1.54713035       2.18345383       0.51741396
H       -1.42117399       2.46022390      -0.80953838
H       -1.13659621       0.15824847      -1.19511536
15
Frame=1 idx=008911 GeodesicLength=0.05658835658754588 rxn_smarts="[C:1]([n:2]1[c:3]([H:11])[c:4]([H:12])[c:5]([H:13])[c:6]1[N:7]([H:14])[H:15])([H:8])([H:9])[H:10]>>[C:1]([N+:2]1([H:15])[C-:3]([H:11])[C:4]([H:12])=[C:5]([H:13])[C:6]1=[N:7][H:14])([H:8])([H:9])[H:10]"
C       -1.17374337      -1.10752372       0.60905866
N       -0.32566341      -0.44510167      -0.40280745
C        1.02081500      -0.97734444      -0.39425935
C        1.82956385      -0.01167285       0.08261083
C        1.11531983       1.23014384       0.28484157
C       -0.16057711       0.99697987      -0.14333074
N       -1.24658023       1.47171757      -0.74000000
H       -2.12983136      -0.58658668       0.65082415
H       -1.33380612      -2.14264395       0.30876883
H       -0.68438419      -1.08136191       1.58375272
H        1.19315222      -2.02571124      -0.57159846
H        2.89126613      -0.14044077       0.24436424
H        1.55861650       2.19381742       0.47058879
H       -1.42568524       2.46133786      -0.76950826
H       -1.12846250       0.16439067      -1.21330552
15
Frame=2 idx=008911 GeodesicLength=0.1130694876860112 rxn_smarts="[C:1]([n:2]1[c:3]([H:11])[c:4]([H:12])[c:5]([H:13])[c:6]1[N:7]([H:14])[H:15])([H:8])([H:9])[H:10]>>[C:1]([N+:2]1([H:15])[C-:3]([H:11])[C:4]([H:12])=[C:5]([H:13])[C:6]1=[N:7][H:14])([H:8])([H:9])[H:10]"
C       -1.18155459      -1.11267813       0.60397777
N       -0.32099726      -0.44549303      -0.39360156
C        1.02345653      -0.97773082      -0.38227984
C        1.83463074      -0.00912828       0.08661036
C        1.12342783       1.23494055       0.26941632
C       -0.16233028       0.99555416      -0.12778112
N       -1.24607059       1.47226273      -0.73096123
H       -2.13853385      -0.59264588       0.63459487
H       -1.33587854      -2.14713170       0.29848607
H       -0.70806665      -1.09016729       1.58651910
H        1.19554643      -2.02765070      -0.55064945
H        2.89718280      -0.13634866       0.24334958
H        1.56932849       2.20321269       0.42314113
H       -1.43021708       2.46158228      -0.72959054
H       -1.11992397       0.17142206      -1.23123146
15
Frame=3 idx=008911 GeodesicLength=0.1694403194853516 rxn_smarts="[C:1]([n:2]1[c:3]([H:11])[c:4]([H:12])[c:5]([H:13])[c:6]1[N:7]([H:14])[H:15])([H:8])([H:9])[H:10]>>[C:1]([N+:2]1([H:15])[C-:3]([H:11])[C:4]([H:12])=[C:5]([H:13])[C:6]1=[N:7][H:14])([H:8])([H:9])[H:10]"
C       -1.18932603      -1.11776409       0.59880181
N       -0.31632741      -0.44580857      -0.38413488
C        1.02612189      -0.97804377      -0.37009134
C        1.83972670      -0.00644461       0.09057524
C        1.13128983       1.23950371       0.25365469
C       -0.16380762       0.99417465      -0.11195344
N       -1.24539295       1.47298035      -0.72138510
H       -2.14697519      -0.59847230       0.61826775
H       -1.33789260      -2.15146467       0.28801330
H       -0.73194769      -1.09908405       1.58897483
H        1.19793557      -2.02947564      -0.52926077
H        2.90313861      -0.13204459       0.24209161
H        1.57918412       2.21158242       0.37521680
H       -1.43468636       2.46101831      -0.68988128
H       -1.11104087       0.17934286      -1.24888921
15
Frame=4 idx=008911 GeodesicLength=0.22570324035088185 rxn_smarts="[C:1]([n:2]1[c:3]([H:11])[c:4]([H:12])[c:5]([H:13])[c:6]1[N:7]([H:14])[H:15])([H:8])([H:9])[H:10]>>[C:1]([N+:2]1([H:15])[C-:3]([H:11])[C:4]([H:12])=[C:5]([H:13])[C:6]1=[N:7][H:14])([H:8])([H:9])[H:10]"
C       -1.19703808      -1.12278474       0.59356718
N       -0.31167134      -0.44607144      -0.37440552
C        1.02880419      -0.97828653      -0.35772655
C        1.84486127      -0.00358648       0.09434706
C        1.13882525       1.24376740       0.23774771
C       -0.16501359       0.99282869      -0.09589310
N       -1.24459199       1.47384152      -0.71126432
H       -2.15513689      -0.60406698       0.60190248
H       -1.33982434      -2.15565230       0.27741149
H       -0.75597431      -1.10808651       1.59113457
H        1.20032087      -2.03118931      -0.50741587
H        2.90914623      -0.12747538       0.24038728
H        1.58805625       2.21886643       0.32717582
H       -1.43886860       2.45975257      -0.65071050
H       -1.10189493       0.18814306      -1.26625772
15
Frame=5 idx=008911 GeodesicLength=0.2818581421029948 rxn_smarts="[C:1]([n:2]1[c:3]([H:11])[c:4]([H:12])[c:5]([H:13])[c:6]1[N:7]([H:14])[H:15])([H:8])([H:9])[H:10]>>[C:1]([N+:2]1([H:15])[C-:3]([H:11])[C:4]([H:12])=[C:5]([H:13])[C:6]1=[N:7][H:14])([H:8])([H:9])[H:10]"
C       -1.20469137      -1.12768444       0.58826172
N       -0.30700425      -0.44631220      -0.36445047
C        1.03151999      -0.97849707      -0.34516078
C        1.85006946      -0.00055412       0.09780924
C        1.14601285       1.24768568       0.22180778
C       -0.16589586       0.99150766      -0.07975276
N       -1.24359921       1.47481800      -0.70079423
H       -2.16300681      -0.60935402       0.58542894
H       -1.34167924      -2.15966176       0.26674793
H       -0.78016584      -1.11704673       1.59298402
H        1.20270809      -2.03284113      -0.48496604
H        2.91523858      -0.12263996       0.23810671
H        1.59591206       2.22503740       0.27918600
H       -1.44295483       2.45776536      -0.61177912
H       -1.09246361       0.19777732      -1.28342894
15
Frame=6 idx=008911 GeodesicLength=0.3378491543383194 rxn_smarts="[C:1]([n:2]1[c:3]([H:11])[c:4]([H:12])[c:5]([H:13])[c:6]1[N:7]([H:14])[H:15])([H:8])([H:9])[H:10]>>[C:1]([N+:2]1([H:15])[C-:3]([H:11])[C:4]([H:12])=[C:5]([H:13])[C:6]1=[N:7][H:14])([H:8])([H:9])[H:10]"
C       -1.21218311      -1.13258031       0.58308707
N       -0.30244821      -0.44656472      -0.35419777
C        1.03417902      -0.97862055      -0.33263112
C        1.85529929       0.00273289       0.10055466
C        1.15262297       1.25117785       0.20623444
C       -0.16661468       0.99017616      -0.06344370
N       -1.24269361       1.47583286      -0.68968705
H       -2.17050521      -0.61449266       0.56926034
H       -1.34333882      -2.16360396       0.25620548
H       -0.80421937      -1.12608957       1.59463522
H        1.20504290      -2.03433588      -0.46232266
H        2.92136750      -0.11746043       0.23491905
H        1.60236721       2.23007351       0.23249448
H       -1.44577230       2.45554760      -0.57493139
H       -1.08310358       0.20820722      -1.30017706
15
Frame=7 idx=008911 GeodesicLength=0.39372872954129157 rxn_smarts="[C:1]([n:2]1[c:3]([H:11])[c:4]([H:12])[c:5]([H:13])[c:6]1[N:7]([H:14])[H:15])([H:8])([H:9])[H:10]>>[C:1]([N+:2]1([H:15])[C-:3]([H:11])[C:4]([H:12])=[C:5]([H:13])[C:6]1=[N:7][H:14])([H:8])([H:9])[H:10]"
C       -1.21956155      -1.13731579       0.57787914
N       -0.29788008      -0.44683557      -0.34376969
C        1.03688076      -0.97872872      -0.32002214
C        1.86062137       0.00619043       0.10267577
C        1.15884467       1.25429450       0.19083909
C       -0.16701282       0.98884936      -0.04723051
N       -1.24162630       1.47689562      -0.67839146
H       -2.17766219      -0.61928396       0.55303837
H       -1.34486545      -2.16735080       0.24571850
H       -0.82831694      -1.13496569       1.59598012
H        1.20739293      -2.03577819      -0.43907177
H        2.92750244      -0.11214612       0.23130654
H        1.60775613       2.23404340       0.18617063
H       -1.44850213       2.45272644      -0.53831990
H       -1.07357085       0.21940508      -1.31680269
15
Frame=8 idx=008911 GeodesicLength=0.44948156067425615 rxn_smarts="[C:1]([n:2]1[c:3]([H:11])[c:4]([H:12])[c:5]([H:13])[c:6]1[N:7]([H:14])[H:15])([H:8])([H:9])[H:10]>>[C:1]([N+:2]1([H:15])[C-:3]([H:11])[C:4]([H:12])=[C:5]([H:13])[C:6]1=[N:7][H:14])([H:8])([H:9])[H:10]"
C       -1.22675752      -1.14198125       0.57278656
N       -0.29338411      -0.44715761      -0.33313068
C        1.03956481      -0.97879287      -0.30752525
C        1.86600108       0.00984499       0.10390414
C        1.16455752       1.25700751       0.17585163
C       -0.16719676       0.98750500      -0.03109480
N       -1.24057693       1.47794921      -0.66678661
H       -2.18442478      -0.62384289       0.53705988
H       -1.34619560      -2.17099602       0.23543615
H       -0.85222711      -1.14377038       1.59710866
H        1.20971007      -2.03711113      -0.41553085
H        2.93360044      -0.10667347       0.22715948
H        1.61187858       2.23700727       0.14107999
H       -1.45042550       2.44968356      -0.50312314
H       -1.06412420       0.23132808      -1.33319517
15
Frame=9 idx=008911 GeodesicLength=0.5051209020751956 rxn_smarts="[C:1]([n:2]1[c:3]([H:11])[c:4]([H:12])[c:5]([H:13])[c:6]1[N:7]([H:14])[H:15])([H:8])([H:9])[H:10]>>[C:1]([N+:2]1([H:15])[C-:3]([H:11])[C:4]([H:12])=[C:5]([H:13])[C:6]1=[N:7][H:14])([H:8])([H:9])[H:10]"
C       -1.23378854      -1.14656441       0.56781558
N       -0.28895013      -0.44755727      -0.32228101
C        1.04224072      -0.97883771      -0.29512621
C        1.87144090       0.01365519       0.10423061
C        1.16976652       1.25932117       0.16135481
C       -0.16717568       0.98612541      -0.01508871
N       -1.23952799       1.47895472      -0.65498816
H       -2.19081674      -0.62816036       0.52128986
H       -1.34733744      -2.17453976       0.22539854
H       -0.87598222      -1.15245068       1.59804020
H        1.21200671      -2.03835191      -0.39161763
H        2.93971431      -0.10102957       0.22224990
H        1.61476227       2.23904073       0.09743657
H       -1.45158833       2.44646209      -0.46929050
H       -1.05476434       0.24393237      -1.34942385
15
Frame=10 idx=008911 GeodesicLength=0.5606535084152549 rxn_smarts="[C:1]([n:2]1[c:3]([H:11])[c:4]([H:12])[c:5]([H:13])[c:6]1[N:7]([H:14])[H:15])([H:8])([H:9])[H:10]>>[C:1]([N+:2]1([H:15])[C-:3]([H:11])[C:4]([H:12])=[C:5]([H:13])[C:6]1=[N:7][H:14])([H:8])([H:9])[H:10]"
C       -1.24065921      -1.15106528       0.56296419
N       -0.28456833      -0.44805040      -0.31122072
C        1.04491589      -0.97887637      -0.28282928
C        1.87693010       0.01758239       0.10366147
C        1.17449790       1.26125737       0.14736949
C       -0.16695805       0.98470189       0.00075691
N       -1.23846926       1.47988875      -0.64306799
H       -2.19684644      -0.63224369       0.50570047
H       -1.34828824      -2.17799057       0.21562215
H       -0.89959418      -1.16098509       1.59877934
H        1.21429129      -2.03950299      -0.36728702
H        2.94582788      -0.09524386       0.21654313
H        1.61646707       2.24022996       0.05527045
H       -1.45205337       2.44309504      -0.43672253
H       -1.04549305       0.25720285      -1.36554005
15
Frame=11 idx=008911 GeodesicLength=0.6161028811565787 rxn_smarts="[C:1]([n:2]1[c:3]([H:11])[c:4]([H:12])[c:5]([H:13])[c:6]1[N:7]([H:14])[H:15])([H:8])([H:9])[H:10]>>[C:1]([N+:2]1([H:15])[C-:3]([H:11])[C:4]([H:12])=[C:5]([H:13])[C:6]1=[N:7][H:14])([H:8])([H:9])[H:10]"
C       -1.24738262      -1.15549387       0.55823621
N       -0.28023489      -0.44865187      -0.29994292
C        1.04759694      -0.97891923      -0.27063655
C        1.88246034       0.02159127       0.10221140
C        1.17877993       1.26283842       0.13391408
C       -0.16655872       0.98322608       0.01642562
N       -1.23740207       1.48073008      -0.63108399
H       -2.20253517      -0.63611446       0.49026868
H       -1.34905162      -2.18136693       0.20612656
H       -0.92308393      -1.16936552       1.59934096
H        1.21657343      -2.04056096      -0.34249486
H        2.95195485      -0.08933542       0.20995823
H        1.61705914       2.24066555       0.01465218
H       -1.45185661       2.43962301      -0.40538296
H       -1.03631899       0.27113386      -1.38159265
15
Frame=12 idx=008911 GeodesicLength=0.671435239687484 rxn_smarts="[C:1]([n:2]1[c:3]([H:11])[c:4]([H:12])[c:5]([H:13])[c:6]1[N:7]([H:14])[H:15])([H:8])([H:9])[H:10]>>[C:1]([N+:2]1([H:15])[C-:3]([H:11])[C:4]([H:12])=[C:5]([H:13])[C:6]1=[N:7][H:14])([H:8])([H:9])[H:10]"
C       -1.25395840      -1.15985734       0.55363655
N       -0.27594686      -0.44938062      -0.28842506
C        1.05027488      -0.97898147      -0.25854050
C        1.88799717       0.02564336       0.09989695
C        1.18260402       1.26407252       0.12101130
C       -0.16600393       0.98168538       0.03191297
N       -1.23632606       1.48144644      -0.61907202
H       -2.20788031      -0.63979378       0.47497167
H       -1.34960763      -2.18468418       0.19693424
H       -0.94647041      -1.17757390       1.59972948
H        1.21885225      -2.04152110      -0.31719205
H        2.95810210      -0.08330797       0.20231655
H        1.61657051       2.24043851      -0.02424575
H       -1.45096175       2.43610831      -0.37533239
H       -1.02724557       0.28570582      -1.39760194
15
Frame=13 idx=008911 GeodesicLength=0.7267030347820675 rxn_smarts="[C:1]([n:2]1[c:3]([H:11])[c:4]([H:12])[c:5]([H:13])[c:6]1[N:7]([H:14])[H:15])([H:8])([H:9])[H:10]>>[C:1]([N+:2]1([H:15])[C-:3]([H:11])[C:4]([H:12])=[C:5]([H:13])[C:6]1=[N:7][H:14])([H:8])([H:9])[H:10]"
C       -1.26041440      -1.16414085       0.54908213
N       -0.27166172      -0.45022036      -0.27667978
C        1.05298997      -0.97906515      -0.24648960
C        1.89355174       0.02970306       0.09683679
C        1.18607523       1.26501151       0.10855446
C       -0.16525525       0.98009228       0.04722771
N       -1.23518739       1.48206907      -0.60705644
H       -2.21290902      -0.64327020       0.45966073
H       -1.34997494      -2.18792357       0.18794299
H       -0.96984925      -1.18560939       1.59988829
H        1.22116549      -2.04237279      -0.29115511
H        2.96422459      -0.07723354       0.19380568
H        1.61515612       2.23956170      -0.06202480
H       -1.44971577       2.43239159      -0.34595662
H       -1.01819539       0.30100665      -1.41363641
15
Frame=14 idx=008911 GeodesicLength=0.7819265836247381 rxn_smarts="[C:1]([n:2]1[c:3]([H:11])[c:4]([H:12])[c:5]([H:13])[c:6]1[N:7]([H:14])[H:15])([H:8])([H:9])[H:10]>>[C:1]([N+:2]1([H:15])[C-:3]([H:11])[C:4]([H:12])=[C:5]([H:13])[C:6]1=[N:7][H:14])([H:8])([H:9])[H:10]"
C       -1.26676719      -1.16836851       0.54458635
N       -0.26738598      -0.45118811      -0.26468088
C        1.05573990      -0.97918021      -0.23447704
C        1.89911165       0.03374525       0.09303744
C        1.18920286       1.26566286       0.09656333
C       -0.16433756       0.97843693       0.06237652
N       -1.23400313       1.48257521      -0.59506117
H       -2.21764200      -0.64658172       0.44432389
H       -1.35015601      -2.19111584       0.17917657
H       -0.99325072      -1.19348434       1.59983857
H        1.22351756      -2.04309690      -0.26432017
H        2.97036349      -0.07110107       0.18421425
H        1.61286838       2.23812019      -0.09847714
H       -1.44807016       2.42853194      -0.31738023
H       -1.00919109       0.31704434      -1.42972031
15
Frame=15 idx=008911 GeodesicLength=0.8370967231335636 rxn_smarts="[C:1]([n:2]1[c:3]([H:11])[c:4]([H:12])[c:5]([H:13])[c:6]1[N:7]([H:14])[H:15])([H:8])([H:9])[H:10]>>[C:1]([N+:2]1([H:15])[C-:3]([H:11])[C:4]([H:12])=[C:5]([H:13])[C:6]1=[N:7][H:14])([H:8])([H:9])[H:10]"
C       -1.27301530      -1.17254607       0.54015449
N       -0.26311699      -0.45229601      -0.25241259
C        1.05852431      -0.97933707      -0.22251135
C        1.90465621       0.03774079       0.08848890
C        1.19200206       1.26603421       0.08502244
C       -0.16326596       0.97671281       0.07735162
N       -1.23277356       1.48294679      -0.58311948
H       -2.22207501      -0.64974430       0.42894570
H       -1.35013622      -2.19427524       0.17065975
H       -1.01668347      -1.20118278       1.59958419
H        1.22591532      -2.04366923      -0.23664127
H        2.97649040      -0.06494663       0.17346494
H        1.60975123       2.23618872      -0.13348905
H       -1.44603708       2.42454175      -0.28961587
H       -1.00023593       0.33383226      -1.44588243
15
Frame=16 idx=008911 GeodesicLength=0.8922133664991805 rxn_smarts="[C:1]([n:2]1[c:3]([H:11])[c:4]([H:12])[c:5]([H:13])[c:6]1[N:7]([H:14])[H:15])([H:8])([H:9])[H:10]>>[C:1]([N+:2]1([H:15])[C-:3]([H:11])[C:4]([H:12])=[C:5]([H:13])[C:6]1=[N:7][H:14])([H:8])([H:9])[H:10]"
C       -1.27915775      -1.17668417       0.53579335
N       -0.25885425      -0.45355449      -0.23985955
C        1.06134344      -0.97954391      -0.21060942
C        1.91016504       0.04166143       0.08318440
C        1.19449026       1.26613275       0.07391067
C       -0.16205507       0.97491484       0.09214671
N       -1.23150488       1.48316841      -0.57125822
H       -2.22620579      -0.65277976       0.41351564
H       -1.34990252      -2.19741999       0.16241673
H       -1.04015231      -1.20869795       1.59913146
H        1.22836730      -2.04405796      -0.20808693
H        2.98257721      -0.05881139       0.16152373
H        1.60586280       2.23384178      -0.16698305
H       -1.44363257       2.42043539      -0.26267387
H       -0.99134090       0.35139501      -1.46215164
