11
Frame=0 idx=002344 GeodesicLength=0.0 rxn_smarts="[O:1]=[C:2]([C:3]([N:4]([C:5](=[O:6])[H:11])[H:10])([H:8])[H:9])[H:7]>>[O:1]1[C@:2]2([H:7])[C:3]([H:8])([H:9])[N:4]([H:10])[C@@:5]1([H:11])[O:6]2"
O        1.17600511      -0.28078404      -1.07933840
C        0.94651803       0.54708171      -0.07833962
C        0.11683541      -0.15267893       1.03241414
N       -0.98385772      -0.59633165       0.15790910
C       -0.73791331       0.10476487      -0.97384149
O       -0.24978213       1.31051413      -0.72525068
H        1.72860465       1.24201269       0.24314527
H        0.64312815      -1.00185930       1.46367638
H       -0.23663658       0.52391326       1.80952960
H       -1.12958647      -1.58652493       0.04406922
H       -1.27331511      -0.11010776      -1.89397354
11
Frame=1 idx=002344 GeodesicLength=0.09518285566447626 rxn_smarts="[O:1]=[C:2]([C:3]([N:4]([C:5](=[O:6])[H:11])[H:10])([H:8])[H:9])[H:7]>>[O:1]1[C@:2]2([H:7])[C:3]([H:8])([H:9])[N:4]([H:10])[C@@:5]1([H:11])[O:6]2"
O        1.17532622      -0.28715363      -1.07645906
C        0.95628954       0.54025975      -0.07325563
C        0.11426822      -0.14936336       1.03151939
N       -0.97800942      -0.60310354       0.15297704
C       -0.75089053       0.11188132      -0.97715543
O       -0.27044024       1.31887067      -0.72429412
H        1.74769124       1.22343869       0.25092788
H        0.63293363      -0.99347784       1.48152373
H       -0.23542205       0.53898333       1.80025939
H       -1.09676966      -1.59564480       0.02614151
H       -1.29497693      -0.10469060      -1.89218471
11
Frame=2 idx=002344 GeodesicLength=0.19027126071283917 rxn_smarts="[O:1]=[C:2]([C:3]([N:4]([C:5](=[O:6])[H:11])[H:10])([H:8])[H:9])[H:7]>>[O:1]1[C@:2]2([H:7])[C:3]([H:8])([H:9])[N:4]([H:10])[C@@:5]1([H:11])[O:6]2"
O        1.17504292      -0.29305638      -1.07370316
C        0.96637469       0.53337356      -0.06799722
C        0.11185456      -0.14605832       1.03045664
N       -0.97194139      -0.60970788       0.14789054
C       -0.76375931       0.11862909      -0.98054263
O       -0.29214362       1.32725474      -0.72333950
H        1.76697983       1.20443015       0.25924270
H        0.62235957      -0.98501561       1.49905567
H       -0.23388116       0.55384540       1.79080273
H       -1.06418030      -1.60367292       0.00830096
H       -1.31670578      -0.10002183      -1.89016671
11
Frame=3 idx=002344 GeodesicLength=0.28529760566108414 rxn_smarts="[O:1]=[C:2]([C:3]([N:4]([C:5](=[O:6])[H:11])[H:10])([H:8])[H:9])[H:7]>>[O:1]1[C@:2]2([H:7])[C:3]([H:8])([H:9])[N:4]([H:10])[C@@:5]1([H:11])[O:6]2"
O        1.17515996      -0.29846866      -1.07108605
C        0.97680368       0.52641977      -0.06255452
C        0.10959760      -0.14274065       1.02921518
N       -0.96564451      -0.61613132       0.14264228
C       -0.77652766       0.12502362      -0.98402164
O       -0.31497762       1.33566816      -0.72236440
H        1.78653530       1.18491049       0.26812266
H        0.61139126      -0.97644575       1.51626777
H       -0.23200977       0.56852732       1.78114694
H       -1.03182217      -1.61065050      -0.00944640
H       -1.33850607      -0.09611247      -1.88792181
11
Frame=4 idx=002344 GeodesicLength=0.38028111059508446 rxn_smarts="[O:1]=[C:2]([C:3]([N:4]([C:5](=[O:6])[H:11])[H:10])([H:8])[H:9])[H:7]>>[O:1]1[C@:2]2([H:7])[C:3]([H:8])([H:9])[N:4]([H:10])[C@@:5]1([H:11])[O:6]2"
O        1.17567903      -0.30337071      -1.06862256
C        0.98760767       0.51938802      -0.05691711
C        0.10750146      -0.13938539       1.02778720
N       -0.95911517      -0.62236126       0.13722640
C       -0.78920534       0.13107763      -0.98760880
O       -0.33902691       1.34411288      -0.72134230
H        1.80641707       1.16480638       0.27759566
H        0.60001492      -0.96774341       1.53315738
H       -0.22980237       0.58306471       1.77127998
H       -0.99969206      -1.61662277      -0.02710131
H       -1.36037828      -0.09296610      -1.88545453
11
Frame=5 idx=002344 GeodesicLength=0.4752403606037312 rxn_smarts="[O:1]=[C:2]([C:3]([N:4]([C:5](=[O:6])[H:11])[H:10])([H:8])[H:9])[H:7]>>[O:1]1[C@:2]2([H:7])[C:3]([H:8])([H:9])[N:4]([H:10])[C@@:5]1([H:11])[O:6]2"
O        1.17660358      -0.30772446      -1.06633308
C        0.99881831       0.51227048      -0.05107167
C        0.10556998      -0.13597111       1.02615857
N       -0.95233309      -0.62837311       0.13163640
C       -0.80180410       0.13680294      -0.99131546
O       -0.36438852       1.35258805      -0.72024664
H        1.82668740       1.14401661       0.28770405
H        0.58819664      -0.95887878       1.54970763
H       -0.22725122       0.59748378       1.76118045
H       -0.96777157      -1.62159265      -0.04466625
H       -1.38232740      -0.09062175      -1.88275399
11
Frame=6 idx=002344 GeodesicLength=0.5702024844708911 rxn_smarts="[O:1]=[C:2]([C:3]([N:4]([C:5](=[O:6])[H:11])[H:10])([H:8])[H:9])[H:7]>>[O:1]1[C@:2]2([H:7])[C:3]([H:8])([H:9])[N:4]([H:10])[C@@:5]1([H:11])[O:6]2"
O        1.17793105      -0.31148637      -1.06423716
C        1.01046903       0.50506560      -0.04500551
C        0.10380964      -0.13246154       1.02431863
N       -0.94528962      -0.63415333       0.12586487
C       -0.81433621       0.14221945      -0.99516026
O       -0.39118612       1.36108501      -0.71903949
H        1.84741057       1.12239861       0.29849010
H        0.57592740      -0.94981248       1.56591600
H       -0.22434865       0.61183751       1.75083024
H       -0.93604093      -1.62559672      -0.06215023
H       -1.40434617      -0.08909574      -1.87982718
11
Frame=7 idx=002344 GeodesicLength=0.6651886189863585 rxn_smarts="[O:1]=[C:2]([C:3]([N:4]([C:5](=[O:6])[H:11])[H:10])([H:8])[H:9])[H:7]>>[O:1]1[C@:2]2([H:7])[C:3]([H:8])([H:9])[N:4]([H:10])[C@@:5]1([H:11])[O:6]2"
O        1.17966146      -0.31462478      -1.06235628
C        1.02259925       0.49775185      -0.03870549
C        0.10222822      -0.12882565       1.02225588
N       -0.93797191      -0.63968869       0.11990074
C       -0.82681167       0.14734706      -0.99915744
O       -0.41954518       1.36959069      -0.71767351
H        1.86864895       1.09985175       0.30998857
H        0.56319096      -0.94050674       1.58178099
H       -0.22108303       0.62616966       1.74020679
H       -0.90449803      -1.62866267      -0.07956010
H       -1.42641901      -0.08840248      -1.87668015
11
Frame=8 idx=002344 GeodesicLength=0.7602224907664122 rxn_smarts="[O:1]=[C:2]([C:3]([N:4]([C:5](=[O:6])[H:11])[H:10])([H:8])[H:9])[H:7]>>[O:1]1[C@:2]2([H:7])[C:3]([H:8])([H:9])[N:4]([H:10])[C@@:5]1([H:11])[O:6]2"
O        1.18178878      -0.31708428      -1.06071880
C        1.03525210       0.49032062      -0.03215390
C        0.10083404      -0.12502538       1.01995506
N       -0.93036205      -0.64495830       0.11373514
C       -0.83924532       0.15220694      -1.00331915
O       -0.44962075       1.37807450      -0.71609515
H        1.89047125       1.07620991       0.32225168
H        0.54996150      -0.93090997       1.59729304
H       -0.21743919       0.64053854       1.72927967
H       -0.87311154      -1.63079968      -0.09691273
H       -1.44852883      -0.08857290      -1.87331486
11
Frame=9 idx=002344 GeodesicLength=0.8555569002309212 rxn_smarts="[O:1]=[C:2]([C:3]([N:4]([C:5](=[O:6])[H:11])[H:10])([H:8])[H:9])[H:7]>>[O:1]1[C@:2]2([H:7])[C:3]([H:8])([H:9])[N:4]([H:10])[C@@:5]1([H:11])[O:6]2"
O        1.18430037      -0.31870523      -1.05938107
C        1.04851707       0.48267948      -0.02530948
C        0.09963963      -0.12097802       1.01740047
N       -0.92241878      -0.64998161       0.10733234
C       -0.85165880       0.15687621      -1.00764680
O       -0.48173424       1.38643559      -0.71420764
H        1.91296299       1.05115396       0.33532839
H        0.53621549      -0.92093071       1.61249985
H       -0.21339673       0.65510225       1.71796922
H       -0.84182326      -1.63205367      -0.11424367
H       -1.47060375      -0.08959825      -1.86974160
11
Frame=10 idx=002344 GeodesicLength=0.9509345651216943 rxn_smarts="[O:1]=[C:2]([C:3]([N:4]([C:5](=[O:6])[H:11])[H:10])([H:8])[H:9])[H:7]>>[O:1]1[C@:2]2([H:7])[C:3]([H:8])([H:9])[N:4]([H:10])[C@@:5]1([H:11])[O:6]2"
O        1.18719997      -0.31950425      -1.05834080
C        1.06239786       0.47486008      -0.01817360
C        0.09865329      -0.11668317       1.01457660
N       -0.91414331      -0.65468971       0.10070378
C       -0.86406376       0.16133935      -1.01215233
O       -0.51590852       1.39468180      -0.71196888
H        1.93614222       1.02464448       0.34924637
H        0.52191874      -0.91053993       1.62735249
H       -0.20892443       0.66982987       1.70627844
H       -0.81063263      -1.63239023      -0.13155883
H       -1.49263944      -0.09154829      -1.86596324
11
Frame=11 idx=002344 GeodesicLength=1.0463438521364634 rxn_smarts="[O:1]=[C:2]([C:3]([N:4]([C:5](=[O:6])[H:11])[H:10])([H:8])[H:9])[H:7]>>[O:1]1[C@:2]2([H:7])[C:3]([H:8])([H:9])[N:4]([H:10])[C@@:5]1([H:11])[O:6]2"
O        1.19048361      -0.31941479      -1.05762519
C        1.07693927       0.46682497      -0.01072511
C        0.09788619      -0.11209681       1.01146866
N       -0.90551682      -0.65906145       0.09383788
C       -0.87647977       0.16563155      -1.01683670
O       -0.55232659       1.40276451      -0.70930360
H        1.96005613       0.99649279       0.36403786
H        0.50704577      -0.89966788       1.64185356
H       -0.20399830       0.68478841       1.69416571
H       -0.77950332      -1.63181550      -0.14888186
H       -1.51458617      -0.09444579      -1.86199123
11
Frame=12 idx=002344 GeodesicLength=1.1417706452319072 rxn_smarts="[O:1]=[C:2]([C:3]([N:4]([C:5](=[O:6])[H:11])[H:10])([H:8])[H:9])[H:7]>>[O:1]1[C@:2]2([H:7])[C:3]([H:8])([H:9])[N:4]([H:10])[C@@:5]1([H:11])[O:6]2"
O        1.19414399      -0.31833790      -1.05726627
C        1.09219269       0.45853601      -0.00293824
C        0.09735246      -0.10716716       1.00806043
N       -0.89651519      -0.66307096       0.08672330
C       -0.88893273       0.16979205      -1.02169584
O       -0.59119867       1.41061482      -0.70612058
H        1.98474121       0.96645086       0.37973846
H        0.49156141      -0.88823070       1.65600450
H       -0.19858290       0.70006238       1.68157921
H       -0.74838316      -1.63032063      -0.16624417
H       -1.53637912      -0.09832877      -1.85784080
11
Frame=13 idx=002344 GeodesicLength=1.2371690065843346 rxn_smarts="[O:1]=[C:2]([C:3]([N:4]([C:5](=[O:6])[H:11])[H:10])([H:8])[H:9])[H:7]>>[O:1]1[C@:2]2([H:7])[C:3]([H:8])([H:9])[N:4]([H:10])[C@@:5]1([H:11])[O:6]2"
O        1.19817033      -0.31618459      -1.05729545
C        1.10821229       0.44993987       0.00521431
C        0.09706516      -0.10184512       1.00433526
N       -0.88711562      -0.66669313       0.07934950
C       -0.90144861       0.17386212      -1.02671773
O       -0.63273134       1.41814828      -0.70231867
H        2.01023491       0.93430642       0.39637492
H        0.47543141      -0.87614198       1.66980613
H       -0.19264147       0.71573194       1.66846304
H       -0.71723892      -1.62789699      -0.18367652
H       -1.55793814      -0.10322682      -1.85353480
11
Frame=14 idx=002344 GeodesicLength=1.3325165393405662 rxn_smarts="[O:1]=[C:2]([C:3]([N:4]([C:5](=[O:6])[H:11])[H:10])([H:8])[H:9])[H:7]>>[O:1]1[C@:2]2([H:7])[C:3]([H:8])([H:9])[N:4]([H:10])[C@@:5]1([H:11])[O:6]2"
O        1.20255248      -0.31283681      -1.05774919
C        1.12506206       0.44096960       0.01376533
C        0.09704458      -0.09606737       1.00027255
N       -0.87729341      -0.66989221       0.07170514
C       -0.91405784       0.17789711      -1.03188819
O       -0.67719286       1.42522956      -0.69776147
H        2.03656251       0.89978753       0.41397824
H        0.45861367      -0.86329403       1.68326011
H       -0.18611188       0.73190148       1.65474543
H       -0.68603097      -1.62452179      -0.20121309
H       -1.57914835      -0.10917308      -1.84911486
11
Frame=15 idx=002344 GeodesicLength=1.427801741375102 rxn_smarts="[O:1]=[C:2]([C:3]([N:4]([C:5](=[O:6])[H:11])[H:10])([H:8])[H:9])[H:7]>>[O:1]1[C@:2]2([H:7])[C:3]([H:8])([H:9])[N:4]([H:10])[C@@:5]1([H:11])[O:6]2"
O        1.20727764      -0.30809205      -1.05867045
C        1.14280741       0.43157387       0.02275185
C        0.09731450      -0.08974813       0.99584927
N       -0.86700478      -0.67262684       0.06377835
C       -0.92680612       0.18195512      -1.03718099
O       -0.72490782       1.43170236      -0.69229297
H        2.06374594       0.86245010       0.43259327
H        0.44105168      -0.84953858       1.69637112
H       -0.17892590       0.74870972       1.64033086
H       -0.65466936      -1.62014601      -0.21890480
H       -1.59988320      -0.11623957      -1.84462552
11
Frame=16 idx=002344 GeodesicLength=1.5229714128007081 rxn_smarts="[O:1]=[C:2]([C:3]([N:4]([C:5](=[O:6])[H:11])[H:10])([H:8])[H:9])[H:7]>>[O:1]1[C@:2]2([H:7])[C:3]([H:8])([H:9])[N:4]([H:10])[C@@:5]1([H:11])[O:6]2"
O        1.21233187      -0.30180429      -1.06009250
C        1.16152509       0.42164289       0.03221759
C        0.09790031      -0.08281599       0.99104414
N       -0.85622264      -0.67485218       0.05556255
C       -0.93973474       0.18610310      -1.04255680
O       -0.77618407       1.43735712      -0.68572967
H        2.09178118       0.82199767       0.45222381
H        0.42268985      -0.83473830       1.70914484
H       -0.17099734       0.76628074       1.62511894
H       -0.62312018      -1.61472133      -0.23679266
H       -1.61996933      -0.12444943      -1.84014024
