14
Frame=0 idx=010950 GeodesicLength=0.0 rxn_smarts="[C:1]([c:2]1[c:3]([N:4]([H:11])[H:12])[c:5]([H:13])[c:6]([H:14])[o:7]1)([H:8])([H:9])[H:10]>>[C:1]([C-:2]1[C:3]([N+:4]([H:11])([H:12])[H:13])=[C:5]=[C:6]([H:14])[O:7]1)([H:8])([H:9])[H:10]"
C       -1.67113389      -1.10566811       0.26240049
C       -0.26805782      -0.63492140       0.14863145
C        0.35063467       0.53446798      -0.12111550
N        0.04636068       1.92096911      -0.43566613
C        1.76850983       0.43437505      -0.11025593
C        1.93355879      -0.87671361       0.18539200
O        0.71909888      -1.53485523       0.34449603
H       -2.36339427      -0.28256522       0.08382882
H       -1.88369192      -1.89151650      -0.46572540
H       -1.87277381      -1.51038424       1.25655124
H       -0.40040380       2.45689887       0.30063907
H       -0.41209853       2.08473273      -1.32569832
H        1.27125252       1.93244964      -0.44795312
H        2.78213873      -1.52726902       0.32447531
14
Frame=1 idx=010950 GeodesicLength=0.05475473718801435 rxn_smarts="[C:1]([c:2]1[c:3]([N:4]([H:11])[H:12])[c:5]([H:13])[c:6]([H:14])[o:7]1)([H:8])([H:9])[H:10]>>[C:1]([C-:2]1[C:3]([N+:4]([H:11])([H:12])[H:13])=[C:5]=[C:6]([H:14])[O:7]1)([H:8])([H:9])[H:10]"
C       -1.67087924      -1.10341899       0.25790396
C       -0.26668353      -0.63128099       0.16870326
C        0.34988044       0.54423934      -0.07648758
N        0.04405326       1.91815178      -0.43851937
C        1.76831635       0.43869730      -0.09407131
C        1.93318634      -0.87823224       0.17463316
O        0.72079576      -1.53328759       0.35401992
H       -2.36072008      -0.27707213       0.08438547
H       -1.87563513      -1.87727101      -0.48520173
H       -1.88325673      -1.52481913       1.24287105
H       -0.38425573       2.47811797       0.29074061
H       -0.44417844       2.04787868      -1.31818720
H        1.28575577       1.92524021      -0.47191374
H        2.78362096      -1.52694321       0.31112350
14
Frame=2 idx=010950 GeodesicLength=0.10950884766899321 rxn_smarts="[C:1]([c:2]1[c:3]([N:4]([H:11])[H:12])[c:5]([H:13])[c:6]([H:14])[o:7]1)([H:8])([H:9])[H:10]>>[C:1]([C-:2]1[C:3]([N+:4]([H:11])([H:12])[H:13])=[C:5]=[C:6]([H:14])[O:7]1)([H:8])([H:9])[H:10]"
C       -1.67021644      -1.10040327       0.25346546
C       -0.26509567      -0.62771762       0.18670386
C        0.34953983       0.55311151      -0.03616497
N        0.04097383       1.91391947      -0.44144657
C        1.76822879       0.44291784      -0.07834500
C        1.93266222      -0.87846505       0.16793984
O        0.72251416      -1.53181208       0.36201366
H       -2.35757395      -0.27081655       0.08489150
H       -1.86805556      -1.86278322      -0.50330363
H       -1.89231706      -1.53704458       1.22964049
H       -0.36965227       2.49600675       0.28055146
H       -0.47549993       2.01263863      -1.30886163
H        1.29962991       1.91688171      -0.49420876
H        2.78486215      -1.52643355       0.29712430
14
Frame=3 idx=010950 GeodesicLength=0.16418734569505883 rxn_smarts="[C:1]([c:2]1[c:3]([N:4]([H:11])[H:12])[c:5]([H:13])[c:6]([H:14])[o:7]1)([H:8])([H:9])[H:10]>>[C:1]([C-:2]1[C:3]([N+:4]([H:11])([H:12])[H:13])=[C:5]=[C:6]([H:14])[O:7]1)([H:8])([H:9])[H:10]"
C       -1.66928475      -1.09693231       0.24912314
C       -0.26342978      -0.62427491       0.20297983
C        0.34933202       0.56107180      -0.00034311
N        0.03737342       1.90874032      -0.44443072
C        1.76813659       0.44713859      -0.06267096
C        1.93203299      -0.87778151       0.16410434
O        0.72423355      -1.53015250       0.36973781
H       -2.35414502      -0.26434748       0.08454875
H       -1.86067169      -1.84894249      -0.51962381
H       -1.90047602      -1.54685324       1.21713872
H       -0.35659229       2.51088034       0.27026979
H       -0.50559656       1.97949438      -1.29821188
H        1.31325207       1.90786613      -0.51432763
H        2.78583549      -1.52590712       0.28170574
14
Frame=4 idx=010950 GeodesicLength=0.21883767771857535 rxn_smarts="[C:1]([c:2]1[c:3]([N:4]([H:11])[H:12])[c:5]([H:13])[c:6]([H:14])[o:7]1)([H:8])([H:9])[H:10]>>[C:1]([C-:2]1[C:3]([N+:4]([H:11])([H:12])[H:13])=[C:5]=[C:6]([H:14])[O:7]1)([H:8])([H:9])[H:10]"
C       -1.66816910      -1.09323059       0.24478590
C       -0.26174393      -0.62102935       0.21763093
C        0.34914274       0.56818464       0.03124726
N        0.03335973       1.90301371      -0.44729116
C        1.76801197       0.45111006      -0.04824573
C        1.93136460      -0.87653377       0.16218881
O        0.72594299      -1.52838376       0.37735727
H       -2.35056224      -0.25788778       0.08328725
H       -1.85348061      -1.83597640      -0.53442035
H       -1.90790945      -1.55464959       1.20529261
H       -0.34425753       2.52332492       0.26056055
H       -0.53511754       1.94878758      -1.28596585
H        1.32681135       1.89833393      -0.53307960
H        2.78660701      -1.52506360       0.26665212
14
Frame=5 idx=010950 GeodesicLength=0.2734577446721238 rxn_smarts="[C:1]([c:2]1[c:3]([N:4]([H:11])[H:12])[c:5]([H:13])[c:6]([H:14])[o:7]1)([H:8])([H:9])[H:10]>>[C:1]([C-:2]1[C:3]([N+:4]([H:11])([H:12])[H:13])=[C:5]=[C:6]([H:14])[O:7]1)([H:8])([H:9])[H:10]"
C       -1.66692202      -1.08941355       0.24049016
C       -0.26007945      -0.61793920       0.23109858
C        0.34889702       0.57466242       0.05952952
N        0.02901611       1.89690135      -0.45015064
C        1.76783435       0.45493815      -0.03461054
C        1.93067912      -0.87489347       0.16169568
O        0.72762940      -1.52650528       0.38506582
H       -2.34689755      -0.25151982       0.08134522
H       -1.84639493      -1.82377052      -0.54800981
H       -1.91480749      -1.56096916       1.19399051
H       -0.33259474       2.53394310       0.25106442
H       -0.56397603       1.92009651      -1.27254442
H        1.34047340       1.88847058      -0.55050985
H        2.78714280      -1.52400113       0.25154533
14
Frame=6 idx=010950 GeodesicLength=0.3281174893089545 rxn_smarts="[C:1]([c:2]1[c:3]([N:4]([H:11])[H:12])[c:5]([H:13])[c:6]([H:14])[o:7]1)([H:8])([H:9])[H:10]>>[C:1]([C-:2]1[C:3]([N+:4]([H:11])([H:12])[H:13])=[C:5]=[C:6]([H:14])[O:7]1)([H:8])([H:9])[H:10]"
C       -1.66557452      -1.08556721       0.23620617
C       -0.25844734      -0.61504794       0.24333234
C        0.34858490       0.58058073       0.08487135
N        0.02436278       1.89055971      -0.45294651
C        1.76760547       0.45850518      -0.02230079
C        1.92999476      -0.87303635       0.16210039
O        0.72928492      -1.52464667       0.39251026
H       -2.34319976      -0.24526846       0.07898972
H       -1.83954930      -1.81223314      -0.56064464
H       -1.92111001      -1.56619583       1.18314727
H       -0.32117138       2.54310246       0.24200585
H       -0.59257657       1.89344475      -1.25780469
H        1.35431001       1.87829521      -0.56715740
H        2.78748604      -1.52249244       0.23769068
14
Frame=7 idx=010950 GeodesicLength=0.38278130086421935 rxn_smarts="[C:1]([c:2]1[c:3]([N:4]([H:11])[H:12])[c:5]([H:13])[c:6]([H:14])[o:7]1)([H:8])([H:9])[H:10]>>[C:1]([C-:2]1[C:3]([N+:4]([H:11])([H:12])[H:13])=[C:5]=[C:6]([H:14])[O:7]1)([H:8])([H:9])[H:10]"
C       -1.66415920      -1.08171826       0.23200423
C       -0.25687921      -0.61226384       0.25481455
C        0.34815252       0.58612911       0.10806832
N        0.01944793       1.88398658      -0.45586840
C        1.76730877       0.46202806      -0.01038508
C        1.92928124      -0.87097902       0.16320491
O        0.73089933      -1.52271817       0.40002030
H       -2.33951235      -0.23915999       0.07637895
H       -1.83279613      -1.80120667      -0.57250355
H       -1.92701635      -1.57064205       1.17268331
H       -0.31028550       2.55114385       0.23277619
H       -0.62054658       1.86825653      -1.24232025
H        1.36846348       1.86799536      -0.58264921
H        2.78764204      -1.52085148       0.22377573
14
Frame=8 idx=010950 GeodesicLength=0.4374575589078185 rxn_smarts="[C:1]([c:2]1[c:3]([N:4]([H:11])[H:12])[c:5]([H:13])[c:6]([H:14])[o:7]1)([H:8])([H:9])[H:10]>>[C:1]([C-:2]1[C:3]([N+:4]([H:11])([H:12])[H:13])=[C:5]=[C:6]([H:14])[O:7]1)([H:8])([H:9])[H:10]"
C       -1.66270888      -1.07792618       0.22789106
C       -0.25538888      -0.60960060       0.26564868
C        0.34759672       0.59138162       0.12946241
N        0.01430432       1.87723940      -0.45896205
C        1.76695562       0.46552177       0.00117140
C        1.92856524      -0.86874184       0.16508031
O        0.73245607      -1.52077802       0.40751835
H       -2.33587891      -0.23321927       0.07369866
H       -1.82618404      -1.79059784      -0.58375924
H       -1.93255483      -1.57459778       1.16253362
H       -0.29978740       2.55830158       0.22329534
H       -0.64796943       1.84439680      -1.22620851
H        1.38303401       1.85764626      -0.59714704
H        2.78756040      -1.51902590       0.20977701
14
Frame=9 idx=010950 GeodesicLength=0.4920773422304214 rxn_smarts="[C:1]([c:2]1[c:3]([N:4]([H:11])[H:12])[c:5]([H:13])[c:6]([H:14])[o:7]1)([H:8])([H:9])[H:10]>>[C:1]([C-:2]1[C:3]([N+:4]([H:11])([H:12])[H:13])=[C:5]=[C:6]([H:14])[O:7]1)([H:8])([H:9])[H:10]"
C       -1.66118969      -1.07411551       0.22384778
C       -0.25390901      -0.60707322       0.27539110
C        0.34696427       0.59628514       0.14890108
N        0.00882856       1.87031770      -0.46203756
C        1.76649597       0.46874371       0.01150350
C        1.92784702      -0.86653026       0.16663764
O        0.73400029      -1.51893244       0.41413100
H       -2.33226637      -0.22731416       0.07129509
H       -1.81998376      -1.78020449      -0.59448912
H       -1.93741415      -1.57810697       1.15269174
H       -0.28947450       2.56448979       0.21393422
H       -0.67522636       1.82209197      -1.20899018
H        1.39786076       1.84704550      -0.61105515
H        2.78746696      -1.51669676       0.19823886
14
Frame=10 idx=010950 GeodesicLength=0.5467359188779173 rxn_smarts="[C:1]([c:2]1[c:3]([N:4]([H:11])[H:12])[c:5]([H:13])[c:6]([H:14])[o:7]1)([H:8])([H:9])[H:10]>>[C:1]([C-:2]1[C:3]([N+:4]([H:11])([H:12])[H:13])=[C:5]=[C:6]([H:14])[O:7]1)([H:8])([H:9])[H:10]"
C       -1.65964848      -1.07041156       0.21988725
C       -0.25254184      -0.60454542       0.28507598
C        0.34614266       0.60110371       0.16733377
N        0.00317265       1.86319392      -0.46544441
C        1.76596075       0.47211293       0.02223534
C        1.92712767      -0.86400358       0.16965390
O        0.73547296      -1.51693392       0.42138726
H       -2.32875369      -0.22165110       0.06881613
H       -1.81362945      -1.77009886      -0.60488794
H       -1.94218329      -1.58146132       1.14297935
H       -0.27959286       2.57018313       0.20379292
H       -0.70176343       1.80052880      -1.19155041
H        1.41329477       1.83647136      -0.62388589
H        2.78694159      -1.51448808       0.18460675
14
Frame=11 idx=010950 GeodesicLength=0.6014377217070632 rxn_smarts="[C:1]([c:2]1[c:3]([N:4]([H:11])[H:12])[c:5]([H:13])[c:6]([H:14])[o:7]1)([H:8])([H:9])[H:10]>>[C:1]([C-:2]1[C:3]([N+:4]([H:11])([H:12])[H:13])=[C:5]=[C:6]([H:14])[O:7]1)([H:8])([H:9])[H:10]"
C       -1.65811396      -1.06677533       0.21601912
C       -0.25123663      -0.60219470       0.29384492
C        0.34522336       0.60564182       0.18425758
N       -0.00277107       1.85597852      -0.46892520
C        1.76535736       0.47531194       0.03204281
C        1.92638828      -0.86155686       0.17228832
O        0.73689459      -1.51508099       0.42781749
H       -2.32536123      -0.21610487       0.06671987
H       -1.80771885      -1.76017971      -0.61486779
H       -1.94639275      -1.58462062       1.13352967
H       -0.26978480       2.57519641       0.19363339
H       -0.72817843       1.78031448      -1.17328038
H        1.42920845       1.82588803      -0.63618140
H        2.78648569      -1.51181811       0.17310161
14
Frame=12 idx=010950 GeodesicLength=0.6561550313869098 rxn_smarts="[C:1]([c:2]1[c:3]([N:4]([H:11])[H:12])[c:5]([H:13])[c:6]([H:14])[o:7]1)([H:8])([H:9])[H:10]>>[C:1]([C-:2]1[C:3]([N+:4]([H:11])([H:12])[H:13])=[C:5]=[C:6]([H:14])[O:7]1)([H:8])([H:9])[H:10]"
C       -1.65654707      -1.06324471       0.21221358
C       -0.25001936      -0.59982578       0.30246532
C        0.34412755       0.61013445       0.20030960
N       -0.00893078       1.84855675      -0.47267992
C        1.76465689       0.47859273       0.04204848
C        1.92565971      -0.85887533       0.17599725
O        0.73826162      -1.51309134       0.43470482
H       -2.32207202      -0.21078983       0.06463275
H       -1.80171095      -1.75049725      -0.62459672
H       -1.95043894      -1.58770176       1.12418821
H       -0.26027173       2.57978813       0.18274761
H       -0.75406881       1.76085204      -1.15464792
H        1.44576646       1.81525345      -0.64755487
H        2.78558741      -1.50915155       0.16017182
14
Frame=13 idx=010950 GeodesicLength=0.7108652553626962 rxn_smarts="[C:1]([c:2]1[c:3]([N:4]([H:11])[H:12])[c:5]([H:13])[c:6]([H:14])[o:7]1)([H:8])([H:9])[H:10]>>[C:1]([C-:2]1[C:3]([N+:4]([H:11])([H:12])[H:13])=[C:5]=[C:6]([H:14])[O:7]1)([H:8])([H:9])[H:10]"
C       -1.65501510      -1.05979752       0.20852137
C       -0.24886643      -0.59761508       0.31025627
C        0.34292017       0.61440302       0.21513363
N       -0.01537687       1.84103255      -0.47655089
C        1.76387210       0.48174862       0.05134444
C        1.92490086      -0.85625855       0.17927681
O        0.73957209      -1.51122987       0.44078086
H       -2.31893382      -0.20561279       0.06298570
H       -1.79615540      -1.74096789      -0.63395540
H       -1.95398771      -1.59067814       1.11511083
H       -0.25087378       2.58380067       0.17166322
H       -0.77974430       1.74254235      -1.13534518
H        1.46291167       1.80471263      -0.65827268
H        2.78477651      -1.50608000       0.14905104
14
Frame=14 idx=010950 GeodesicLength=0.76562378065805 rxn_smarts="[C:1]([c:2]1[c:3]([N:4]([H:11])[H:12])[c:5]([H:13])[c:6]([H:14])[o:7]1)([H:8])([H:9])[H:10]>>[C:1]([C-:2]1[C:3]([N+:4]([H:11])([H:12])[H:13])=[C:5]=[C:6]([H:14])[O:7]1)([H:8])([H:9])[H:10]"
C       -1.65351130      -1.05647650       0.20488348
C       -0.24778492      -0.59547765       0.31753334
C        0.34160324       0.61855785       0.22897206
N       -0.02211958       1.83340620      -0.48056018
C        1.76301567       0.48484579       0.06011105
C        1.92412421      -0.85363555       0.18249449
O        0.74083429      -1.50939718       0.44656255
H       -2.31596884      -0.20063939       0.06163338
H       -1.79083942      -1.73159354      -0.64312197
H       -1.95720639      -1.59369996       1.10616512
H       -0.24144986       2.58743621       0.16022058
H       -0.80533041       1.72528948      -1.11527878
H        1.48068490       1.79415613      -0.66853136
H        2.78394840      -1.50277189       0.13891625
14
Frame=15 idx=010950 GeodesicLength=0.8203929037063847 rxn_smarts="[C:1]([c:2]1[c:3]([N:4]([H:11])[H:12])[c:5]([H:13])[c:6]([H:14])[o:7]1)([H:8])([H:9])[H:10]>>[C:1]([C-:2]1[C:3]([N+:4]([H:11])([H:12])[H:13])=[C:5]=[C:6]([H:14])[O:7]1)([H:8])([H:9])[H:10]"
C       -1.65194149      -1.05327856       0.20128834
C       -0.24681149      -0.59326330       0.32493722
C        0.34005903       0.62274925       0.24229487
N       -0.02908914       1.82553205      -0.48488903
C        1.76202113       0.48807627       0.06938020
C        1.92335162      -0.85074294       0.18709702
O        0.74202900      -1.50733902       0.45320678
H       -2.31310536      -0.19594491       0.06024444
H       -1.78519434      -1.72238297      -0.65214112
H       -1.96035106      -1.59677545       1.09719407
H       -0.23226318       2.59075721       0.14781388
H       -0.83037451       1.70857533      -1.09497351
H        1.49925688       1.78353446      -0.67785402
H        2.78241290      -1.49949740       0.12640086
14
Frame=16 idx=010950 GeodesicLength=0.8751765950518159 rxn_smarts="[C:1]([c:2]1[c:3]([N:4]([H:11])[H:12])[c:5]([H:13])[c:6]([H:14])[o:7]1)([H:8])([H:9])[H:10]>>[C:1]([C-:2]1[C:3]([N+:4]([H:11])([H:12])[H:13])=[C:5]=[C:6]([H:14])[O:7]1)([H:8])([H:9])[H:10]"
C       -1.65041011      -1.05021172       0.19777517
C       -0.24591128      -0.59112610       0.33181419
C        0.33838768       0.62684404       0.25475334
N       -0.03635839       1.81753093      -0.48938365
C        1.76094229       0.49127284       0.07826393
C        1.92255670      -0.84784689       0.19159327
O        0.74317256      -1.50530984       0.45951671
H       -2.31042235      -0.19146577       0.05915287
H       -1.77981529      -1.71335593      -0.66091572
H       -1.96316436      -1.59987213       1.08840570
H       -0.22313983       2.59368050       0.13493480
H       -0.85522413       1.69282969      -1.07405842
H        1.51859082       1.77299691      -0.68649723
H        2.78079568      -1.49596652       0.11464502
