12
Frame=0 idx=005247 GeodesicLength=0.0 rxn_smarts="[C:1]([c:2]1[c:3]([H:10])[n:4]([H:11])[n:5][c:6]1[H:12])([H:7])([H:8])[H:9]>>[C:1]([C:2]1=[C:6]([H:12])[N:5]1[N:4]([C:3][H:10])[H:11])([H:7])([H:8])[H:9]"
C       -1.82675069      -0.16199985       0.00485539
C       -0.50830530       0.33276978       0.37121136
C        0.95545693      -1.18678818      -0.48391245
N        1.69328561      -0.13664563      -0.49900826
N        1.16681266       1.11939632      -0.31259169
C        0.31443231       1.19823279       0.83114718
H       -1.98065540       0.02182829      -1.06101849
H       -1.89618028      -1.23795756       0.16124802
H       -2.60599366       0.37266690       0.55541141
H        1.56946101      -2.10031082      -0.51750899
H        2.68585266      -0.11146720      -0.70533497
H        0.43258412       1.89027515       1.65550153
12
Frame=1 idx=005247 GeodesicLength=0.0520185813289515 rxn_smarts="[C:1]([c:2]1[c:3]([H:10])[n:4]([H:11])[n:5][c:6]1[H:12])([H:7])([H:8])[H:9]>>[C:1]([C:2]1=[C:6]([H:12])[N:5]1[N:4]([C:3][H:10])[H:11])([H:7])([H:8])[H:9]"
C       -1.82331349      -0.16180247       0.00156295
C       -0.49628062       0.31767735       0.36386754
C        0.95562871      -1.18469632      -0.45558938
N        1.69883690      -0.13625456      -0.49116012
N        1.16234343       1.11870569      -0.31489863
C        0.31635660       1.19422112       0.83070014
H       -1.98911792       0.04267607      -1.05870466
H       -1.89753291      -1.23998442       0.13957199
H       -2.59483183       0.36347667       0.57130488
H        1.56091678      -2.10177835      -0.51406749
H        2.68584318      -0.10889520      -0.71990920
H        0.42115116       1.89665443       1.64732198
12
Frame=2 idx=005247 GeodesicLength=0.10406269900825407 rxn_smarts="[C:1]([c:2]1[c:3]([H:10])[n:4]([H:11])[n:5][c:6]1[H:12])([H:7])([H:8])[H:9]>>[C:1]([C:2]1=[C:6]([H:12])[N:5]1[N:4]([C:3][H:10])[H:11])([H:7])([H:8])[H:9]"
C       -1.81960859      -0.16172098      -0.00164526
C       -0.48448169       0.30358901       0.35613015
C        0.95600330      -1.18234107      -0.42719072
N        1.70460107      -0.13597769      -0.48257490
N        1.15819092       1.11790129      -0.31717757
C        0.31818249       1.19081805       0.82991132
H       -1.99755996       0.06353271      -1.05566934
H       -1.89787430      -1.24187476       0.11768027
H       -2.58356069       0.35293775       0.58728479
H        1.55095766      -2.10316043      -0.51181062
H        2.68557928      -0.10705278      -0.73358798
H        0.40957051       1.90334889       1.63864987
12
Frame=3 idx=005247 GeodesicLength=0.1561683389948208 rxn_smarts="[C:1]([c:2]1[c:3]([H:10])[n:4]([H:11])[n:5][c:6]1[H:12])([H:7])([H:8])[H:9]>>[C:1]([C:2]1=[C:6]([H:12])[N:5]1[N:4]([C:3][H:10])[H:11])([H:7])([H:8])[H:9]"
C       -1.81563081      -0.16176938      -0.00478567
C       -0.47285528       0.29041344       0.34804383
C        0.95664217      -1.17978481      -0.39848219
N        1.71063284      -0.13584668      -0.47318937
N        1.15438468       1.11693726      -0.31946084
C        0.31992325       1.18802789       0.82874704
H       -2.00614871       0.08477765      -1.05177800
H       -1.89718173      -1.24367748       0.09512800
H       -2.57208410       0.34076245       0.60361530
H        1.53949155      -2.10443417      -0.51068736
H        2.68508673      -0.10598666      -0.74642165
H        0.39773941       1.91058048       1.62927090
12
Frame=4 idx=005247 GeodesicLength=0.20835846421163134 rxn_smarts="[C:1]([c:2]1[c:3]([H:10])[n:4]([H:11])[n:5][c:6]1[H:12])([H:7])([H:8])[H:9]>>[C:1]([C:2]1=[C:6]([H:12])[N:5]1[N:4]([C:3][H:10])[H:11])([H:7])([H:8])[H:9]"
C       -1.81139137      -0.16195785      -0.00787977
C       -0.46135854       0.27809361       0.33955846
C        0.95760955      -1.17708317      -0.36928258
N        1.71697486      -0.13589284      -0.46305007
N        1.15096008       1.11577961      -0.32187187
C        0.32158620       1.18588037       0.82708371
H       -2.01520972       0.10696436      -1.04678613
H       -1.89538371      -1.24542800       0.07126548
H       -2.56027782       0.32646568       0.62070756
H        1.52641598      -2.10553313      -0.51038888
H        2.68444714      -0.10577130      -0.75831283
H        0.38562735       1.91848267       1.61895692
12
Frame=5 idx=005247 GeodesicLength=0.2607277727377335 rxn_smarts="[C:1]([c:2]1[c:3]([H:10])[n:4]([H:11])[n:5][c:6]1[H:12])([H:7])([H:8])[H:9]>>[C:1]([C:2]1=[C:6]([H:12])[N:5]1[N:4]([C:3][H:10])[H:11])([H:7])([H:8])[H:9]"
C       -1.80680227      -0.16239892      -0.01083465
C       -0.44993963       0.26669900       0.33078090
C        0.95908603      -1.17432601      -0.33841205
N        1.72376854      -0.13623061      -0.45150536
N        1.14801705       1.11430758      -0.32443363
C        0.32307687       1.18476002       0.82469856
H       -2.02474768       0.12993741      -1.04045576
H       -1.89230079      -1.24716861       0.04609630
H       -2.54802426       0.30974267       0.63860441
H        1.51101298      -2.10644184      -0.51313580
H        2.68384871      -0.10666849      -0.76852824
H        0.37300445       1.92778780       1.60712534
12
Frame=6 idx=005247 GeodesicLength=0.3132188286566957 rxn_smarts="[C:1]([c:2]1[c:3]([H:10])[n:4]([H:11])[n:5][c:6]1[H:12])([H:7])([H:8])[H:9]>>[C:1]([C:2]1=[C:6]([H:12])[N:5]1[N:4]([C:3][H:10])[H:11])([H:7])([H:8])[H:9]"
C       -1.80200507      -0.16296829      -0.01387649
C       -0.43860385       0.25602896       0.32142324
C        0.96068008      -1.17119844      -0.30800114
N        1.73065717      -0.13650500      -0.44008302
N        1.14541179       1.11281752      -0.32724264
C        0.32462140       1.18395723       0.82186513
H       -2.03491821       0.15396044      -1.03284192
H       -1.88825230      -1.24869093       0.01919011
H       -2.53524498       0.29071091       0.65711593
H        1.49403263      -2.10674190      -0.51414223
H        2.68303323      -0.10822657      -0.77828348
H        0.36058810       1.93685607       1.59487651
12
Frame=7 idx=005247 GeodesicLength=0.36586485127992036 rxn_smarts="[C:1]([c:2]1[c:3]([H:10])[n:4]([H:11])[n:5][c:6]1[H:12])([H:7])([H:8])[H:9]>>[C:1]([C:2]1=[C:6]([H:12])[N:5]1[N:4]([C:3][H:10])[H:11])([H:7])([H:8])[H:9]"
C       -1.79689989      -0.16382055      -0.01683939
C       -0.42730715       0.24618849       0.31166764
C        0.96259885      -1.16783722      -0.27661371
N        1.73780747      -0.13688959      -0.42795647
N        1.14326044       1.11117293      -0.33030355
C        0.32609473       1.18397449       0.81834943
H       -2.04558074       0.17846939      -1.02375843
H       -1.88306833      -1.25005215      -0.00901847
H       -2.52187078       0.26928028       0.67608474
H        1.47455724      -2.10640622      -0.51669004
H        2.68232947      -0.11074922      -0.78645971
H        0.34807868       1.94666937       1.58153797
12
Frame=8 idx=005247 GeodesicLength=0.4187930341768154 rxn_smarts="[C:1]([c:2]1[c:3]([H:10])[n:4]([H:11])[n:5][c:6]1[H:12])([H:7])([H:8])[H:9]>>[C:1]([C:2]1=[C:6]([H:12])[N:5]1[N:4]([C:3][H:10])[H:11])([H:7])([H:8])[H:9]"
C       -1.79166764      -0.16469686      -0.02003657
C       -0.41606250       0.23698381       0.30109524
C        0.96451250      -1.16406873      -0.24602519
N        1.74500519      -0.13722548      -0.41629210
N        1.14152480       1.10949622      -0.33369763
C        0.32769750       1.18411940       0.81430689
H       -2.05761462       0.20542040      -1.01254879
H       -1.87692865      -1.25085508      -0.04077605
H       -2.50755330       0.24426690       0.69632772
H        1.45409282      -2.10559635      -0.51507156
H        2.68126119      -0.11401566      -0.79489043
H        0.33573270       1.95617141       1.56760845
12
Frame=9 idx=005247 GeodesicLength=0.47196434318717145 rxn_smarts="[C:1]([c:2]1[c:3]([H:10])[n:4]([H:11])[n:5][c:6]1[H:12])([H:7])([H:8])[H:9]>>[C:1]([C:2]1=[C:6]([H:12])[N:5]1[N:4]([C:3][H:10])[H:11])([H:7])([H:8])[H:9]"
C       -1.78601601      -0.16601346      -0.02302105
C       -0.40475524       0.22868850       0.29007042
C        0.96684151      -1.16010882      -0.21351309
N        1.75263205      -0.13785484      -0.40331550
N        1.14047336       1.10752389      -0.33742861
C        0.32916765       1.18544847       0.80925332
H       -2.07046716       0.23284870      -0.99908000
H       -1.86937792      -1.25133421      -0.07427504
H       -2.49217721       0.21597434       0.71722951
H        1.42998272      -2.10386720      -0.51695022
H        2.68076551      -0.11862724      -0.80065027
H        0.32293076       1.96732188       1.55168054
12
Frame=10 idx=005247 GeodesicLength=0.5253900764722081 rxn_smarts="[C:1]([c:2]1[c:3]([H:10])[n:4]([H:11])[n:5][c:6]1[H:12])([H:7])([H:8])[H:9]>>[C:1]([C:2]1=[C:6]([H:12])[N:5]1[N:4]([C:3][H:10])[H:11])([H:7])([H:8])[H:9]"
C       -1.78049120      -0.16710993      -0.02636254
C       -0.39361162       0.22096849       0.27791817
C        0.96851922      -1.15556810      -0.18351287
N        1.75993158      -0.13833044      -0.39175886
N        1.13972938       1.10570592      -0.34151566
C        0.33086578       1.18645089       0.80384462
H       -2.08501689       0.26290069      -0.98288730
H       -1.86145249      -1.25048057      -0.11181301
H       -2.47557696       0.18395245       0.73899363
H        1.40672788      -2.10200688      -0.51145993
H        2.67971225      -0.12373256      -0.80726329
H        0.31066308       1.97725003       1.53581703
12
Frame=11 idx=005247 GeodesicLength=0.579055504593886 rxn_smarts="[C:1]([c:2]1[c:3]([H:10])[n:4]([H:11])[n:5][c:6]1[H:12])([H:7])([H:8])[H:9]>>[C:1]([C:2]1=[C:6]([H:12])[N:5]1[N:4]([C:3][H:10])[H:11])([H:7])([H:8])[H:9]"
C       -1.77493780      -0.16823493      -0.02976401
C       -0.38258195       0.21400745       0.26488696
C        0.96976678      -1.15056984      -0.15422957
N        1.76713210      -0.13885574      -0.38043041
N        1.13946521       1.10388675      -0.34592026
C        0.33260520       1.18781060       0.79778222
H       -2.10085786       0.29416635      -0.96381021
H       -1.85296512      -1.24830866      -0.15211917
H       -2.45767596       0.14847475       0.76102212
H        1.38284325      -2.09985492      -0.50355923
H        2.67865820      -0.12970517      -0.81302978
H        0.29854795       1.98718337       1.51917135
12
Frame=12 idx=005247 GeodesicLength=0.6328946247630867 rxn_smarts="[C:1]([c:2]1[c:3]([H:10])[n:4]([H:11])[n:5][c:6]1[H:12])([H:7])([H:8])[H:9]>>[C:1]([C:2]1=[C:6]([H:12])[N:5]1[N:4]([C:3][H:10])[H:11])([H:7])([H:8])[H:9]"
C       -1.76946059      -0.16927207      -0.03327062
C       -0.37173717       0.20778137       0.25092278
C        0.97033526      -1.14508046      -0.12632085
N        1.77408070      -0.13939623      -0.36968203
N        1.13959876       1.10215258      -0.35060407
C        0.33439884       1.18933845       0.79120788
H       -2.11788918       0.32639338      -0.94172055
H       -1.84426770      -1.24442106      -0.19501489
H       -2.43841736       0.10975523       0.78283428
H        1.35916698      -2.09759128      -0.49217488
H        2.67745554      -0.13638944      -0.81831687
H        0.28673592       1.99672953       1.50213980
12
Frame=13 idx=005247 GeodesicLength=0.6869021355370186 rxn_smarts="[C:1]([c:2]1[c:3]([H:10])[n:4]([H:11])[n:5][c:6]1[H:12])([H:7])([H:8])[H:9]>>[C:1]([C:2]1=[C:6]([H:12])[N:5]1[N:4]([C:3][H:10])[H:11])([H:7])([H:8])[H:9]"
C       -1.76408216      -0.17022474      -0.03682350
C       -0.36110605       0.20229360       0.23606082
C        0.97009326      -1.13909996      -0.09988628
N        1.78069625      -0.13994808      -0.35950143
N        1.14008838       1.10053874      -0.35551817
C        0.33621958       1.19103975       0.78417100
H       -2.13582928       0.35880848      -0.91669454
H       -1.83558304      -1.23863769      -0.23975466
H       -2.41780657       0.06832229       0.80384845
H        1.33582353      -2.09523569      -0.47789043
H        2.67618605      -0.14368839      -0.82290324
H        0.27530005       2.00583170       1.48489199
12
Frame=14 idx=005247 GeodesicLength=0.7410326024833176 rxn_smarts="[C:1]([c:2]1[c:3]([H:10])[n:4]([H:11])[n:5][c:6]1[H:12])([H:7])([H:8])[H:9]>>[C:1]([C:2]1=[C:6]([H:12])[N:5]1[N:4]([C:3][H:10])[H:11])([H:7])([H:8])[H:9]"
C       -1.75883646      -0.17107426      -0.04038801
C       -0.35071696       0.19751648       0.22036338
C        0.96895982      -1.13265558      -0.07500723
N        1.78693844      -0.14051548      -0.34987873
N        1.14089626       1.09906885      -0.36061344
C        0.33804715       1.19288481       0.77674310
H       -2.15442720       0.39091367      -0.88879446
H       -1.82715845      -1.23080416      -0.28579605
H       -2.39585758       0.02456266       0.82362176
H        1.31302729      -2.09285195      -0.46103845
H        2.67488361      -0.15152358      -0.82674105
H        0.26424408       2.01447854       1.46752919
12
Frame=15 idx=005247 GeodesicLength=0.7952647491036389 rxn_smarts="[C:1]([c:2]1[c:3]([H:10])[n:4]([H:11])[n:5][c:6]1[H:12])([H:7])([H:8])[H:9]>>[C:1]([C:2]1=[C:6]([H:12])[N:5]1[N:4]([C:3][H:10])[H:11])([H:7])([H:8])[H:9]"
C       -1.75369137      -0.17185669      -0.04389708
C       -0.34056290       0.19337602       0.20402617
C        0.96693917      -1.12578251      -0.05163805
N        1.79277534      -0.14107862      -0.34074418
N        1.14194545       1.09775816      -0.36579252
C        0.33986928       1.19484705       0.76906630
H       -2.17314930       0.42185873      -0.85847063
H       -1.81917007      -1.22100187      -0.33211205
H       -2.37274559      -0.02068679       0.84158805
H        1.29063148      -2.09034142      -0.44250033
H        2.67357570      -0.15975202      -0.82975248
H        0.25358283       2.02265995       1.45022678
12
Frame=16 idx=005247 GeodesicLength=0.8495642198174419 rxn_smarts="[C:1]([c:2]1[c:3]([H:10])[n:4]([H:11])[n:5][c:6]1[H:12])([H:7])([H:8])[H:9]>>[C:1]([C:2]1=[C:6]([H:12])[N:5]1[N:4]([C:3][H:10])[H:11])([H:7])([H:8])[H:9]"
C       -1.74861902      -0.17259831      -0.04729493
C       -0.33063066       0.18975292       0.18729332
C        0.96408024      -1.11853156      -0.02977399
N        1.79818117      -0.14159976      -0.33208070
N        1.14312819       1.09662459      -0.37095021
C        0.34168758       1.19685208       0.76132886
H       -2.19142606       0.45090357      -0.82638526
H       -1.81178111      -1.20947017      -0.37764162
H       -2.34876532      -0.06644691       0.85729945
H        1.26854724      -2.08761284      -0.42303397
H        2.67226155      -0.16818443      -0.83197644
H        0.24333620       2.03031081       1.43321549
