14
Frame=0 idx=003569 GeodesicLength=0.0 rxn_smarts="[C:1]([C@@:2]1([H:10])[O:3][C:4]([H:11])([H:12])[C@:5]1([O:6][H:14])[H:13])([H:7])([H:8])[H:9]>>[C:1]([C@@:2]([O:3][H:14])([C@@:5]1([H:13])[C:4]([H:11])([H:12])[O:6]1)[H:10])([H:7])([H:8])[H:9]"
C        1.76303431       0.47055936      -0.32022771
C        0.56279244      -0.27844946       0.23254838
O        0.07846629       0.25821546       1.41568061
C       -1.69626917      -0.77663550       0.33391384
C       -0.72372789      -0.19897552      -0.59733810
O       -1.28298801       1.08975144      -0.32081314
H        1.51336625       1.51722879      -0.50327169
H        2.57117289       0.43702967       0.41043577
H        2.11886485       0.02609546      -1.25325520
H        0.81609479      -1.35025218       0.32940881
H       -2.74901476      -0.61652229       0.13097516
H       -1.41236380      -1.33870236       1.21027758
H       -0.76470269      -0.44429425      -1.65657261
H       -0.79472549       1.20495139       0.58823833
14
Frame=1 idx=003569 GeodesicLength=0.07501190701973065 rxn_smarts="[C:1]([C@@:2]1([H:10])[O:3][C:4]([H:11])([H:12])[C@:5]1([O:6][H:14])[H:13])([H:7])([H:8])[H:9]>>[C:1]([C@@:2]([O:3][H:14])([C@@:5]1([H:13])[C:4]([H:11])([H:12])[O:6]1)[H:10])([H:7])([H:8])[H:9]"
C        1.76098991       0.47453709      -0.31680314
C        0.56494170      -0.28536524       0.22876476
O        0.06998164       0.24867261       1.41220867
C       -1.69547867      -0.76210939       0.34179397
C       -0.72131480      -0.20517204      -0.60173030
O       -1.28314878       1.08386352      -0.33819594
H        1.51137588       1.52396814      -0.48376564
H        2.57137577       0.43324320       0.41101965
H        2.11322943       0.04552527      -1.25826836
H        0.82669908      -1.35430763       0.32488831
H       -2.75056124      -0.60005111       0.15087016
H       -1.42369556      -1.35162441       1.20412186
H       -0.76342200      -0.46970698      -1.65569771
H       -0.78097234       1.21852698       0.58079372
14
Frame=2 idx=003569 GeodesicLength=0.15000850114193234 rxn_smarts="[C:1]([C@@:2]1([H:10])[O:3][C:4]([H:11])([H:12])[C@:5]1([O:6][H:14])[H:13])([H:7])([H:8])[H:9]>>[C:1]([C@@:2]([O:3][H:14])([C@@:5]1([H:13])[C:4]([H:11])([H:12])[O:6]1)[H:10])([H:7])([H:8])[H:9]"
C        1.75887554       0.47846497      -0.31349526
C        0.56717535      -0.29223999       0.22504246
O        0.06172265       0.23926934       1.40874175
C       -1.69437116      -0.74785252       0.34939778
C       -0.71886992      -0.21138664      -0.60601618
O       -1.28337985       1.07774592      -0.35524621
H        1.50917859       1.53034428      -0.46457945
H        2.57162484       0.42972804       0.41127599
H        2.10736109       0.06483200      -1.26308731
H        0.83747218      -1.35821375       0.32060293
H       -2.75160350      -0.58359681       0.17033595
H       -1.43581588      -1.36385224       1.19748897
H       -0.76218122      -0.49491858      -1.65440071
H       -0.76718869       1.23167598       0.57393930
14
Frame=3 idx=003569 GeodesicLength=0.22496280655517192 rxn_smarts="[C:1]([C@@:2]1([H:10])[O:3][C:4]([H:11])([H:12])[C@:5]1([O:6][H:14])[H:13])([H:7])([H:8])[H:9]>>[C:1]([C@@:2]([O:3][H:14])([C@@:5]1([H:13])[C:4]([H:11])([H:12])[O:6]1)[H:10])([H:7])([H:8])[H:9]"
C        1.75669432       0.48234168      -0.31030984
C        0.56949441      -0.29907573       0.22137631
O        0.05370338       0.22997713       1.40529445
C       -1.69296197      -0.73387619       0.35672320
C       -0.71639189      -0.21761019      -0.61019537
O       -1.28369791       1.07140307      -0.37196367
H        1.50677376       1.53636030      -0.44576241
H        2.57191232       0.42651121       0.41121989
H        2.10128325       0.08397086      -1.26770192
H        0.84841051      -1.36197323       0.31653010
H       -2.75215930      -0.56719409       0.18932865
H       -1.44870490      -1.37535327       1.19042725
H       -0.76096990      -0.51989400      -1.65269568
H       -0.75338608       1.24441246       0.56772904
14
Frame=4 idx=003569 GeodesicLength=0.2998345432915095 rxn_smarts="[C:1]([C@@:2]1([H:10])[O:3][C:4]([H:11])([H:12])[C@:5]1([O:6][H:14])[H:13])([H:7])([H:8])[H:9]>>[C:1]([C@@:2]([O:3][H:14])([C@@:5]1([H:13])[C:4]([H:11])([H:12])[O:6]1)[H:10])([H:7])([H:8])[H:9]"
C        1.75444950       0.48616575      -0.30725177
C        0.57189928      -0.30587418       0.21776043
O        0.04593429       0.22076955       1.40187853
C       -1.69126663      -0.72019017       0.36377038
C       -0.71388037      -0.22383349      -0.61426807
O       -1.28411986       1.06483971      -0.38834616
H        1.50416124       1.54202147      -0.42736282
H        2.57222908       0.42361801       0.41087034
H        2.09502202       0.10289624      -1.27210294
H        0.85950966      -1.36558828       0.31264736
H       -2.75224805      -0.55087805       0.20780940
H       -1.46233996      -1.38610176       1.18298370
H       -0.75977942      -0.54459779      -1.65059849
H       -0.73957078       1.25675300       0.56221011
14
Frame=5 idx=003569 GeodesicLength=0.37457785450080694 rxn_smarts="[C:1]([C@@:2]1([H:10])[O:3][C:4]([H:11])([H:12])[C@:5]1([O:6][H:14])[H:13])([H:7])([H:8])[H:9]>>[C:1]([C@@:2]([O:3][H:14])([C@@:5]1([H:13])[C:4]([H:11])([H:12])[O:6]1)[H:10])([H:7])([H:8])[H:9]"
C        1.75214574       0.48993571      -0.30432593
C        0.57439131      -0.31263593       0.21418963
O        0.03842463       0.21162461       1.39850614
C       -1.68929286      -0.70680262       0.37054482
C       -0.71133482      -0.23004824      -0.61823485
O       -1.28466013       1.05805920      -0.40439149
H        1.50134505       1.54733447      -0.40943020
H        2.57256522       0.42107381       0.41025038
H        2.08860533       0.12155851      -1.27628402
H        0.87076581      -1.36905949       0.30893569
H       -2.75189139      -0.53467843       0.22574828
H       -1.47670009      -1.39608398       1.17519146
H       -0.75860617      -0.56899724      -1.64812928
H       -0.72575761       1.26871962       0.55742936
14
Frame=6 idx=003569 GeodesicLength=0.4495814372687681 rxn_smarts="[C:1]([C@@:2]1([H:10])[O:3][C:4]([H:11])([H:12])[C@:5]1([O:6][H:14])[H:13])([H:7])([H:8])[H:9]>>[C:1]([C@@:2]([O:3][H:14])([C@@:5]1([H:13])[C:4]([H:11])([H:12])[O:6]1)[H:10])([H:7])([H:8])[H:9]"
C        1.74976994       0.49366228      -0.30152509
C        0.57695508      -0.31936441       0.21065313
O        0.03118133       0.20246607       1.39520267
C       -1.68709893      -0.69363600       0.37708409
C       -0.70877245      -0.23624729      -0.62209301
O       -1.28535019       1.05108809      -0.42022217
H        1.49830323       1.55233165      -0.39197292
H        2.57289465       0.41889552       0.40939209
H        2.08205722       0.13994029      -1.28023890
H        0.88216039      -1.37240020       0.30533901
H       -2.75111774      -0.51863569       0.24312515
H       -1.49168483      -1.40526085       1.16707020
H       -0.75743232      -0.59314284      -1.64528994
H       -0.71186538       1.28030340       0.55347568
14
Frame=7 idx=003569 GeodesicLength=0.5244862860338224 rxn_smarts="[C:1]([C@@:2]1([H:10])[O:3][C:4]([H:11])([H:12])[C@:5]1([O:6][H:14])[H:13])([H:7])([H:8])[H:9]>>[C:1]([C@@:2]([O:3][H:14])([C@@:5]1([H:13])[C:4]([H:11])([H:12])[O:6]1)[H:10])([H:7])([H:8])[H:9]"
C        1.74733536       0.49734248      -0.29885382
C        0.57960505      -0.32606164       0.20715020
O        0.02419473       0.19332816       1.39195361
C       -1.68465774      -0.68076589       0.38337682
C       -0.70617271      -0.24245556      -0.62584870
O       -1.28616488       1.04387670      -0.43578352
H        1.49506972       1.55701099      -0.37497174
H        2.57322964       0.41706278       0.40828117
H        2.07536557       0.15806501      -1.28399309
H        0.89371179      -1.37559373       0.30187660
H       -2.74995286      -0.50269953       0.25995753
H       -1.50734942      -1.41367184       1.15862672
H       -0.75625682      -0.61701906      -1.64209148
H       -0.69795742       1.29158112       0.55031968
14
Frame=8 idx=003569 GeodesicLength=0.5993269351256362 rxn_smarts="[C:1]([C@@:2]1([H:10])[O:3][C:4]([H:11])([H:12])[C@:5]1([O:6][H:14])[H:13])([H:7])([H:8])[H:9]>>[C:1]([C@@:2]([O:3][H:14])([C@@:5]1([H:13])[C:4]([H:11])([H:12])[O:6]1)[H:10])([H:7])([H:8])[H:9]"
C        1.74483852       0.50098938      -0.29630066
C        0.58234188      -0.33274002       0.20367300
O        0.01745104       0.18417334       1.38875828
C       -1.68200796      -0.66816878       0.38942218
C       -0.70353917      -0.24869100      -0.62951553
O       -1.28711831       1.03642996      -0.45114759
H        1.49163947       1.56141610      -0.35836836
H        2.57358254       0.41555156       0.40693398
H        2.06851597       0.17598018      -1.28756969
H        0.90543602      -1.37865681       0.29852548
H       -2.74841971      -0.48681452       0.27628224
H       -1.52364344      -1.42130793       1.14988213
H       -0.75506907      -0.64070567      -1.63853857
H       -0.68400778       1.30254421       0.54796311
14
Frame=9 idx=003569 GeodesicLength=0.6740959503541037 rxn_smarts="[C:1]([C@@:2]1([H:10])[O:3][C:4]([H:11])([H:12])[C@:5]1([O:6][H:14])[H:13])([H:7])([H:8])[H:9]>>[C:1]([C@@:2]([O:3][H:14])([C@@:5]1([H:13])[C:4]([H:11])([H:12])[O:6]1)[H:10])([H:7])([H:8])[H:9]"
C        1.74226966       0.50461210      -0.29385621
C        0.58516558      -0.33940449       0.20021422
O        0.01094386       0.17498450       1.38560787
C       -1.67915603      -0.65584342       0.39520816
C       -0.70085891      -0.25498255      -0.63310708
O       -1.28819552       1.02871618      -0.46636972
H        1.48801634       1.56557120      -0.34209101
H        2.57394469       0.41433187       0.40534650
H        2.06147137       0.19375142      -1.29099915
H        0.91733994      -1.38158369       0.29526969
H       -2.74653496      -0.47092272       0.29213338
H       -1.54056989      -1.42816463       1.14087791
H       -0.75384532      -0.66425900      -1.63464045
H       -0.66999081       1.31319322       0.54640591
14
Frame=10 idx=003569 GeodesicLength=0.7488808459327498 rxn_smarts="[C:1]([C@@:2]1([H:10])[O:3][C:4]([H:11])([H:12])[C@:5]1([O:6][H:14])[H:13])([H:7])([H:8])[H:9]>>[C:1]([C@@:2]([O:3][H:14])([C@@:5]1([H:13])[C:4]([H:11])([H:12])[O:6]1)[H:10])([H:7])([H:8])[H:9]"
C        1.73962986       0.50821020      -0.29152567
C        0.58807062      -0.34605521       0.19676828
O        0.00467201       0.16572348       1.38252216
C       -1.67612186      -0.64375882       0.40076953
C       -0.69814714      -0.26131496      -0.63661657
O       -1.28942141       1.02075084      -0.48148251
H        1.48419361       1.56948035      -0.32621531
H        2.57429989       0.41344454       0.40355040
H        2.05427834       0.21130499      -1.29425768
H        0.92941161      -1.38437924       0.29208678
H       -2.74430934      -0.45506051       0.30748918
H       -1.55805639      -1.43423236       1.13156987
H       -0.75259435      -0.68767138      -1.63039228
H       -0.65590545       1.32355809       0.54573381
14
Frame=11 idx=003569 GeodesicLength=0.8236358104993036 rxn_smarts="[C:1]([C@@:2]1([H:10])[O:3][C:4]([H:11])([H:12])[C@:5]1([O:6][H:14])[H:13])([H:7])([H:8])[H:9]>>[C:1]([C@@:2]([O:3][H:14])([C@@:5]1([H:13])[C:4]([H:11])([H:12])[O:6]1)[H:10])([H:7])([H:8])[H:9]"
C        1.73691759       0.51179306      -0.28930299
C        0.59106234      -0.35269815       0.19332892
O       -0.00137372       0.15637639       1.37949101
C       -1.67291906      -0.63192441       0.40609618
C       -0.69539497      -0.26771613      -0.64005512
O       -1.29078963       1.01250189      -0.49652544
H        1.48017815       1.57316434      -0.31068369
H        2.57465242       0.41286805       0.40154046
H        2.04691046       0.22870075      -1.29736989
H        0.94166585      -1.38704071       0.28896847
H       -2.74176762      -0.43916526       0.32238161
H       -1.57611300      -1.43951872       1.12198419
H       -0.75130041      -0.71099301      -1.62579784
H       -0.64172839       1.33365193       0.54594414
14
Frame=12 idx=003569 GeodesicLength=0.8983588316786554 rxn_smarts="[C:1]([C@@:2]1([H:10])[O:3][C:4]([H:11])([H:12])[C@:5]1([O:6][H:14])[H:13])([H:7])([H:8])[H:9]>>[C:1]([C@@:2]([O:3][H:14])([C@@:5]1([H:13])[C:4]([H:11])([H:12])[O:6]1)[H:10])([H:7])([H:8])[H:9]"
C        1.73412648       0.51537062      -0.28718038
C        0.59414375      -0.35934281       0.18989029
O       -0.00720613       0.14691868       1.37651002
C       -1.66956234      -0.62033062       0.41118499
C       -0.69259631      -0.27421456      -0.64343465
O       -1.29229589       1.00394510      -0.51156018
H        1.47596882       1.57664714      -0.29543262
H        2.57500708       0.41257683       0.39931182
H        2.03933648       0.24599855      -1.30036137
H        0.95411852      -1.38957061       0.28590289
H       -2.73891766      -0.42317332       0.33684272
H       -1.59472870      -1.44401131       1.11213150
H       -0.74994903      -0.73429007      -1.62085529
H       -0.62744507       1.34347636       0.54705026
14
Frame=13 idx=003569 GeodesicLength=0.9730910066136679 rxn_smarts="[C:1]([C@@:2]1([H:10])[O:3][C:4]([H:11])([H:12])[C@:5]1([O:6][H:14])[H:13])([H:7])([H:8])[H:9]>>[C:1]([C@@:2]([O:3][H:14])([C@@:5]1([H:13])[C:4]([H:11])([H:12])[O:6]1)[H:10])([H:7])([H:8])[H:9]"
C        1.73125195       0.51894314      -0.28516252
C        0.59731172      -0.36598760       0.18644648
O       -0.01282377       0.13732343       1.37358757
C       -1.66606070      -0.60896162       0.41605154
C       -0.68975567      -0.28080661      -0.64675248
O       -1.29395368       0.99507048      -0.52660932
H        1.47155477       1.57992976      -0.28051851
H        2.57533867       0.41260881       0.39688830
H        2.03158617       0.26314675      -1.30321652
H        0.96676277      -1.39196534       0.28286984
H       -2.73577178      -0.40709848       0.35085323
H       -1.61386816      -1.44770340       1.10199993
H       -0.74854207      -0.75754895      -1.61556522
H       -0.61303023       1.35304963       0.54912769
14
Frame=14 idx=003569 GeodesicLength=1.0478038595924606 rxn_smarts="[C:1]([C@@:2]1([H:10])[O:3][C:4]([H:11])([H:12])[C@:5]1([O:6][H:14])[H:13])([H:7])([H:8])[H:9]>>[C:1]([C@@:2]([O:3][H:14])([C@@:5]1([H:13])[C:4]([H:11])([H:12])[O:6]1)[H:10])([H:7])([H:8])[H:9]"
C        1.72828828       0.52251972      -0.28324252
C        0.60056913      -0.37263984       0.18298984
O       -0.01823856       0.12756693       1.37071430
C       -1.66242624      -0.59781482       0.42068304
C       -0.68686798      -0.28751817      -0.65002229
O       -1.29576193       0.98584989      -0.54172401
H        1.46693313       1.58303131      -0.26589146
H        2.57564979       0.41294856       0.39426893
H        2.02363365       0.28019459      -1.30595238
H        0.97961091      -1.39422390       0.27985716
H       -2.73233389      -0.39087760       0.36444668
H       -1.63352299      -1.45057771       1.09160089
H       -0.74706752      -0.78082685      -1.60992548
H       -0.59846577       1.36236790       0.55219729
14
Frame=15 idx=003569 GeodesicLength=1.1225218047899463 rxn_smarts="[C:1]([C@@:2]1([H:10])[O:3][C:4]([H:11])([H:12])[C@:5]1([O:6][H:14])[H:13])([H:7])([H:8])[H:9]>>[C:1]([C@@:2]([O:3][H:14])([C@@:5]1([H:13])[C:4]([H:11])([H:12])[O:6]1)[H:10])([H:7])([H:8])[H:9]"
C        1.72522754       0.52611192      -0.28141599
C        0.60391919      -0.37930601       0.17951541
O       -0.02346338       0.11762364       1.36788833
C       -1.65866978      -0.58687568       0.42507642
C       -0.68392616      -0.29437858      -0.65325483
O       -1.29771404       0.97625054      -0.55697271
H        1.46210319       1.58597082      -0.25149881
H        2.57594115       0.41357965       0.39144223
H        2.01544513       0.29719724      -1.30858814
H        0.99267791      -1.39634589       0.27685544
H       -2.72860514      -0.37443942       0.37765621
H       -1.65368854      -1.45262591       1.08091846
H       -0.74551293      -0.80419899      -1.60392091
H       -0.58373412       1.37143665       0.55629890
14
Frame=16 idx=003569 GeodesicLength=1.197229081770739 rxn_smarts="[C:1]([C@@:2]1([H:10])[O:3][C:4]([H:11])([H:12])[C@:5]1([O:6][H:14])[H:13])([H:7])([H:8])[H:9]>>[C:1]([C@@:2]([O:3][H:14])([C@@:5]1([H:13])[C:4]([H:11])([H:12])[O:6]1)[H:10])([H:7])([H:8])[H:9]"
C        1.72206288       0.52971630      -0.27968752
C        0.60736013      -0.38598400       0.17601497
O       -0.02849807       0.10746700       1.36510741
C       -1.65479736      -0.57613381       0.42923646
C       -0.68093560      -0.30138224      -0.65644859
O       -1.29983304       0.96625664      -0.57236325
H        1.45703948       1.58874215      -0.23740875
H        2.57618407       0.41454830       0.38843911
H        2.00705777       0.31408955      -1.31110115
H        1.00596027      -1.39832240       0.27384495
H       -2.72459024      -0.35778865       0.39046842
H       -1.67432693      -1.45383205       1.06994306
H       -0.74387730      -0.82763615      -1.59755381
H       -0.56880607       1.38025937       0.56150869
