13
Frame=0 idx=000469 GeodesicLength=0.0 rxn_smarts="[O:1]([C@@:2]1([H:8])[C:3]([H:9])([H:10])[C@@:4]2([H:11])[N:5]([H:12])[C@@:6]12[H:13])[H:7]>>[C:2]1[C:3]([H:9])([H:10])[C@@:4]2([H:11])[N:5]([H:12])[C@@:6]12[H:13].[O:1]([H:7])[H:8]"
O        2.41376763       0.56391350       0.09162690
C        0.59936341       0.11309687      -0.59893831
C        0.13764660      -1.25584393      -0.17012922
C       -1.20368675      -0.55064577      -0.05391352
N       -1.12592829       0.25237207       1.14060598
C       -0.53653674       0.83734346      -0.08586735
H        2.27459861       1.44062601       0.46254735
H        1.76223385       0.51603875      -0.90662099
H        0.49104983      -1.61393141       0.79587040
H        0.25441308      -2.01334780      -0.94191690
H       -2.13374392      -0.79195249      -0.54941515
H       -2.01588094       0.72498128       1.27731970
H       -0.91729643       1.77734943      -0.46116883
13
Frame=1 idx=000469 GeodesicLength=0.044124021092697537 rxn_smarts="[O:1]([C@@:2]1([H:8])[C:3]([H:9])([H:10])[C@@:4]2([H:11])[N:5]([H:12])[C@@:6]12[H:13])[H:7]>>[C:2]1[C:3]([H:9])([H:10])[C@@:4]2([H:11])[N:5]([H:12])[C@@:6]12[H:13].[O:1]([H:7])[H:8]"
O        2.41365994       0.58759000       0.06634638
C        0.60271359       0.10541655      -0.58742910
C        0.13495729      -1.26402416      -0.16317411
C       -1.20145615      -0.55206992      -0.05545290
N       -1.12704982       0.25272141       1.13980000
C       -0.53228287       0.83660425      -0.08202198
H        2.26403402       1.43875451       0.48821865
H        1.75717500       0.51859228      -0.93478638
H        0.48292682      -1.62482700       0.80376640
H        0.25225846      -2.01955683      -0.93664438
H       -2.12908414      -0.78667581      -0.55862643
H       -2.01721020       0.72512910       1.27515877
H       -0.90064194       1.78234563      -0.45515490
13
Frame=2 idx=000469 GeodesicLength=0.08810772161383613 rxn_smarts="[O:1]([C@@:2]1([H:8])[C:3]([H:9])([H:10])[C@@:4]2([H:11])[N:5]([H:12])[C@@:6]12[H:13])[H:7]>>[C:2]1[C:3]([H:9])([H:10])[C@@:4]2([H:11])[N:5]([H:12])[C@@:6]12[H:13].[O:1]([H:7])[H:8]"
O        2.41259262       0.61335906       0.03971926
C        0.60621155       0.09807574      -0.57551068
C        0.13247875      -1.27192803      -0.15594054
C       -1.19906574      -0.55346475      -0.05703919
N       -1.12842381       0.25319490       1.13889716
C       -0.52813195       0.83600842      -0.07816876
H        2.25522912       1.43392033       0.51516548
H        1.75082586       0.52082316      -0.96353095
H        0.47479458      -1.63535833       0.81201231
H        0.25065673      -2.02549084      -0.93103089
H       -2.12399469      -0.78158922      -0.56805790
H       -2.01890533       0.72524436       1.27267227
H       -0.88426768       1.78720519      -0.44918755
13
Frame=3 idx=000469 GeodesicLength=0.13192593154613527 rxn_smarts="[O:1]([C@@:2]1([H:8])[C:3]([H:9])([H:10])[C@@:4]2([H:11])[N:5]([H:12])[C@@:6]12[H:13])[H:7]>>[C:2]1[C:3]([H:9])([H:10])[C@@:4]2([H:11])[N:5]([H:12])[C@@:6]12[H:13].[O:1]([H:7])[H:8]"
O        2.41023596       0.64167147       0.01192669
C        0.60987295       0.09108868      -0.56323199
C        0.13023362      -1.27954746      -0.14847430
C       -1.19649545      -0.55482497      -0.05865893
N       -1.12996880       0.25383450       1.13788705
C       -0.52408789       0.83557166      -0.07437283
H        2.24828971       1.42579578       0.54332576
H        1.74325991       0.52249281      -0.99271143
H        0.46669622      -1.64552963       0.82054995
H        0.24958456      -2.03114746      -0.92513065
H       -2.11848431      -0.77669501      -0.57764901
H       -2.02088150       0.72536842       1.26989774
H       -0.86825498       1.79192121      -0.44335808
13
Frame=4 idx=000469 GeodesicLength=0.17548852112699792 rxn_smarts="[O:1]([C@@:2]1([H:8])[C:3]([H:9])([H:10])[C@@:4]2([H:11])[N:5]([H:12])[C@@:6]12[H:13])[H:7]>>[C:2]1[C:3]([H:9])([H:10])[C@@:4]2([H:11])[N:5]([H:12])[C@@:6]12[H:13].[O:1]([H:7])[H:8]"
O        2.40611424       0.67302212      -0.01649549
C        0.61372874       0.08442981      -0.55068595
C        0.12821044      -1.28690540      -0.14090308
C       -1.19371837      -0.55614646      -0.06028120
N       -1.13148027       0.25467935       1.13675584
C       -0.52012594       0.83528039      -0.07076721
H        2.24309324       1.41435253       0.57230956
H        1.73476302       0.52318176      -1.02193958
H        0.45863771      -1.65545012       0.82920569
H        0.24889967      -2.03651614      -0.91911565
H       -2.11260178      -0.77196775      -0.58723256
H       -2.02289345       0.72556551       1.26694694
H       -0.85262726       1.79647441      -0.43779732
13
Frame=5 idx=000469 GeodesicLength=0.21880599557218136 rxn_smarts="[O:1]([C@@:2]1([H:8])[C:3]([H:9])([H:10])[C@@:4]2([H:11])[N:5]([H:12])[C@@:6]12[H:13])[H:7]>>[C:2]1[C:3]([H:9])([H:10])[C@@:4]2([H:11])[N:5]([H:12])[C@@:6]12[H:13].[O:1]([H:7])[H:8]"
O        2.39994520       0.70757898      -0.04585937
C        0.61771108       0.07830512      -0.53758075
C        0.12645346      -1.29386139      -0.13301118
C       -1.19077419      -0.55741109      -0.06201342
N       -1.13343431       0.25559496       1.13551059
C       -0.51636217       0.83522131      -0.06704483
H        2.24124894       1.39882328       0.60163343
H        1.72508607       0.52310848      -1.05121551
H        0.45053539      -1.66491857       0.83825665
H        0.24895345      -2.04145382      -0.91271885
H       -2.10619206      -0.76744638      -0.59722502
H       -2.02551432       0.72558109       1.26358069
H       -0.83765653       1.80087804      -0.43231244
13
Frame=6 idx=000469 GeodesicLength=0.2618408834230187 rxn_smarts="[O:1]([C@@:2]1([H:8])[C:3]([H:9])([H:10])[C@@:4]2([H:11])[N:5]([H:12])[C@@:6]12[H:13])[H:7]>>[C:2]1[C:3]([H:9])([H:10])[C@@:4]2([H:11])[N:5]([H:12])[C@@:6]12[H:13].[O:1]([H:7])[H:8]"
O        2.39121710       0.74576733      -0.07545608
C        0.62183949       0.07269827      -0.52404337
C        0.12495919      -1.30043811      -0.12494857
C       -1.18766110      -0.55862264      -0.06381931
N       -1.13563779       0.25664942       1.13414869
C       -0.51281639       0.83539011      -0.06336111
H        2.24277272       1.37911681       0.63065352
H        1.71465659       0.52197467      -1.07995966
H        0.44241413      -1.67403885       0.84751512
H        0.24961409      -2.04596442      -0.90614573
H       -2.09935940      -0.76314657      -0.60742463
H       -2.02852678       0.72551046       1.25993847
H       -0.82347184       1.80510352      -0.42709733
13
Frame=7 idx=000469 GeodesicLength=0.30451235020501843 rxn_smarts="[O:1]([C@@:2]1([H:8])[C:3]([H:9])([H:10])[C@@:4]2([H:11])[N:5]([H:12])[C@@:6]12[H:13])[H:7]>>[C:2]1[C:3]([H:9])([H:10])[C@@:4]2([H:11])[N:5]([H:12])[C@@:6]12[H:13].[O:1]([H:7])[H:8]"
O        2.37932826       0.78781031      -0.10427989
C        0.62609554       0.06758793      -0.51033257
C        0.12371111      -1.30665303      -0.11693984
C       -1.18435264      -0.55978801      -0.06561566
N       -1.13772628       0.25795449       1.13263860
C       -0.50950872       0.83576971      -0.06001326
H        2.24733539       1.35523875       0.65858234
H        1.70410600       0.51958788      -1.10736419
H        0.43432562      -1.68293164       0.85668300
H        0.25065220      -2.05003602      -0.89966498
H       -2.09225470      -0.75913252      -0.61741074
H       -2.03150314       0.72549435       1.25622138
H       -0.81020863       1.80909779      -0.42250419
13
Frame=8 idx=000469 GeodesicLength=0.34692603699944724 rxn_smarts="[O:1]([C@@:2]1([H:8])[C:3]([H:9])([H:10])[C@@:4]2([H:11])[N:5]([H:12])[C@@:6]12[H:13])[H:7]>>[C:2]1[C:3]([H:9])([H:10])[C@@:4]2([H:11])[N:5]([H:12])[C@@:6]12[H:13].[O:1]([H:7])[H:8]"
O        2.36434609       0.83293631      -0.13244419
C        0.63050261       0.06311927      -0.49535184
C        0.12258404      -1.31247910      -0.10854400
C       -1.18099262      -0.56086281      -0.06776734
N       -1.14087965       0.25888802       1.13107904
C       -0.50645709       0.83638538      -0.05594052
H        2.25759733       1.32826448       0.68258758
H        1.69316263       0.51620097      -1.13296866
H        0.42556398      -1.69178582       0.86628243
H        0.25259078      -2.05344195      -0.89290129
H       -2.08447311      -0.75502795      -0.62854237
H       -2.03573862       0.72483499       1.25192174
H       -0.79780637       1.81296820      -0.41741059
13
Frame=9 idx=000469 GeodesicLength=0.389219205487509 rxn_smarts="[O:1]([C@@:2]1([H:8])[C:3]([H:9])([H:10])[C@@:4]2([H:11])[N:5]([H:12])[C@@:6]12[H:13])[H:7]>>[C:2]1[C:3]([H:9])([H:10])[C@@:4]2([H:11])[N:5]([H:12])[C@@:6]12[H:13].[O:1]([H:7])[H:8]"
O        2.34617950       0.88056682      -0.15890801
C        0.63506610       0.05921261      -0.47928499
C        0.12152145      -1.31798943      -0.09997068
C       -1.17761931      -0.56187133      -0.07022289
N       -1.14486749       0.25951805       1.12949029
C       -0.50368838       0.83718960      -0.05133669
H        2.27312081       1.29903121       0.70156408
H        1.68251232       0.51190900      -1.15596496
H        0.41606780      -1.70079885       0.87605743
H        0.25521589      -2.05622600      -0.88614622
H       -2.07621360      -0.75087475      -0.64051726
H       -2.04096726       0.72365545       1.24724687
H       -0.78632783       1.81667762      -0.41200699
13
Frame=10 idx=000469 GeodesicLength=0.4313442941557725 rxn_smarts="[O:1]([C@@:2]1([H:8])[C:3]([H:9])([H:10])[C@@:4]2([H:11])[N:5]([H:12])[C@@:6]12[H:13])[H:7]>>[C:2]1[C:3]([H:9])([H:10])[C@@:4]2([H:11])[N:5]([H:12])[C@@:6]12[H:13].[O:1]([H:7])[H:8]"
O        2.32471823       0.92978542      -0.18250742
C        0.63968965       0.05579786      -0.46258821
C        0.12051723      -1.32321621      -0.09149407
C       -1.17416406      -0.56282195      -0.07282992
N       -1.14912848       0.26004108       1.12780493
C       -0.50122042       0.83814938      -0.04664747
H        2.29256372       1.26809353       0.71486650
H        1.67282119       0.50705919      -1.17556484
H        0.40598339      -1.71006927       0.88561230
H        0.25824642      -2.05842207      -0.87966010
H       -2.06765259      -0.74678907      -0.65266344
H       -2.04652363       0.72220960       1.24243894
H       -0.77585065       1.82018252      -0.40676721
13
Frame=11 idx=000469 GeodesicLength=0.47357329934958897 rxn_smarts="[O:1]([C@@:2]1([H:8])[C:3]([H:9])([H:10])[C@@:4]2([H:11])[N:5]([H:12])[C@@:6]12[H:13])[H:7]>>[C:2]1[C:3]([H:9])([H:10])[C@@:4]2([H:11])[N:5]([H:12])[C@@:6]12[H:13].[O:1]([H:7])[H:8]"
O        2.30117340       0.97840062      -0.20336102
C        0.64452768       0.05270705      -0.44419746
C        0.11931836      -1.32836750      -0.08282204
C       -1.17078499      -0.56368735      -0.07594287
N       -1.15461186       0.25981205       1.12617787
C       -0.49887311       0.83914824      -0.04084596
H        2.31670617       1.23895864       0.72006335
H        1.66382962       0.50181663      -1.19167044
H        0.39440565      -1.72016418       0.89527888
H        0.26188453      -2.05999981      -0.87331685
H       -2.05848348      -0.74222477      -0.66624802
H       -2.05339890       0.71993316       1.23715352
H       -0.76569306       1.82366724      -0.40026895
13
Frame=12 idx=000469 GeodesicLength=0.5162956209952432 rxn_smarts="[O:1]([C@@:2]1([H:8])[C:3]([H:9])([H:10])[C@@:4]2([H:11])[N:5]([H:12])[C@@:6]12[H:13])[H:7]>>[C:2]1[C:3]([H:9])([H:10])[C@@:4]2([H:11])[N:5]([H:12])[C@@:6]12[H:13].[O:1]([H:7])[H:8]"
O        2.27563954       1.02633689      -0.22205725
C        0.64958358       0.05001979      -0.42369601
C        0.11798356      -1.33337148      -0.07369744
C       -1.16740739      -0.56442856      -0.07964152
N       -1.16168414       0.25875911       1.12455068
C       -0.49666765       0.84023210      -0.03364988
H        2.34611595       1.21094369       0.71705085
H        1.65502565       0.49654451      -1.20453849
H        0.38120327      -1.73096531       0.90530537
H        0.26644716      -2.06089068      -0.86676351
H       -2.04835516      -0.73707555      -0.68165571
H       -2.06199249       0.71672056       1.23104014
H       -0.75589188       1.82717493      -0.39224724
13
Frame=13 idx=000469 GeodesicLength=0.5593829467850638 rxn_smarts="[O:1]([C@@:2]1([H:8])[C:3]([H:9])([H:10])[C@@:4]2([H:11])[N:5]([H:12])[C@@:6]12[H:13])[H:7]>>[C:2]1[C:3]([H:9])([H:10])[C@@:4]2([H:11])[N:5]([H:12])[C@@:6]12[H:13].[O:1]([H:7])[H:8]"
O        2.24888072       1.07217099      -0.23792806
C        0.65478539       0.04759725      -0.40159901
C        0.11649448      -1.33830142      -0.06437927
C       -1.16399200      -0.56505642      -0.08376749
N       -1.16980599       0.25708613       1.12291242
C       -0.49456792       0.84135097      -0.02545315
H        2.37879040       1.18528340       0.70628969
H        1.64668955       0.49151686      -1.21424792
H        0.36658255      -1.74252506       0.91533477
H        0.27164066      -2.06121143      -0.86024866
H       -2.03748252      -0.73145161      -0.69824910
H       -2.07169248       0.71284134       1.22437696
H       -0.74632284       1.83069899      -0.38304118
13
Frame=14 idx=000469 GeodesicLength=0.6027542419243372 rxn_smarts="[O:1]([C@@:2]1([H:8])[C:3]([H:9])([H:10])[C@@:4]2([H:11])[N:5]([H:12])[C@@:6]12[H:13])[H:7]>>[C:2]1[C:3]([H:9])([H:10])[C@@:4]2([H:11])[N:5]([H:12])[C@@:6]12[H:13].[O:1]([H:7])[H:8]"
O        2.22142425       1.11524918      -0.25096265
C        0.66007594       0.04539711      -0.37813304
C        0.11489874      -1.34315073      -0.05491301
C       -1.16046158      -0.56555457      -0.08823643
N       -1.17874882       0.25492156       1.12122780
C       -0.49254699       0.84250714      -0.01640684
H        2.41352471       1.16212750       0.68842042
H        1.63866674       0.48694233      -1.22117556
H        0.35071971      -1.75474012       0.92525561
H        0.27743656      -2.06101780      -0.85373894
H       -2.02583652      -0.72538441      -0.71577008
H       -2.08224074       0.70843999       1.21720341
H       -0.73691198       1.83426282      -0.37277072
13
Frame=15 idx=000469 GeodesicLength=0.6463914087792475 rxn_smarts="[O:1]([C@@:2]1([H:8])[C:3]([H:9])([H:10])[C@@:4]2([H:11])[N:5]([H:12])[C@@:6]12[H:13])[H:7]>>[C:2]1[C:3]([H:9])([H:10])[C@@:4]2([H:11])[N:5]([H:12])[C@@:6]12[H:13].[O:1]([H:7])[H:8]"
O        2.19380006       1.15514828      -0.26141736
C        0.66545702       0.04335915      -0.35328959
C        0.11320716      -1.34794221      -0.04527249
C       -1.15675984      -0.56589852      -0.09303403
N       -1.18847114       0.25228437       1.11948478
C       -0.49053735       0.84369120      -0.00647424
H        2.44952369       1.14182041       0.66397703
H        1.63066843       0.48281124      -1.22579493
H        0.33364500      -1.76758817       0.93504557
H        0.28384634      -2.06035415      -0.84716273
H       -2.01331453      -0.71880087      -0.73421295
H       -2.09358047       0.70355870       1.20947164
H       -0.72748436       1.83791057      -0.36132069
13
Frame=16 idx=000469 GeodesicLength=0.6902070982721497 rxn_smarts="[O:1]([C@@:2]1([H:8])[C:3]([H:9])([H:10])[C@@:4]2([H:11])[N:5]([H:12])[C@@:6]12[H:13])[H:7]>>[C:2]1[C:3]([H:9])([H:10])[C@@:4]2([H:11])[N:5]([H:12])[C@@:6]12[H:13].[O:1]([H:7])[H:8]"
O        2.16640371       1.19165743      -0.26945600
C        0.67089970       0.04142805      -0.32725286
C        0.11145126      -1.35268467      -0.03550170
C       -1.15282321      -0.56607160      -0.09809207
N       -1.19877172       0.24927818       1.11765996
C       -0.48849241       0.84489974       0.00422598
H        2.48578670       1.12442963       0.63378241
H        1.62253218       0.47905785      -1.22854064
H        0.31552709      -1.78098553       0.94460259
H        0.29081242      -2.05928182      -0.84050588
H       -1.99989860      -0.71170634      -0.75336755
H       -2.10548531       0.69831984       1.20121933
H       -0.71794182       1.84165926      -0.34877356
