17
Frame=0 idx=009563 GeodesicLength=0.0 rxn_smarts="[C:1]1([H:8])([H:9])[C:2]([H:10])([H:11])[C:3]12[C:4]([H:12])([H:13])[C@@:5]1([H:14])[C:6]([H:15])([H:16])[C@@:7]21[H:17]>>[C:1]1([H:8])([H:9])[C:2]([H:10])([H:11])[C:3]12[C:4]([H:12])([H:13])[C@:7]2([C:6]([C:5][H:14])([H:15])[H:16])[H:17]"
C       -2.09209689      -0.15966763      -0.00996815
C       -1.42956522       0.95951783      -0.79179956
C       -0.63088425      -0.14510853      -0.22968995
C        0.37866497      -1.06111552      -0.75324356
C        2.28610911      -0.22419963      -0.02014122
C        1.60396621       0.81705702       0.78897249
C        0.51106848      -0.19785459       0.69127870
H       -2.68463119      -0.87892585      -0.56121931
H       -2.46129193       0.07253116       0.98136553
H       -1.58060969       0.98680268      -1.86360779
H       -1.36240967       1.93003944      -0.31589608
H        0.25808896      -2.11837602      -0.55342736
H        0.86245392      -0.81960013      -1.68240874
H        2.61606243      -1.01579309       0.67161462
H        1.40811145       1.76305061       0.28684402
H        1.90351299       0.95901303       1.82615844
H        0.41345038      -0.86737081       1.53516799
17
Frame=1 idx=009563 GeodesicLength=0.04555721898575228 rxn_smarts="[C:1]1([H:8])([H:9])[C:2]([H:10])([H:11])[C:3]12[C:4]([H:12])([H:13])[C@@:5]1([H:14])[C:6]([H:15])([H:16])[C@@:7]21[H:17]>>[C:1]1([H:8])([H:9])[C:2]([H:10])([H:11])[C:3]12[C:4]([H:12])([H:13])[C@:7]2([C:6]([C:5][H:14])([H:15])[H:16])[H:17]"
C       -2.08941980      -0.16576419      -0.01325858
C       -1.43013634       0.96267464      -0.78397368
C       -0.62719866      -0.14199050      -0.22729717
C        0.38394311      -1.05666985      -0.75543656
C        2.27484028      -0.24474507      -0.00958083
C        1.60596244       0.81809010       0.78063472
C        0.51023030      -0.19705127       0.70069787
H       -2.67600005      -0.88412744      -0.57205917
H       -2.46394913       0.05695818       0.97825076
H       -1.57730566       0.99731691      -1.85611742
H       -1.36962928       1.92985168      -0.30038466
H        0.25414328      -2.11547974      -0.56849441
H        0.85853365      -0.81126813      -1.68919697
H        2.61777094      -1.02385806       0.68890494
H        1.41368429       1.75453391       0.25973071
H        1.90932440       0.97576292       1.81431220
H        0.40520623      -0.85423409       1.55326824
17
Frame=2 idx=009563 GeodesicLength=0.09108572907522394 rxn_smarts="[C:1]1([H:8])([H:9])[C:2]([H:10])([H:11])[C:3]12[C:4]([H:12])([H:13])[C@@:5]1([H:14])[C:6]([H:15])([H:16])[C@@:7]21[H:17]>>[C:1]1([H:8])([H:9])[C:2]([H:10])([H:11])[C:3]12[C:4]([H:12])([H:13])[C@:7]2([C:6]([C:5][H:14])([H:15])[H:16])[H:17]"
C       -2.08671245      -0.17177464      -0.01652758
C       -1.43073009       0.96566731      -0.77625715
C       -0.62355830      -0.13895475      -0.22487253
C        0.38919311      -1.05225793      -0.75762973
C        2.26334672      -0.26487418       0.00119169
C        1.60791581       0.81887513       0.77234765
C        0.50931527      -0.19620023       0.71014192
H       -2.66738266      -0.88919918      -0.58272310
H       -2.46648403       0.04162106       0.97504149
H       -1.57410908       1.00754482      -1.84866571
H       -1.37674007       1.92947974      -0.28518973
H        0.25026512      -2.11241618      -0.58368922
H        0.85486581      -0.80284610      -1.69569670
H        2.61952911      -1.03166087       0.70559001
H        1.41907634       1.74556630       0.23321435
H        1.91534336       0.99192714       1.80223525
H        0.39686603      -0.84049743       1.57148911
17
Frame=3 idx=009563 GeodesicLength=0.13656845283328703 rxn_smarts="[C:1]1([H:8])([H:9])[C:2]([H:10])([H:11])[C:3]12[C:4]([H:12])([H:13])[C@@:5]1([H:14])[C:6]([H:15])([H:16])[C@@:7]21[H:17]>>[C:1]1([H:8])([H:9])[C:2]([H:10])([H:11])[C:3]12[C:4]([H:12])([H:13])[C@:7]2([C:6]([C:5][H:14])([H:15])[H:16])[H:17]"
C       -2.08397335      -0.17768291      -0.01975289
C       -1.43134270       0.96848174      -0.76868676
C       -0.61996223      -0.13600467      -0.22242215
C        0.39441906      -1.04787943      -0.75982886
C        2.25162372      -0.28455769       0.01214822
C        1.60981249       0.81940900       0.76415418
C        0.50831799      -0.19531056       0.71961280
H       -2.65879446      -0.89414805      -0.59314984
H       -2.46888117       0.02658874       0.97176056
H       -1.57103924       1.01742822      -1.84129221
H       -1.38371913       1.92893649      -0.27038814
H        0.24647026      -2.10918371      -0.59901130
H        0.85145385      -0.79433431      -1.70192382
H        2.62135997      -1.03920537       0.72160736
H        1.42425569       1.73619487       0.20738301
H        1.92155522       1.00744997       1.78998987
H        0.38844403      -0.82618232       1.58979995
17
Frame=4 idx=009563 GeodesicLength=0.18198692786816442 rxn_smarts="[C:1]1([H:8])([H:9])[C:2]([H:10])([H:11])[C:3]12[C:4]([H:12])([H:13])[C@@:5]1([H:14])[C:6]([H:15])([H:16])[C@@:7]21[H:17]>>[C:1]1([H:8])([H:9])[C:2]([H:10])([H:11])[C:3]12[C:4]([H:12])([H:13])[C@:7]2([C:6]([C:5][H:14])([H:15])[H:16])[H:17]"
C       -2.08120195      -0.18347453      -0.02291295
C       -1.43196976       0.97110461      -0.76129829
C       -0.61640962      -0.13314256      -0.21995183
C        0.39962429      -1.04353301      -0.76203871
C        2.23966840      -0.30376918       0.02326032
C        1.61163934       0.81969054       0.75609643
C        0.50723305      -0.19439110       0.72911215
H       -2.65025164      -0.89898323      -0.60328100
H       -2.47112750       0.01192680       0.96843131
H       -1.56811364       1.02691052      -1.83403656
H       -1.39054447       1.92823555      -0.25605334
H        0.24277301      -2.10577953      -0.61445833
H        0.84829910      -0.78573264      -1.70789252
H        2.62328790      -1.04650046       0.73689646
H        1.42919285       1.72647050       0.18231756
H        1.92794508       1.02228015       1.77764139
H        0.37995557      -0.81131244       1.60816790
17
Frame=5 idx=009563 GeodesicLength=0.2273192378297344 rxn_smarts="[C:1]1([H:8])([H:9])[C:2]([H:10])([H:11])[C:3]12[C:4]([H:12])([H:13])[C@@:5]1([H:14])[C:6]([H:15])([H:16])[C@@:7]21[H:17]>>[C:1]1([H:8])([H:9])[C:2]([H:10])([H:11])[C:3]12[C:4]([H:12])([H:13])[C@:7]2([C:6]([C:5][H:14])([H:15])[H:16])[H:17]"
C       -2.07839529      -0.18913447      -0.02598511
C       -1.43260491       0.97352538      -0.75411910
C       -0.61289634      -0.13036987      -0.21746238
C        0.40481573      -1.03921702      -0.76426115
C        2.22748566      -0.32250456       0.03450441
C        1.61338508       0.81972251       0.74821238
C        0.50605772      -0.19345314       0.73864515
H       -2.64176516      -0.90371094      -0.61306034
H       -2.47321130      -0.00230246       0.96507747
H       -1.56534537       1.03594268      -1.82692884
H       -1.39719505       1.92739011      -0.24224610
H        0.23918432      -2.10220555      -0.63002601
H        0.84540132      -0.77704304      -1.71361720
H        2.62532729      -1.05354248       0.75140155
H        1.43387621       1.71644840       0.15807398
H        1.93446818       1.03639423       1.76525266
H        0.37141190      -0.79593980       1.62653862
17
Frame=6 idx=009563 GeodesicLength=0.272599891175639 rxn_smarts="[C:1]1([H:8])([H:9])[C:2]([H:10])([H:11])[C:3]12[C:4]([H:12])([H:13])[C@@:5]1([H:14])[C:6]([H:15])([H:16])[C@@:7]21[H:17]>>[C:1]1([H:8])([H:9])[C:2]([H:10])([H:11])[C:3]12[C:4]([H:12])([H:13])[C@:7]2([C:6]([C:5][H:14])([H:15])[H:16])[H:17]"
C       -2.07556149      -0.19469262      -0.02899063
C       -1.43325439       0.97576635      -0.74712305
C       -0.60942451      -0.12768070      -0.21495663
C        0.40999036      -1.03493150      -0.76649181
C        2.21507708      -0.34080637       0.04589067
C        1.61506299       0.81950713       0.74047698
C        0.50478847      -0.19247821       0.74821399
H       -2.63332452      -0.90835389      -0.62255410
H       -2.47516029      -0.01618543       0.96169393
H       -1.56271293       1.04458702      -1.81995441
H       -1.40371277       1.92641302      -0.22888955
H        0.23570277      -2.09845595      -0.64569968
H        0.84275387      -0.76826948      -1.71910127
H        2.62747805      -1.06038326       0.76515789
H        1.43833257       1.70612888       0.13457847
H        1.94115474       1.04982272       1.75280300
H        0.36280999      -0.77998774       1.64494621
17
Frame=7 idx=009563 GeodesicLength=0.3178394707739255 rxn_smarts="[C:1]1([H:8])([H:9])[C:2]([H:10])([H:11])[C:3]12[C:4]([H:12])([H:13])[C@@:5]1([H:14])[C:6]([H:15])([H:16])[C@@:7]21[H:17]>>[C:1]1([H:8])([H:9])[C:2]([H:10])([H:11])[C:3]12[C:4]([H:12])([H:13])[C@:7]2([C:6]([C:5][H:14])([H:15])[H:16])[H:17]"
C       -2.07270700      -0.20017760      -0.03195090
C       -1.43392749       0.97784363      -0.74027472
C       -0.60599455      -0.12506784      -0.21243016
C        0.41514644      -1.03067148      -0.76871840
C        2.20245122      -0.35872872       0.05743861
C        1.61669606       0.81904933       0.73286144
C        0.50342431      -0.19144401       0.75782362
H       -2.62491502      -0.91292945      -0.63182383
H       -2.47699923      -0.02981066       0.95826721
H       -1.56019747       1.05290213      -1.81308021
H       -1.41014221       1.92530172      -0.21590165
H        0.23232150      -2.09452571      -0.66146901
H        0.84035261      -0.75940892      -1.72434634
H        2.62971308      -1.06706475       0.77821147
H        1.44262210       1.69551282       0.11174211
H        1.94801748       1.06261688       1.74026563
H        0.35413817      -0.76339736       1.66338513
17
Frame=8 idx=009563 GeodesicLength=0.3630650913205239 rxn_smarts="[C:1]1([H:8])([H:9])[C:2]([H:10])([H:11])[C:3]12[C:4]([H:12])([H:13])[C@@:5]1([H:14])[C:6]([H:15])([H:16])[C@@:7]21[H:17]>>[C:1]1([H:8])([H:9])[C:2]([H:10])([H:11])[C:3]12[C:4]([H:12])([H:13])[C@:7]2([C:6]([C:5][H:14])([H:15])[H:16])[H:17]"
C       -2.06983212      -0.20561078      -0.03488266
C       -1.43463012       0.97977008      -0.73354427
C       -0.60260474      -0.12252418      -0.20987856
C        0.42028720      -1.02643537      -0.77092992
C        2.18960275      -0.37631958       0.06915430
C        1.61829330       0.81834978       0.72534565
C        0.50196186      -0.19033212       0.76747947
H       -2.61651357      -0.91745042      -0.64092170
H       -2.47874798      -0.04324334       0.95478511
H       -1.55777760       1.06093522      -1.80627978
H       -1.41652499       1.92405397      -0.20321443
H        0.22904594      -2.09040949      -0.67732062
H        0.83819260      -0.75046562      -1.72934985
H        2.63201651      -1.07362932       0.79057904
H        1.44678115       1.68460378       0.08950086
H        1.95506484       1.07481177       1.72762125
H        0.34538496      -0.74610440       1.68185612
17
Frame=9 idx=009563 GeodesicLength=0.4082530088129166 rxn_smarts="[C:1]1([H:8])([H:9])[C:2]([H:10])([H:11])[C:3]12[C:4]([H:12])([H:13])[C@@:5]1([H:14])[C:6]([H:15])([H:16])[C@@:7]21[H:17]>>[C:1]1([H:8])([H:9])[C:2]([H:10])([H:11])[C:3]12[C:4]([H:12])([H:13])[C@:7]2([C:6]([C:5][H:14])([H:15])[H:16])[H:17]"
C       -2.06693591      -0.21098014      -0.03776281
C       -1.43535776       0.98153473      -0.72696521
C       -0.59925434      -0.12005361      -0.20730882
C        0.42541637      -1.02222197      -0.77313184
C        2.17653243      -0.39355396       0.08102247
C        1.61984254       0.81741097       0.71796959
C        0.50039557      -0.18915118       0.77718620
H       -2.60813852      -0.92192537      -0.64979199
H       -2.48039291      -0.05642072       0.95127272
H       -1.55547531       1.06863759      -1.79959082
H       -1.42282621       1.92268439      -0.19089588
H        0.22588774      -2.08610945      -0.69325095
H        0.83627056      -0.74143743      -1.73412591
H        2.63440638      -1.08007340       0.80220728
H        1.45078819       1.67344481       0.06791634
H        1.96227095       1.08636981       1.71493263
H        0.33657023      -0.72815506       1.70031703
17
Frame=10 idx=009563 GeodesicLength=0.45342375291920345 rxn_smarts="[C:1]1([H:8])([H:9])[C:2]([H:10])([H:11])[C:3]12[C:4]([H:12])([H:13])[C@@:5]1([H:14])[C:6]([H:15])([H:16])[C@@:7]21[H:17]>>[C:1]1([H:8])([H:9])[C:2]([H:10])([H:11])[C:3]12[C:4]([H:12])([H:13])[C@:7]2([C:6]([C:5][H:14])([H:15])[H:16])[H:17]"
C       -2.06402367      -0.21631018      -0.04061346
C       -1.43611905       0.98315210      -0.72050815
C       -0.59594373      -0.11764876      -0.20471548
C        0.43053420      -1.01803104      -0.77530955
C        2.16323760      -0.41047256       0.09305397
C        1.62136157       0.81623436       0.71071280
C        0.49872363      -0.18787879       0.78695047
H       -2.59977407      -0.92636442      -0.65849745
H       -2.48195698      -0.06942518       0.94771495
H       -1.55326804       1.07606389      -1.79298732
H       -1.42909301       1.92119108      -0.17887728
H        0.22284679      -2.08162312      -0.70923671
H        0.83457873      -0.73233147      -1.73867197
H        2.63686743      -1.08643427       0.81310940
H        1.45468547       1.66203499       0.04692591
H        1.96965877       1.09732064       1.70217770
H        0.32768436      -0.70947729       1.71877218
17
Frame=11 idx=009563 GeodesicLength=0.4985955826150982 rxn_smarts="[C:1]1([H:8])([H:9])[C:2]([H:10])([H:11])[C:3]12[C:4]([H:12])([H:13])[C@@:5]1([H:14])[C:6]([H:15])([H:16])[C@@:7]21[H:17]>>[C:1]1([H:8])([H:9])[C:2]([H:10])([H:11])[C:3]12[C:4]([H:12])([H:13])[C@:7]2([C:6]([C:5][H:14])([H:15])[H:16])[H:17]"
C       -2.06109685      -0.22162160      -0.04345295
C       -1.43691997       0.98463455      -0.71414662
C       -0.59267249      -0.11530321      -0.20209501
C        0.43564124      -1.01386098      -0.77745147
C        2.14971380      -0.42711302       0.10526547
C        1.62286392       0.81481939       0.70355753
C        0.49694293      -0.18649447       0.79677921
H       -2.59140265      -0.93077588      -0.66709124
H       -2.48345319      -0.08232406       0.94409828
H       -1.55114107       1.08325874      -1.78644415
H       -1.43536623       1.91956984      -0.16709575
H        0.21991923      -2.07694733      -0.72526603
H        0.83311329      -0.72315197      -1.74298425
H        2.63938356      -1.09274373       0.82330249
H        1.45850534       1.65036867       0.02647181
H        1.97724604       1.10769247       1.68933479
H        0.31872312      -0.69000741       1.73721789
17
Frame=12 idx=009563 GeodesicLength=0.5437861902174481 rxn_smarts="[C:1]1([H:8])([H:9])[C:2]([H:10])([H:11])[C:3]12[C:4]([H:12])([H:13])[C@@:5]1([H:14])[C:6]([H:15])([H:16])[C@@:7]21[H:17]>>[C:1]1([H:8])([H:9])[C:2]([H:10])([H:11])[C:3]12[C:4]([H:12])([H:13])[C@:7]2([C:6]([C:5][H:14])([H:15])[H:16])[H:17]"
C       -2.05815821      -0.22693622      -0.04630079
C       -1.43777018       0.98599309      -0.70785501
C       -0.58944158      -0.11300954      -0.19944306
C        0.44073713      -1.00971015      -0.77954454
C        2.13595370      -0.44350917       0.11767229
C        1.62436540       0.81316446       0.69648803
C        0.49504974      -0.18497387       0.80667977
H       -2.58300599      -0.93516953      -0.67562760
H       -2.48489606      -0.09518928       0.94040741
H       -1.54908245       1.09026691      -1.77993659
H       -1.44168448       1.91781523      -0.15549255
H        0.21710492      -2.07207925      -0.74132254
H        0.83186902      -0.71390182      -1.74705773
H        2.64193792      -1.09903727       0.83279645
H        1.46228376       1.63844134       0.00650157
H        1.98505698       1.11750584       1.67638449
H        0.30968038      -0.66967076       1.75565040
17
Frame=13 idx=009563 GeodesicLength=0.5890125391016795 rxn_smarts="[C:1]1([H:8])([H:9])[C:2]([H:10])([H:11])[C:3]12[C:4]([H:12])([H:13])[C@@:5]1([H:14])[C:6]([H:15])([H:16])[C@@:7]21[H:17]>>[C:1]1([H:8])([H:9])[C:2]([H:10])([H:11])[C:3]12[C:4]([H:12])([H:13])[C@:7]2([C:6]([C:5][H:14])([H:15])[H:16])[H:17]"
C       -2.05520859      -0.23227428      -0.04917462
C       -1.43867757       0.98723780      -0.70160842
C       -0.58625100      -0.11076258      -0.19675738
C        0.44582391      -1.00557811      -0.78157666
C        2.12194967      -0.45968928       0.13029388
C        1.62587850       0.81126704       0.68948842
C        0.49304112      -0.18329512       0.81665938
H       -2.57456980      -0.93954980      -0.68415647
H       -2.48629694      -0.10808607       0.93662678
H       -1.54708204       1.09713231      -1.77343952
H       -1.44808405       1.91591943      -0.14401033
H        0.21440610      -2.06701747      -0.75739198
H        0.83084320      -0.70458542      -1.75088765
H        2.64451136      -1.10534112       0.84160074
H        1.46605067       1.62624212      -0.01303128
H        1.99311295       1.12677531       1.66330230
H        0.30055249      -0.64839476       1.77406279
17
Frame=14 idx=009563 GeodesicLength=0.6342990592636191 rxn_smarts="[C:1]1([H:8])([H:9])[C:2]([H:10])([H:11])[C:3]12[C:4]([H:12])([H:13])[C@@:5]1([H:14])[C:6]([H:15])([H:16])[C@@:7]21[H:17]>>[C:1]1([H:8])([H:9])[C:2]([H:10])([H:11])[C:3]12[C:4]([H:12])([H:13])[C@:7]2([C:6]([C:5][H:14])([H:15])[H:16])[H:17]"
C       -2.05224278      -0.23765394      -0.05208809
C       -1.43964782       0.98837477      -0.69538266
C       -0.58309700      -0.10855690      -0.19403418
C        0.45090483      -1.00146352      -0.78353753
C        2.10768708      -0.47568899       0.14314915
C        1.62741496       0.80912644       0.68254780
C        0.49091264      -0.18143594       0.82672710
H       -2.56607016      -0.94392372      -0.69271720
H       -2.48765897      -0.12107176       0.93274331
H       -1.54512794       1.10388732      -1.76692598
H       -1.45459514       1.91387319      -0.13259696
H        0.21181831      -2.06175875      -0.77346645
H        0.83003003      -0.69520518      -1.75447271
H        2.64707090      -1.11166584       0.84971751
H        1.46984694       1.61376083      -0.03216813
H        2.00142790       1.13552418       1.65006807
H        0.29132622      -0.62612219       1.79243694
17
Frame=15 idx=009563 GeodesicLength=0.6796156970308005 rxn_smarts="[C:1]1([H:8])([H:9])[C:2]([H:10])([H:11])[C:3]12[C:4]([H:12])([H:13])[C@@:5]1([H:14])[C:6]([H:15])([H:16])[C@@:7]21[H:17]>>[C:1]1([H:8])([H:9])[C:2]([H:10])([H:11])[C:3]12[C:4]([H:12])([H:13])[C@:7]2([C:6]([C:5][H:14])([H:15])[H:16])[H:17]"
C       -2.04926183      -0.24305147      -0.05501570
C       -1.44067801       0.98938821      -0.68922593
C       -0.57998180      -0.10639044      -0.19127600
C        0.45598414      -0.99736228      -0.78542472
C        2.09315905      -0.49145868       0.15621565
C        1.62895745       0.80673990       0.67572282
C        0.48865635      -0.17939988       0.83688719
H       -2.55752515      -0.94830117      -0.70123401
H       -2.48896412      -0.13406210       0.92878252
H       -1.54324272       1.11046010      -1.76044926
H       -1.46119563       1.91169062      -0.12135433
H        0.20936276      -2.05630073      -0.78953241
H        0.82943225      -0.68576158      -1.75781390
H        2.64965024      -1.11803235       0.85704547
H        1.47362626       1.60105019      -0.05081127
H        2.00998663       1.14368193       1.63676765
H        0.28203413      -0.60289026       1.81071624
17
Frame=16 idx=009563 GeodesicLength=0.7249523268398935 rxn_smarts="[C:1]1([H:8])([H:9])[C:2]([H:10])([H:11])[C:3]12[C:4]([H:12])([H:13])[C@@:5]1([H:14])[C:6]([H:15])([H:16])[C@@:7]21[H:17]>>[C:1]1([H:8])([H:9])[C:2]([H:10])([H:11])[C:3]12[C:4]([H:12])([H:13])[C@:7]2([C:6]([C:5][H:14])([H:15])[H:16])[H:17]"
C       -2.04626240      -0.24844894      -0.05793268
C       -1.44176202       0.99026732      -0.68317575
C       -0.57690211      -0.10426286      -0.18848400
C        0.46107035      -0.99327325      -0.78723797
C        2.07835837      -0.50697251       0.16947807
C        1.63049102       0.80411106       0.66905905
C        0.48626526      -0.17719615       0.84714903
H       -2.54894354      -0.95269235      -0.70964250
H       -2.49019966      -0.14698195       0.92477037
H       -1.54143988       1.11679251      -1.75405256
H       -1.46786578       1.90938986      -0.11036112
H        0.20705335      -2.05064378      -0.80557533
H        0.82905304      -0.67625810      -1.76091949
H        2.65226301      -1.12442774       0.86348993
H        1.47736625       1.58815415      -0.06888469
H        2.01876717       1.15120624       1.62346645
H        0.27268758      -0.57876351       1.82885320
