15
Frame=0 idx=005029 GeodesicLength=0.0 rxn_smarts="[C:1]([C@@:2]1([H:9])[C:3]([H:10])([H:11])[C@:4]1([C:5]([H:13])([H:14])[H:15])[H:12])([H:6])([H:7])[H:8]>>[C:1]([H:6])([H:7])([H:8])[H:9].[C:2]1[C:3]([H:10])([H:11])[C@:4]1([C:5]([H:13])([H:14])[H:15])[H:12]"
C        1.53871217      -1.02788704       0.08480977
C        0.60184250       0.82015592       0.82257666
C        0.11470225       1.48862528      -0.42396491
C       -0.83494906       0.69676976       0.43134599
C       -1.54901266      -0.51005538      -0.12462142
H        1.47635154      -0.79367070      -0.96964310
H        0.85822721      -1.81352431       0.39392377
H        2.56659694      -1.25292040       0.37293695
H        1.46307023      -0.05448397       0.90952513
H        0.12070981       2.57351174      -0.41085391
H        0.32653078       1.06756395      -1.40003120
H       -1.45225788       1.26443522       1.12521042
H       -2.51206179      -0.21465613      -0.54595046
H       -0.97812199      -0.99112539      -0.91911737
H       -1.74034004      -1.25273848       0.65385369
15
Frame=1 idx=005029 GeodesicLength=0.0644086724915606 rxn_smarts="[C:1]([C@@:2]1([H:9])[C:3]([H:10])([H:11])[C@:4]1([C:5]([H:13])([H:14])[H:15])[H:12])([H:6])([H:7])[H:8]>>[C:1]([H:6])([H:7])([H:8])[H:9].[C:2]1[C:3]([H:10])([H:11])[C@:4]1([C:5]([H:13])([H:14])[H:15])[H:12]"
C        1.54741083      -1.02996046       0.08903921
C        0.59720450       0.81178157       0.81158434
C        0.10829716       1.49377101      -0.42579896
C       -0.84176872       0.70134060       0.42752232
C       -1.55596012      -0.50594296      -0.12736198
H        1.47272508      -0.81441132      -0.96925809
H        0.88180855      -1.82577345       0.40615119
H        2.58236041      -1.24854700       0.35657816
H        1.47446226      -0.06034458       0.93389495
H        0.11781032       2.57842246      -0.40465831
H        0.32132583       1.07784789      -1.40393426
H       -1.45510356       1.26840716       1.12518071
H       -2.51689033      -0.21048557      -0.55349093
H       -0.98247169      -0.99019552      -0.91809350
H       -1.75121053      -1.24590982       0.65264514
15
Frame=2 idx=005029 GeodesicLength=0.1288584573496519 rxn_smarts="[C:1]([C@@:2]1([H:9])[C:3]([H:10])([H:11])[C@:4]1([C:5]([H:13])([H:14])[H:15])[H:12])([H:6])([H:7])[H:8]>>[C:1]([H:6])([H:7])([H:8])[H:9].[C:2]1[C:3]([H:10])([H:11])[C@:4]1([C:5]([H:13])([H:14])[H:15])[H:12]"
C        1.55637224      -1.03206619       0.09322435
C        0.59266857       0.80294688       0.80005209
C        0.10180154       1.49893051      -0.42767712
C       -0.84856111       0.70585602       0.42370320
C       -1.56315595      -0.50168327      -0.13023208
H        1.46915001      -0.83602785      -0.96859550
H        0.90637291      -1.83806286       0.41862515
H        2.59802000      -1.24334054       0.34042269
H        1.48538451      -0.06618889       0.95809876
H        0.11512241       2.58326534      -0.39814264
H        0.31579230       1.08833995      -1.40798911
H       -1.45758588       1.27217424       1.12552475
H       -2.52186260      -0.20595990      -0.56118284
H       -0.98704881      -0.98924637      -0.91707216
H       -1.76247017      -1.23893706       0.65124045
15
Frame=3 idx=005029 GeodesicLength=0.19334408468924644 rxn_smarts="[C:1]([C@@:2]1([H:9])[C:3]([H:10])([H:11])[C@:4]1([C:5]([H:13])([H:14])[H:15])[H:12])([H:6])([H:7])[H:8]>>[C:1]([H:6])([H:7])([H:8])[H:9].[C:2]1[C:3]([H:10])([H:11])[C@:4]1([C:5]([H:13])([H:14])[H:15])[H:12]"
C        1.56557795      -1.03422559       0.09736310
C        0.58821516       0.79365693       0.78798596
C        0.09522195       1.50410087      -0.42957880
C       -0.85532241       0.71030160       0.41989675
C       -1.57060436      -0.49727423      -0.13324728
H        1.46561968      -0.85855865      -0.96761219
H        0.93194373      -1.85036021       0.43143380
H        2.61356854      -1.23732534       0.32441979
H        1.49589737      -0.07195434       0.98207102
H        0.11264343       2.58802558      -0.39128825
H        0.30992712       1.09905681      -1.41218201
H       -1.45970787       1.27571370       1.12623858
H       -2.52697665      -0.20106435      -0.56904214
H       -0.99186584      -0.98827220      -0.91607318
H       -1.77413781      -1.23182060       0.64961486
15
Frame=4 idx=005029 GeodesicLength=0.25785969399028397 rxn_smarts="[C:1]([C@@:2]1([H:9])[C:3]([H:10])([H:11])[C@:4]1([C:5]([H:13])([H:14])[H:15])[H:12])([H:6])([H:7])[H:8]>>[C:1]([H:6])([H:7])([H:8])[H:9].[C:2]1[C:3]([H:10])([H:11])[C@:4]1([C:5]([H:13])([H:14])[H:15])[H:12]"
C        1.57500921      -1.03645630       0.10145831
C        0.58382300       0.78391642       0.77539085
C        0.08856456       1.50928013      -0.43148309
C       -0.86205006       0.71466315       0.41610944
C       -1.57830890      -0.49271485      -0.13642546
H        1.46211902      -0.88205151      -0.96625379
H        0.95854944      -1.86262247       0.44467019
H        2.62899128      -1.23052961       0.30850192
H        1.50606759      -0.07757628       1.00575344
H        0.11037349       2.59268735      -0.38407425
H        0.30372876       1.11001760      -1.41649767
H       -1.46147238       1.27899989       1.12731718
H       -2.53223056      -0.19578503      -0.57708522
H       -0.99693610      -0.98726469      -0.91512243
H       -1.78622835      -1.22456383       0.64774058
15
Frame=5 idx=005029 GeodesicLength=0.3224072934320825 rxn_smarts="[C:1]([C@@:2]1([H:9])[C:3]([H:10])([H:11])[C@:4]1([C:5]([H:13])([H:14])[H:15])[H:12])([H:6])([H:7])[H:8]>>[C:1]([H:6])([H:7])([H:8])[H:9].[C:2]1[C:3]([H:10])([H:11])[C@:4]1([C:5]([H:13])([H:14])[H:15])[H:12]"
C        1.58464407      -1.03877581       0.10550929
C        0.57947163       0.77373092       0.76226714
C        0.08183551       1.51446597      -0.43337030
C       -0.86874196       0.71892689       0.41234660
C       -1.58627257      -0.48800383      -0.13978415
H        1.45863947      -0.90654368      -0.96446936
H        0.98621459      -1.87480812       0.45842110
H        2.64426827      -1.22299251       0.29261158
H        1.51596801      -0.08298519       1.02909536
H        0.10831267       2.59723461      -0.37647978
H        0.29719485       1.12124082      -1.42092203
H       -1.46288309       1.28200726       1.12875601
H       -2.53762570      -0.19010990      -0.58532258
H       -1.00227422      -0.98621427      -0.91424837
H       -1.79875152      -1.21717318       0.64558949
15
Frame=6 idx=005029 GeodesicLength=0.3869770272305021 rxn_smarts="[C:1]([C@@:2]1([H:9])[C:3]([H:10])([H:11])[C@:4]1([C:5]([H:13])([H:14])[H:15])[H:12])([H:6])([H:7])[H:8]>>[C:1]([H:6])([H:7])([H:8])[H:9].[C:2]1[C:3]([H:10])([H:11])[C@:4]1([C:5]([H:13])([H:14])[H:15])[H:12]"
C        1.59446207      -1.04119982       0.10952245
C        0.57513985       0.76310403       0.74861660
C        0.07504119       1.51965777      -0.43521860
C       -0.87539600       0.72307770       0.40861202
C       -1.59449655      -0.48314073      -0.14334444
H        1.45515782      -0.93208822      -0.96218686
H        1.01497412      -1.88685669       0.47277974
H        2.65937002      -1.21475828       0.27666042
H        1.52566966      -0.08810941       1.05205238
H        0.10646095       2.60165175      -0.36848317
H        0.29032770       1.13274909      -1.42543701
H       -1.46394344       1.28470641       1.13055015
H       -2.54316026      -0.18402787      -0.59376854
H       -1.00789331      -0.98511018      -0.91348404
H       -1.81171382      -1.20965557       0.64312891
15
Frame=7 idx=005029 GeodesicLength=0.4515655376882084 rxn_smarts="[C:1]([C@@:2]1([H:9])[C:3]([H:10])([H:11])[C@:4]1([C:5]([H:13])([H:14])[H:15])[H:12])([H:6])([H:7])[H:8]>>[C:1]([H:6])([H:7])([H:8])[H:9].[C:2]1[C:3]([H:10])([H:11])[C@:4]1([C:5]([H:13])([H:14])[H:15])[H:12]"
C        1.60444172      -1.04374371       0.11350575
C        0.57080896       0.75203897       0.73443661
C        0.06818780       1.52485239      -0.43700924
C       -0.88201022       0.72710151       0.40490992
C       -1.60298291      -0.47812431      -0.14712565
H        1.45165707      -0.95873015      -0.95933659
H        1.04485938      -1.89871328       0.48782198
H        2.67426509      -1.20586857       0.26057085
H        1.53524577      -0.09287755       1.07458928
H        0.10481868       2.60592164      -0.36006243
H        0.28312918       1.14456057      -1.43002661
H       -1.46465663       1.28706695       1.13269482
H       -2.54883505      -0.17752599      -0.60243256
H       -1.01380831      -0.98394108      -0.91286329
H       -1.82512052      -1.20201739       0.64032717
15
Frame=8 idx=005029 GeodesicLength=0.5161679415544591 rxn_smarts="[C:1]([C@@:2]1([H:9])[C:3]([H:10])([H:11])[C@:4]1([C:5]([H:13])([H:14])[H:15])[H:12])([H:6])([H:7])[H:8]>>[C:1]([H:6])([H:7])([H:8])[H:9].[C:2]1[C:3]([H:10])([H:11])[C@:4]1([C:5]([H:13])([H:14])[H:15])[H:12]"
C        1.61456425      -1.04641582       0.11747018
C        0.56646053       0.74054052       0.71971964
C        0.06127989       1.53005017      -0.43872255
C       -0.88858178       0.73098217       0.40124048
C       -1.61172915      -0.47295424      -0.15115131
H        1.44811013      -0.98652437      -0.95583330
H        1.07590534      -1.91030459       0.50363524
H        2.68890311      -1.19638878       0.24424969
H        1.54477312      -0.09721188       1.09667346
H        0.10338347       2.61002894      -0.35119200
H        0.27560010       1.15670323      -1.43467360
H       -1.46502378       1.28905130       1.13518770
H       -2.55464737      -0.17059367      -0.61132292
H       -1.02003139      -0.98269295      -0.91242791
H       -1.83896647      -1.19427006       0.63714720
15
Frame=9 idx=005029 GeodesicLength=0.5807147320154911 rxn_smarts="[C:1]([C@@:2]1([H:9])[C:3]([H:10])([H:11])[C@:4]1([C:5]([H:13])([H:14])[H:15])[H:12])([H:6])([H:7])[H:8]>>[C:1]([H:6])([H:7])([H:8])[H:9].[C:2]1[C:3]([H:10])([H:11])[C@:4]1([C:5]([H:13])([H:14])[H:15])[H:12]"
C        1.62480992      -1.04924539       0.12145837
C        0.56207293       0.72859928       0.70443652
C        0.05432128       1.53525702      -0.44033325
C       -0.89510294       0.73468996       0.39759665
C       -1.62073955      -0.46762545      -0.15546386
H        1.44439772      -1.01557895      -0.95151282
H        1.10823366      -1.92148740       0.52034656
H        2.70324899      -1.18639467       0.22757775
H        1.55433452      -0.10102420       1.11822140
H        0.10216428       2.61396133      -0.34182241
H        0.26772873       1.16923721      -1.43935362
H       -1.46502430       1.29058889       1.13802975
H       -2.56060493      -0.16320695      -0.62046160
H       -1.02658329      -0.98133847      -0.91224623
H       -1.85325702      -1.18643220       0.63352680
15
Frame=10 idx=005029 GeodesicLength=0.6452359772671719 rxn_smarts="[C:1]([C@@:2]1([H:9])[C:3]([H:10])([H:11])[C@:4]1([C:5]([H:13])([H:14])[H:15])[H:12])([H:6])([H:7])[H:8]>>[C:1]([H:6])([H:7])([H:8])[H:9].[C:2]1[C:3]([H:10])([H:11])[C@:4]1([C:5]([H:13])([H:14])[H:15])[H:12]"
C        1.63514886      -1.05223060       0.12545793
C        0.55763073       0.71622359       0.68859503
C        0.04732118       1.54046628      -0.44182051
C       -0.90157519       0.73821687       0.39398819
C       -1.63000756      -0.46214451      -0.16007568
H        1.44056044      -1.04591539      -0.94631410
H        1.14181905      -1.93221374       0.53799438
H        2.71721974      -1.17594659       0.21046246
H        1.56401107      -0.10421746       1.13923432
H        0.10116197       2.61769466      -0.33193756
H        0.25953574       1.18216001      -1.44404683
H       -1.46467537       1.29166312       1.14121913
H       -2.56670117      -0.15536543      -0.62984974
H       -1.03347104      -0.97987209      -0.91234884
H       -1.86797844      -1.17851871       0.62944183
15
Frame=11 idx=005029 GeodesicLength=0.7097344270152485 rxn_smarts="[C:1]([C@@:2]1([H:9])[C:3]([H:10])([H:11])[C@:4]1([C:5]([H:13])([H:14])[H:15])[H:12])([H:6])([H:7])[H:8]>>[C:1]([H:6])([H:7])([H:8])[H:9].[C:2]1[C:3]([H:10])([H:11])[C@:4]1([C:5]([H:13])([H:14])[H:15])[H:12]"
C        1.64555983      -1.05538631       0.12948738
C        0.55311831       0.70341077       0.67218008
C        0.04028700       1.54567435      -0.44316022
C       -0.90799401       0.74154227       0.39041622
C       -1.63953288      -0.45651177      -0.16501473
H        1.43656112      -1.07759161      -0.94013533
H        1.17669285      -1.94239303       0.55665547
H        2.73075817      -1.16510748       0.19280196
H        1.57389177      -0.10669291       1.15968034
H        0.10037929       2.62120882      -0.32150309
H        0.25102550       1.19549798      -1.44872947
H       -1.46397298       1.29222602       1.14475798
H       -2.57293673      -0.14705231      -0.63949846
H       -1.04070743      -0.97827928      -0.91278514
H       -1.88312981      -1.17054551       0.62484700
15
Frame=12 idx=005029 GeodesicLength=0.7741951001481086 rxn_smarts="[C:1]([C@@:2]1([H:9])[C:3]([H:10])([H:11])[C@:4]1([C:5]([H:13])([H:14])[H:15])[H:12])([H:6])([H:7])[H:8]>>[C:1]([H:6])([H:7])([H:8])[H:9].[C:2]1[C:3]([H:10])([H:11])[C@:4]1([C:5]([H:13])([H:14])[H:15])[H:12]"
C        1.65602003      -1.05872355       0.13356234
C        0.54852056       0.69015649       0.65517191
C        0.03322453       1.55088160      -0.44432635
C       -0.91435419       0.74464151       0.38688128
C       -1.64931256      -0.45072873      -0.17031442
H        1.43235020      -1.11067848      -0.93283720
H        1.21289563      -1.95190544       0.57641824
H        2.74379305      -1.15396563       0.17447702
H        1.58406786      -0.10833816       1.17951213
H        0.09982402       2.62448191      -0.31047344
H        0.24220176       1.20928904      -1.45337585
H       -1.46291097       1.29221965       1.14865141
H       -2.57931106      -0.13825316      -0.64942129
H       -1.04830550      -0.97654122      -0.91361603
H       -1.89870336      -1.16253584       0.61969026
15
Frame=13 idx=005029 GeodesicLength=0.8386257627848389 rxn_smarts="[C:1]([C@@:2]1([H:9])[C:3]([H:10])([H:11])[C@:4]1([C:5]([H:13])([H:14])[H:15])[H:12])([H:6])([H:7])[H:8]>>[C:1]([H:6])([H:7])([H:8])[H:9].[C:2]1[C:3]([H:10])([H:11])[C@:4]1([C:5]([H:13])([H:14])[H:15])[H:12]"
C        1.66650823      -1.06225289       0.13770463
C        0.54382571       0.67645646       0.63754610
C        0.02614084       1.55608450      -0.44529273
C       -0.92064894       0.74748926       0.38338346
C       -1.65934301      -0.44479540      -0.17600773
H        1.42788237      -1.14524675      -0.92427847
H        1.25045681      -1.96063660       0.59734578
H        2.75624717      -1.14260259       0.15537521
H        1.59463541      -0.10903680       1.19869281
H        0.09949825       2.62749062      -0.29880545
H        0.23306836       1.22356628      -1.45795875
H       -1.46148053       1.29158286       1.15290764
H       -2.58582390      -0.12894909      -0.65962780
H       -1.05627647      -0.97463895      -0.91490210
H       -1.91469030      -1.15451093       0.61391740
15
Frame=14 idx=005029 GeodesicLength=0.903013266720745 rxn_smarts="[C:1]([C@@:2]1([H:9])[C:3]([H:10])([H:11])[C@:4]1([C:5]([H:13])([H:14])[H:15])[H:12])([H:6])([H:7])[H:8]>>[C:1]([H:6])([H:7])([H:8])[H:9].[C:2]1[C:3]([H:10])([H:11])[C@:4]1([C:5]([H:13])([H:14])[H:15])[H:12]"
C        1.67699854      -1.06598405       0.14193671
C        0.53902131       0.66230776       0.61927662
C        0.01904144       1.56128494      -0.44602868
C       -0.92687095       0.75005655       0.37992263
C       -1.66961700      -0.43871437      -0.18213361
H        1.42309364      -1.18137211      -0.91428037
H        1.28943125      -1.96843114       0.61951372
H        2.76802169      -1.13114844       0.13536613
H        1.60569272      -0.10865545       1.21716261
H        0.09940547       2.63020934      -0.28644396
H        0.22363023       1.23837622      -1.46244545
H       -1.45967316       1.29024314       1.15753458
H       -2.59247142      -0.11912312      -0.67013104
H       -1.06462941      -0.97254904      -0.91671665
H       -1.93107435      -1.14650024       0.60746677
15
Frame=15 idx=005029 GeodesicLength=0.9673588738402187 rxn_smarts="[C:1]([C@@:2]1([H:9])[C:3]([H:10])([H:11])[C@:4]1([C:5]([H:13])([H:14])[H:15])[H:12])([H:6])([H:7])[H:8]>>[C:1]([H:6])([H:7])([H:8])[H:9].[C:2]1[C:3]([H:10])([H:11])[C@:4]1([C:5]([H:13])([H:14])[H:15])[H:12]"
C        1.68746153      -1.06992739       0.14628115
C        0.53409823       0.64770812       0.60033079
C        0.01193077       1.56648230      -0.44650310
C       -0.93301045       0.75231337       0.37649863
C       -1.68012470      -0.43248710      -0.18873139
H        1.41792947      -1.21912751      -0.90264632
H        1.32986654      -1.97513419       0.64297339
H        2.77900384      -1.11974210       0.11432939
H        1.61734270      -0.10705370       1.23485897
H        0.09954323       2.63261528      -0.27333255
H        0.21388876       1.25376523      -1.46680022
H       -1.45747686       1.28812414       1.16254257
H       -2.59925033      -0.10875571      -0.68093982
H       -1.07336958      -0.97024671      -0.91913447
H       -1.94783316      -1.13853403       0.60027299
15
Frame=16 idx=005029 GeodesicLength=1.0316579474270147 rxn_smarts="[C:1]([C@@:2]1([H:9])[C:3]([H:10])([H:11])[C@:4]1([C:5]([H:13])([H:14])[H:15])[H:12])([H:6])([H:7])[H:8]>>[C:1]([H:6])([H:7])([H:8])[H:9].[C:2]1[C:3]([H:10])([H:11])[C@:4]1([C:5]([H:13])([H:14])[H:15])[H:12]"
C        1.69786476      -1.07409021       0.15076898
C        0.52904552       0.63265537       0.58067871
C        0.00481610       1.57168209      -0.44667464
C       -0.93905741       0.75422358       0.37311132
C       -1.69085373      -0.42611874      -0.19585275
H        1.41229193      -1.25861509      -0.88911796
H        1.37183644      -1.98055300       0.66779597
H        2.78905589      -1.10855145       0.09209636
H        1.62970563      -0.10406200       1.25169595
H        0.09991506       2.63468834      -0.25939804
H        0.20385426       1.26979482      -1.47097825
H       -1.45487820       1.28513394       1.16794605
H       -2.60615478      -0.09782837      -0.69207557
H       -1.08249941      -0.96770091      -0.92225071
H       -1.96494208      -1.13065838       0.59225459
