11
Frame=0 idx=008643 GeodesicLength=0.0 rxn_smarts="[C:1]([n:2]1[n:3][c:4]([H:11])[o:5][c:6]1=[O:7])([H:8])([H:9])[H:10]>>[C:1](=[N+:2]([N-:3][C:4](=[O:5])[H:11])[C:6](=[O:7])[H:10])([H:8])[H:9]"
C       -1.52069549      -0.55722786       0.01850931
N       -0.22511629      -0.06287674      -0.12822584
N        0.73336393      -0.74203533      -0.71182803
C        1.97735503      -0.42417360      -0.18223855
O        2.18572445       0.28433584       0.77382298
C       -0.45871583       1.27226957       0.20052219
O        0.08972083       2.20992009       0.62562222
H       -2.25633969      -0.36487985      -0.75788403
H       -1.57583809      -1.53811262       0.48825628
H       -1.73286629       0.83295153       0.42529984
H        2.78340744      -0.91017101      -0.75185639
11
Frame=1 idx=008643 GeodesicLength=0.10160185754058547 rxn_smarts="[C:1]([n:2]1[n:3][c:4]([H:11])[o:5][c:6]1=[O:7])([H:8])([H:9])[H:10]>>[C:1](=[N+:2]([N-:3][C:4](=[O:5])[H:11])[C:6](=[O:7])[H:10])([H:8])[H:9]"
C       -1.52366809      -0.56253229       0.00802273
N       -0.23153554      -0.07360191      -0.15945723
N        0.73761927      -0.75989505      -0.72010262
C        1.96376401      -0.43217783      -0.16877141
O        2.13778608       0.31504604       0.77072591
C       -0.42158202       1.24225560       0.25760319
O        0.09959719       2.24786587       0.53165299
H       -2.27087352      -0.32691479      -0.74485545
H       -1.58000928      -1.56325998       0.43303986
H       -1.70288610       0.81169990       0.51342184
H        2.79178800      -0.89848556      -0.72127981
11
Frame=2 idx=008643 GeodesicLength=0.20361023471072906 rxn_smarts="[C:1]([n:2]1[n:3][c:4]([H:11])[o:5][c:6]1=[O:7])([H:8])([H:9])[H:10]>>[C:1](=[N+:2]([N-:3][C:4](=[O:5])[H:11])[C:6](=[O:7])[H:10])([H:8])[H:9]"
C       -1.52569472      -0.56385994      -0.00295160
N       -0.23668936      -0.08005825      -0.18778144
N        0.74138068      -0.77816241      -0.72256683
C        1.95139543      -0.44090393      -0.15456429
O        2.09664771       0.34822702       0.76163848
C       -0.37961191       1.21225367       0.31542659
O        0.09178328       2.27094043       0.44012962
H       -2.28146711      -0.28675575      -0.73259649
H       -1.58681630      -1.58126714       0.37894149
H       -1.66877040       0.78856617       0.59664063
H        2.79784271      -0.88897987      -0.69231616
11
Frame=3 idx=008643 GeodesicLength=0.3080387806691267 rxn_smarts="[C:1]([n:2]1[n:3][c:4]([H:11])[o:5][c:6]1=[O:7])([H:8])([H:9])[H:10]>>[C:1](=[N+:2]([N-:3][C:4](=[O:5])[H:11])[C:6](=[O:7])[H:10])([H:8])[H:9]"
C       -1.52590346      -0.56215173      -0.01367904
N       -0.24049462      -0.08194052      -0.21541404
N        0.74481557      -0.79395321      -0.72420430
C        1.94017833      -0.44539341      -0.14460816
O        2.06055767       0.38489341       0.74510954
C       -0.33730163       1.18757608       0.35860326
O        0.06836649       2.28159138       0.36576661
H       -2.28999531      -0.24753169      -0.71879694
H       -1.59233137      -1.59328533       0.32755977
H       -1.62966687       0.76286376       0.67627942
H        2.80177519      -0.89266874      -0.65661612
11
Frame=4 idx=008643 GeodesicLength=0.4138599202766265 rxn_smarts="[C:1]([n:2]1[n:3][c:4]([H:11])[o:5][c:6]1=[O:7])([H:8])([H:9])[H:10]>>[C:1](=[N+:2]([N-:3][C:4](=[O:5])[H:11])[C:6](=[O:7])[H:10])([H:8])[H:9]"
C       -1.52589651      -0.55835392      -0.02299191
N       -0.24347042      -0.08293884      -0.23999959
N        0.74750411      -0.81072468      -0.72219761
C        1.92947448      -0.44908721      -0.13531905
O        2.02709559       0.41965646       0.72691157
C       -0.29613770       1.16776484       0.38623543
O        0.03951903       2.28414815       0.30565974
H       -2.29617001      -0.21084362      -0.70537839
H       -1.59960135      -1.60047940       0.28036991
H       -1.58691722       0.73629387       0.74948694
H        2.80459999      -0.89543566      -0.62277705
11
Frame=5 idx=008643 GeodesicLength=0.5203764716078696 rxn_smarts="[C:1]([n:2]1[n:3][c:4]([H:11])[o:5][c:6]1=[O:7])([H:8])([H:9])[H:10]>>[C:1](=[N+:2]([N-:3][C:4](=[O:5])[H:11])[C:6](=[O:7])[H:10])([H:8])[H:9]"
C       -1.52544792      -0.55357792      -0.03107247
N       -0.24602119      -0.08289063      -0.26311917
N        0.74953332      -0.82629924      -0.71979479
C        1.91905142      -0.45085865      -0.12854014
O        1.99566062       0.45275207       0.70671163
C       -0.25699768       1.15210977       0.40296551
O        0.00765131       2.28305230       0.25943072
H       -2.30063863      -0.17814780      -0.69259609
H       -1.60654010      -1.60414771       0.23840180
H       -1.54240106       0.70938391       0.81534173
H        2.80614992      -0.90137609      -0.58772874
11
Frame=6 idx=008643 GeodesicLength=0.6273288452330237 rxn_smarts="[C:1]([n:2]1[n:3][c:4]([H:11])[o:5][c:6]1=[O:7])([H:8])([H:9])[H:10]>>[C:1](=[N+:2]([N-:3][C:4](=[O:5])[H:11])[C:6](=[O:7])[H:10])([H:8])[H:9]"
C       -1.52499019      -0.54811974      -0.03794176
N       -0.24825511      -0.08262708      -0.28393315
N        0.75091530      -0.84133359      -0.71625232
C        1.90890823      -0.45178811      -0.12315918
O        1.96615232       0.48369906       0.68559233
C       -0.21968060       1.13932008       0.41279924
O       -0.02530815       2.27955106       0.22262162
H       -2.30334332      -0.14872503      -0.68130795
H       -1.61398002      -1.60526556       0.20057595
H       -1.49711685       0.68272505       0.87450665
H        2.80669838      -0.90743615      -0.55350141
11
Frame=7 idx=008643 GeodesicLength=0.7345282049202041 rxn_smarts="[C:1]([n:2]1[n:3][c:4]([H:11])[o:5][c:6]1=[O:7])([H:8])([H:9])[H:10]>>[C:1](=[N+:2]([N-:3][C:4](=[O:5])[H:11])[C:6](=[O:7])[H:10])([H:8])[H:9]"
C       -1.52451217      -0.54223266      -0.04380341
N       -0.25029602      -0.08215772      -0.30285131
N        0.75171232      -0.85555956      -0.71209461
C        1.89897471      -0.45209641      -0.11908174
O        1.93839206       0.51261970       0.66372968
C       -0.18410587       1.12879998       0.41778503
O       -0.05867043       2.27443862       0.19359860
H       -2.30458133      -0.12237627      -0.67174191
H       -1.62151372      -1.60436410       0.16671690
H       -1.45169167       0.65659259       0.92760686
H        2.80629212      -0.91366417      -0.51986408
11
Frame=8 idx=008643 GeodesicLength=0.841862903378031 rxn_smarts="[C:1]([n:2]1[n:3][c:4]([H:11])[o:5][c:6]1=[O:7])([H:8])([H:9])[H:10]>>[C:1](=[N+:2]([N-:3][C:4](=[O:5])[H:11])[C:6](=[O:7])[H:10])([H:8])[H:9]"
C       -1.52410279      -0.53605918      -0.04876960
N       -0.25222890      -0.08160434      -0.32002447
N        0.75198299      -0.86912236      -0.70731977
C        1.88921367      -0.45213127      -0.11591549
O        1.91220031       0.53952191       0.64154405
C       -0.15015621       1.12013554       0.41918775
O       -0.09173551       2.26809436       0.17080070
H       -2.30459147      -0.09877473      -0.66405445
H       -1.62912015      -1.60192588       0.13639204
H       -1.40653017       0.63122891       0.97539282
H        2.80506823      -0.91936297      -0.48723359
11
Frame=9 idx=008643 GeodesicLength=0.9492770483017695 rxn_smarts="[C:1]([n:2]1[n:3][c:4]([H:11])[o:5][c:6]1=[O:7])([H:8])([H:9])[H:10]>>[C:1](=[N+:2]([N-:3][C:4](=[O:5])[H:11])[C:6](=[O:7])[H:10])([H:8])[H:9]"
C       -1.52375719      -0.52968919      -0.05297126
N       -0.25412228      -0.08093784      -0.33574017
N        0.75178371      -0.88194859      -0.70214456
C        1.87955589      -0.45206499      -0.11341586
O        1.88747317       0.56471788       0.61900448
C       -0.11772984       1.11306068       0.41779770
O       -0.12427316       2.26080117       0.15321656
H       -2.30363489      -0.07760899      -0.65817340
H       -1.63661823      -1.59830551       0.10911509
H       -1.36171584       0.60658994       1.01868531
H        2.80303865      -0.92461457      -0.45537389
11
Frame=10 idx=008643 GeodesicLength=1.056772377610138 rxn_smarts="[C:1]([n:2]1[n:3][c:4]([H:11])[o:5][c:6]1=[O:7])([H:8])([H:9])[H:10]>>[C:1](=[N+:2]([N-:3][C:4](=[O:5])[H:11])[C:6](=[O:7])[H:10])([H:8])[H:9]"
C       -1.52343301      -0.52319223      -0.05654372
N       -0.25601063      -0.08005041      -0.35025821
N        0.75118828      -0.89382631      -0.69698419
C        1.86997961      -0.45188333      -0.11161504
O        1.86419905       0.58864883       0.59575779
C       -0.08670558       1.10739822       0.41422719
O       -0.15640000       2.25277158       0.14023358
H       -2.30194550      -0.05860715      -0.65393015
H       -1.64379305      -1.59378767       0.08448004
H       -1.31724392       0.58254306       1.05819365
H        2.80016476      -0.93001459      -0.42356094
11
Frame=11 idx=008643 GeodesicLength=1.164329589389948 rxn_smarts="[C:1]([n:2]1[n:3][c:4]([H:11])[o:5][c:6]1=[O:7])([H:8])([H:9])[H:10]>>[C:1](=[N+:2]([N-:3][C:4](=[O:5])[H:11])[C:6](=[O:7])[H:10])([H:8])[H:9]"
C       -1.52310076      -0.51662283      -0.05960538
N       -0.25794776      -0.07887017      -0.36389451
N        0.75024226      -0.90466765      -0.69215829
C        1.86045241      -0.45153628      -0.11058918
O        1.84223890       0.61145778       0.57180407
C       -0.05698088       1.10303459       0.40874431
O       -0.18806093       2.24416470       0.13143001
H       -2.29974386      -0.04159792      -0.65116181
H       -1.65047195      -1.58857376       0.06232905
H       -1.27302097       0.55899437       1.09440524
H        2.79639353      -0.93578284      -0.39130351
11
Frame=12 idx=008643 GeodesicLength=1.271928127726625 rxn_smarts="[C:1]([n:2]1[n:3][c:4]([H:11])[o:5][c:6]1=[O:7])([H:8])([H:9])[H:10]>>[C:1](=[N+:2]([N-:3][C:4](=[O:5])[H:11])[C:6](=[O:7])[H:10])([H:8])[H:9]"
C       -1.52277563      -0.51000554      -0.06223392
N       -0.25996544      -0.07740697      -0.37679341
N        0.74898140      -0.91452937      -0.68774110
C        1.85094846      -0.45109007      -0.11022612
O        1.82147325       0.63321641       0.54723531
C       -0.02845643       1.09984745       0.40157455
O       -0.21910699       2.23502163       0.12633520
H       -2.29717010      -0.02639208      -0.64976825
H       -1.65664086      -1.58282249       0.04244924
H       -1.22898949       0.53590729       1.12769580
H        2.79170185      -0.94174626      -0.35852729
11
Frame=13 idx=008643 GeodesicLength=1.3795601923219831 rxn_smarts="[C:1]([n:2]1[n:3][c:4]([H:11])[o:5][c:6]1=[O:7])([H:8])([H:9])[H:10]>>[C:1](=[N+:2]([N-:3][C:4](=[O:5])[H:11])[C:6](=[O:7])[H:10])([H:8])[H:9]"
C       -1.52246399      -0.50335850      -0.06449758
N       -0.26208695      -0.07566254      -0.38908538
N        0.74744055      -0.92344882      -0.68381990
C        1.84144251      -0.45059241      -0.11042899
O        1.80181127       0.65403856       0.52204819
C       -0.00104369       1.09774246       0.39287837
O       -0.24945231       2.22536105       0.12459877
H       -2.29434106      -0.01281526      -0.64962500
H       -1.66228789      -1.57666458       0.02463129
H       -1.18505555       0.51321580       1.15838211
H        2.78603710      -0.94781576      -0.32508189
11
Frame=14 idx=008643 GeodesicLength=1.4872177815174998 rxn_smarts="[C:1]([n:2]1[n:3][c:4]([H:11])[o:5][c:6]1=[O:7])([H:8])([H:9])[H:10]>>[C:1](=[N+:2]([N-:3][C:4](=[O:5])[H:11])[C:6](=[O:7])[H:10])([H:8])[H:9]"
C       -1.52215836      -0.49670728      -0.06644742
N       -0.26433764      -0.07362051      -0.40090369
N        0.74565279      -0.93141574      -0.68054711
C        1.83191818      -0.45002325      -0.11120590
O        1.78316948       0.67404243       0.49619593
C        0.02532996       1.09665031       0.38276172
O       -0.27902709       2.21519115       0.12596740
H       -2.29136849      -0.00072708      -0.65055988
H       -1.66737332      -1.57022145       0.00868686
H       -1.14110401       0.49084115       1.18671840
H        2.77929850      -0.95400974      -0.29066632
11
Frame=15 idx=008643 GeodesicLength=1.5948949856948051 rxn_smarts="[C:1]([n:2]1[n:3][c:4]([H:11])[o:5][c:6]1=[O:7])([H:8])([H:9])[H:10]>>[C:1](=[N+:2]([N-:3][C:4](=[O:5])[H:11])[C:6](=[O:7])[H:10])([H:8])[H:9]"
C       -1.52186237      -0.49007056      -0.06812547
N       -0.26673344      -0.07129647      -0.41233690
N        0.74364712      -0.93847799      -0.67798264
C        1.82237229      -0.44937216      -0.11255076
O        1.76544856       0.69326190       0.46975706
C        0.05073072       1.09650356       0.37129429
O       -0.30771807       2.20449012       0.13018949
H       -2.28833046       0.01000322      -0.65243572
H       -1.67190356      -1.56358620      -0.00553340
H       -1.09704849       0.46874509       1.21288413
H        2.77139770      -0.96020050      -0.25516009
11
Frame=16 idx=008643 GeodesicLength=1.702586851342099 rxn_smarts="[C:1]([n:2]1[n:3][c:4]([H:11])[o:5][c:6]1=[O:7])([H:8])([H:9])[H:10]>>[C:1](=[N+:2]([N-:3][C:4](=[O:5])[H:11])[C:6](=[O:7])[H:10])([H:8])[H:9]"
C       -1.52158642      -0.48346345      -0.06956943
N       -0.26928145      -0.06872736      -0.42343698
N        0.74145091      -0.94471767      -0.67611648
C        1.81280528      -0.44865389      -0.11441196
O        1.74854692       0.71168830       0.44288685
C        0.07521504       1.09723563       0.35852912
O       -0.33538374       2.19321861       0.13701379
H       -2.28527826       0.01949994      -0.65514226
H       -1.67591334      -1.55683224      -0.01815935
H       -1.05284104       0.44692214       1.23700773
H        2.76226610      -0.96617002      -0.21860105
