12
Frame=0 idx=004411 GeodesicLength=0.0 rxn_smarts="[C:1]([C@@:2]([C:3](=[O:4])[H:11])([C:5]#[C:6][H:12])[H:10])([H:7])([H:8])[H:9]>>[C-:3]#[O+:4].[C:1]([C:2](=[C:5]=[C:6]([H:11])[H:12])[H:10])([H:7])([H:8])[H:9]"
C       -0.10923295       1.60099476       0.25047109
C        0.14111482       0.16773333       0.66153113
C       -1.22444695      -0.89697717      -0.25213816
O       -2.33946352      -0.63465604      -0.30931447
C        1.14476587      -0.58998660       0.09473990
C        1.23944841      -1.57647771      -0.67173093
H        0.53078160       2.28509557       0.80971535
H        0.08510976       1.74314568      -0.81319485
H       -1.14652465       1.87236292       0.45492974
H       -0.06456906      -0.03466297       1.71323617
H       -0.15875084      -1.67424940      -0.77482122
H        1.90176749      -2.26232234      -1.16342371
12
Frame=1 idx=004411 GeodesicLength=0.06184670514870975 rxn_smarts="[C:1]([C@@:2]([C:3](=[O:4])[H:11])([C:5]#[C:6][H:12])[H:10])([H:7])([H:8])[H:9]>>[C-:3]#[O+:4].[C:1]([C:2](=[C:5]=[C:6]([H:11])[H:12])[H:10])([H:7])([H:8])[H:9]"
C       -0.10960617       1.59888169       0.25104606
C        0.13847914       0.16507367       0.66190299
C       -1.24398126      -0.90890028      -0.24194671
O       -2.34968242      -0.61369916      -0.32695529
C        1.14432341      -0.58951643       0.09294561
C        1.24511897      -1.57947532      -0.66900170
H        0.54089911       2.28103482       0.80046295
H        0.07147449       1.73720821      -0.81540421
H       -1.14293758       1.87555308       0.46784925
H       -0.05229445      -0.03279371       1.71748122
H       -0.16760553      -1.68320490      -0.78140190
H        1.92581228      -2.25016166      -1.15697827
12
Frame=2 idx=004411 GeodesicLength=0.12354789369273875 rxn_smarts="[C:1]([C@@:2]([C:3](=[O:4])[H:11])([C:5]#[C:6][H:12])[H:10])([H:7])([H:8])[H:9]>>[C-:3]#[O+:4].[C:1]([C:2](=[C:5]=[C:6]([H:11])[H:12])[H:10])([H:7])([H:8])[H:9]"
C       -0.10911411       1.59645652       0.25100544
C        0.13517334       0.16224141       0.66307661
C       -1.26414836      -0.92042853      -0.23197996
O       -2.35917077      -0.59354143      -0.34442147
C        1.14334061      -0.59037553       0.09375134
C        1.25057842      -1.58448362      -0.66265604
H        0.55125859       2.27656774       0.79108362
H        0.06047053       1.73016006      -0.81785884
H       -1.13853284       1.87917214       0.47814104
H       -0.04230787      -0.03016598       1.72218363
H       -0.17697781      -1.69468867      -0.78420708
H        1.94943027      -2.23091412      -1.15811827
12
Frame=3 idx=004411 GeodesicLength=0.1851837321885107 rxn_smarts="[C:1]([C@@:2]([C:3](=[O:4])[H:11])([C:5]#[C:6][H:12])[H:10])([H:7])([H:8])[H:9]>>[C-:3]#[O+:4].[C:1]([C:2](=[C:5]=[C:6]([H:11])[H:12])[H:10])([H:7])([H:8])[H:9]"
C       -0.10850684       1.59425713       0.25105030
C        0.13186782       0.15948514       0.66391442
C       -1.28458944      -0.93124205      -0.22299617
O       -2.36803513      -0.57434612      -0.36096841
C        1.14237693      -0.59102061       0.09406981
C        1.25624561      -1.58900562      -0.65703078
H        0.56134305       2.27205769       0.78226343
H        0.05001045       1.72382151      -0.81996145
H       -1.13402046       1.88285206       0.48804526
H       -0.03260564      -0.02782499       1.72624679
H       -0.18652549      -1.70714569      -0.78604037
H        1.97243915      -2.21188845      -1.15859282
12
Frame=4 idx=004411 GeodesicLength=0.24678135153749856 rxn_smarts="[C:1]([C@@:2]([C:3](=[O:4])[H:11])([C:5]#[C:6][H:12])[H:10])([H:7])([H:8])[H:9]>>[C-:3]#[O+:4].[C:1]([C:2](=[C:5]=[C:6]([H:11])[H:12])[H:10])([H:7])([H:8])[H:9]"
C       -0.10830768       1.59260451       0.25164677
C        0.12899885       0.15695509       0.66371609
C       -1.30511670      -0.94125749      -0.21522602
O       -2.37630595      -0.55588835      -0.37662483
C        1.14172941      -0.59045891       0.09186438
C        1.26226840      -1.59145463      -0.65498352
H        0.57088084       2.26777388       0.77426042
H        0.03849218       1.71926344      -0.82132450
H       -1.12981185       1.88633832       0.49922561
H       -0.02173915      -0.02638591       1.72899902
H       -0.19616523      -1.71982723      -0.78833625
H        1.99507687      -2.19766271      -1.15321717
12
Frame=5 idx=004411 GeodesicLength=0.3083411462226799 rxn_smarts="[C:1]([C@@:2]([C:3](=[O:4])[H:11])([C:5]#[C:6][H:12])[H:10])([H:7])([H:8])[H:9]>>[C-:3]#[O+:4].[C:1]([C:2](=[C:5]=[C:6]([H:11])[H:12])[H:10])([H:7])([H:8])[H:9]"
C       -0.10785548       1.59098508       0.25218218
C        0.12596374       0.15440459       0.66353831
C       -1.32606650      -0.95076879      -0.20795217
O       -2.38404004      -0.53785307      -0.39220397
C        1.14094054      -0.59009607       0.08997750
C        1.26839160      -1.59403787      -0.65257147
H        0.58040067       2.26334564       0.76645047
H        0.02772617       1.71480718      -0.82253444
H       -1.12531502       1.88995888       0.50976583
H       -0.01150381      -0.02494533       1.73151853
H       -0.20608355      -1.73400954      -0.78879411
H        2.01744169      -2.18179073      -1.14937665
12
Frame=6 idx=004411 GeodesicLength=0.36990967430131416 rxn_smarts="[C:1]([C@@:2]([C:3](=[O:4])[H:11])([C:5]#[C:6][H:12])[H:10])([H:7])([H:8])[H:9]>>[C-:3]#[O+:4].[C:1]([C:2](=[C:5]=[C:6]([H:11])[H:12])[H:10])([H:7])([H:8])[H:9]"
C       -0.10722053       1.58940993       0.25271105
C        0.12284069       0.15184459       0.66334512
C       -1.34742514      -0.95982842      -0.20107132
O       -2.39118287      -0.52016285      -0.40797792
C        1.14007784      -0.58981937       0.08821393
C        1.27468142      -1.59657369      -0.65008395
H        0.58988937       2.25880738       0.75881983
H        0.01746785       1.71051881      -0.82357587
H       -1.12059311       1.89365125       0.51990367
H       -0.00165950      -0.02355420       1.73380484
H       -0.21622383      -1.74957498      -0.78755617
H        2.03934781      -2.16471844      -1.14653320
12
Frame=7 idx=004411 GeodesicLength=0.43147548925304907 rxn_smarts="[C:1]([C@@:2]([C:3](=[O:4])[H:11])([C:5]#[C:6][H:12])[H:10])([H:7])([H:8])[H:9]>>[C-:3]#[O+:4].[C:1]([C:2](=[C:5]=[C:6]([H:11])[H:12])[H:10])([H:7])([H:8])[H:9]"
C       -0.10635821       1.58781610       0.25318140
C        0.11960238       0.14924938       0.66324102
C       -1.36920016      -0.96849237      -0.19448547
O       -2.39770694      -0.50282191      -0.42401748
C        1.13913889      -0.58974361       0.08683543
C        1.28117626      -1.59922501      -0.64718142
H        0.59938106       2.25412482       0.75130527
H        0.00784365       1.70622437      -0.82451312
H       -1.11561808       1.89741235       0.52949008
H        0.00767630      -0.02213750       1.73597913
H       -0.22653801      -1.76642602      -0.78464517
H        2.06060287      -2.14598061      -1.14518964
12
Frame=8 idx=004411 GeodesicLength=0.4930366119470757 rxn_smarts="[C:1]([C@@:2]([C:3](=[O:4])[H:11])([C:5]#[C:6][H:12])[H:10])([H:7])([H:8])[H:9]>>[C-:3]#[O+:4].[C:1]([C:2](=[C:5]=[C:6]([H:11])[H:12])[H:10])([H:7])([H:8])[H:9]"
C       -0.10544568       1.58631165       0.25371782
C        0.11639377       0.14667347       0.66297579
C       -1.39134470      -0.97672299      -0.18827057
O       -2.40376254      -0.48591181      -0.43987936
C        1.13821772      -0.58954160       0.08515083
C        1.28788511      -1.60151994      -0.64475860
H        0.60875104       2.24940068       0.74398042
H       -0.00164614       1.70228142      -0.82523790
H       -1.11054027       1.90114609       0.53900897
H        0.01696771      -0.02089511       1.73779476
H       -0.23701471      -1.78388199      -0.78107563
H        2.08153868      -2.12733988      -1.14340652
12
Frame=9 idx=004411 GeodesicLength=0.5545933470768964 rxn_smarts="[C:1]([C@@:2]([C:3](=[O:4])[H:11])([C:5]#[C:6][H:12])[H:10])([H:7])([H:8])[H:9]>>[C-:3]#[O+:4].[C:1]([C:2](=[C:5]=[C:6]([H:11])[H:12])[H:10])([H:7])([H:8])[H:9]"
C       -0.10447886       1.58487622       0.25430626
C        0.11321536       0.14410728       0.66257150
C       -1.41387153      -0.98454468      -0.18237212
O       -2.40939055      -0.46941914      -0.45555389
C        1.13731641      -0.58923808       0.08320606
C        1.29481018      -1.60349705      -0.64274831
H        0.61800865       2.24463092       0.73681343
H       -0.01099793       1.69864084      -0.82577195
H       -1.10535737       1.90484080       0.54844639
H        0.02621062      -0.01981285       1.73928264
H       -0.24765246      -1.80183498      -0.77695011
H        2.10218748      -2.10874928      -1.14122989
12
Frame=10 idx=004411 GeodesicLength=0.6161499999546222 rxn_smarts="[C:1]([C@@:2]([C:3](=[O:4])[H:11])([C:5]#[C:6][H:12])[H:10])([H:7])([H:8])[H:9]>>[C-:3]#[O+:4].[C:1]([C:2](=[C:5]=[C:6]([H:11])[H:12])[H:10])([H:7])([H:8])[H:9]"
C       -0.10343708       1.58348069       0.25492128
C        0.11005415       0.14153664       0.66207093
C       -1.43679626      -0.99198003      -0.17674418
O       -2.41462286      -0.45332919      -0.47105201
C        1.13643290      -0.58888666       0.08111203
C        1.30196265      -1.60523335      -0.64100289
H        0.62717368       2.23980058       0.72977265
H       -0.02015697       1.69522461      -0.82614808
H       -1.10005564       1.90849568       0.55774050
H        0.03535092      -0.01886138       1.74049524
H       -0.25844637      -1.82023512      -0.77228828
H        2.12254088      -2.09001249      -1.13887720
12
Frame=11 idx=004411 GeodesicLength=0.6777067897949447 rxn_smarts="[C:1]([C@@:2]([C:3](=[O:4])[H:11])([C:5]#[C:6][H:12])[H:10])([H:7])([H:8])[H:9]>>[C-:3]#[O+:4].[C:1]([C:2](=[C:5]=[C:6]([H:11])[H:12])[H:10])([H:7])([H:8])[H:9]"
C       -0.10230673       1.58210317       0.25554535
C        0.10690301       0.13895102       0.66150250
C       -1.46013143      -0.99904432      -0.17135365
O       -2.41948449      -0.43762939      -0.48638392
C        1.13556888      -0.58852254       0.07894505
C        1.30935620      -1.60677720      -0.63942057
H        0.63625969       2.23489862       0.72283686
H       -0.02908726       1.69197741      -0.82639014
H       -1.09462717       1.91210721       0.56685113
H        0.04435294      -0.01802236       1.74146936
H       -0.26939404      -1.83904020      -0.76710757
H        2.14259040      -2.07100141      -1.13649440
12
Frame=12 idx=004411 GeodesicLength=0.7392634122856461 rxn_smarts="[C:1]([C@@:2]([C:3](=[O:4])[H:11])([C:5]#[C:6][H:12])[H:10])([H:7])([H:8])[H:9]>>[C-:3]#[O+:4].[C:1]([C:2](=[C:5]=[C:6]([H:11])[H:12])[H:10])([H:7])([H:8])[H:9]"
C       -0.10111856       1.58075570       0.25619642
C        0.10378830       0.13635521       0.66082412
C       -1.48388542      -1.00573339      -0.16618543
O       -2.42401995      -0.42230572      -0.50150977
C        1.13473750      -0.58809595       0.07658478
C        1.31698836      -1.60805506      -0.63815271
H        0.64525327       2.22994181       0.71600080
H       -0.03788813       1.68894688      -0.82648538
H       -1.08909389       1.91565486       0.57587351
H        0.05330480      -0.01732909       1.74216673
H       -0.28051259      -1.85815253      -0.76154267
H        2.16244632      -2.05198273      -1.13377039
12
Frame=13 idx=004411 GeodesicLength=0.8008225210746417 rxn_smarts="[C:1]([C@@:2]([C:3](=[O:4])[H:11])([C:5]#[C:6][H:12])[H:10])([H:7])([H:8])[H:9]>>[C-:3]#[O+:4].[C:1]([C:2](=[C:5]=[C:6]([H:11])[H:12])[H:10])([H:7])([H:8])[H:9]"
C       -0.09985174       1.57941476       0.25685452
C        0.10069652       0.13373667       0.66006961
C       -1.50807443      -1.01205597      -0.16121641
O       -2.42824430      -0.40734145      -0.51645965
C        1.13393734      -0.58765290       0.07412847
C        1.32487702      -1.60912829      -0.63707149
H        0.65417333       2.22491388       0.70924701
H       -0.04650296       1.68607161      -0.82645906
H       -1.08344168       1.91914148       0.58475153
H        0.06214878      -0.01676065       1.74262917
H       -0.29180258      -1.87757818      -0.75554896
H        2.18208471      -2.03276095      -1.13092473
12
Frame=14 idx=004411 GeodesicLength=0.8623902598950702 rxn_smarts="[C:1]([C@@:2]([C:3](=[O:4])[H:11])([C:5]#[C:6][H:12])[H:10])([H:7])([H:8])[H:9]>>[C-:3]#[O+:4].[C:1]([C:2](=[C:5]=[C:6]([H:11])[H:12])[H:10])([H:7])([H:8])[H:9]"
C       -0.09847272       1.57804930       0.25749502
C        0.09760606       0.13108004       0.65929652
C       -1.53271613      -1.01801883      -0.15642126
O       -2.43213403      -0.39272085      -0.53133794
C        1.13316785      -0.58726129       0.07173282
C        1.33305277      -1.61009030      -0.63596985
H        0.66304636       2.21979055       0.70256333
H       -0.05483454       1.68326556      -0.82634333
H       -1.07765106       1.92257608       0.59339433
H        0.07079268      -0.01628124       1.74292617
H       -0.30325743      -1.89737824      -0.74898207
H        2.20140019      -2.01301079      -1.12835372
12
Frame=15 idx=004411 GeodesicLength=0.9239547996914955 rxn_smarts="[C:1]([C@@:2]([C:3](=[O:4])[H:11])([C:5]#[C:6][H:12])[H:10])([H:7])([H:8])[H:9]>>[C-:3]#[O+:4].[C:1]([C:2](=[C:5]=[C:6]([H:11])[H:12])[H:10])([H:7])([H:8])[H:9]"
C       -0.09703814       1.57669246       0.25815623
C        0.09456189       0.12839973       0.65841245
C       -1.55782169      -1.02360189      -0.15179391
O       -2.43573631      -0.37843037      -0.54607129
C        1.13243869      -0.58681840       0.06914532
C        1.34148933      -1.61078838      -0.63517071
H        0.67184070       2.21460570       0.69595302
H       -0.06306348       1.68064171      -0.82609793
H       -1.07175560       1.92592599       0.60197649
H        0.07940121      -0.01595656       1.74296031
H       -0.31492054      -1.91745033      -0.74200887
H        2.22060393      -1.99321966      -1.12546109
12
Frame=16 idx=004411 GeodesicLength=0.9855150656510718 rxn_smarts="[C:1]([C@@:2]([C:3](=[O:4])[H:11])([C:5]#[C:6][H:12])[H:10])([H:7])([H:8])[H:9]>>[C-:3]#[O+:4].[C:1]([C:2](=[C:5]=[C:6]([H:11])[H:12])[H:10])([H:7])([H:8])[H:9]"
C       -0.09551374       1.57531064       0.25878925
C        0.09154737       0.12567922       0.65745942
C       -1.58339240      -1.02883274      -0.14730852
O       -2.43917724      -0.36451497      -0.56044847
C        1.13176846      -0.58639202       0.06652420
C        1.35024947      -1.61131611      -0.63446014
H        0.68056153       2.20934039       0.68940699
H       -0.07105824       1.67811072      -0.82578005
H       -1.06574826       1.92919507       0.61035415
H        0.08786766      -0.01575170       1.74278740
H       -0.32677280      -1.93761371      -0.73489381
H        2.23966818      -1.97321480      -1.12243041
