7
Frame=0 idx=001490 GeodesicLength=0.0 rxn_smarts="[N:1]#[C:2][C:3]([C:4]#[N:5])([H:6])[H:7]>>[N+:1](#[C-:2])[C:3]([C:4]#[N:5])([H:6])[H:7]"
N        1.61419594      -0.47967472       0.40697560
C        1.34147754      -0.48367310      -0.74866880
C        0.05609354       0.40840546       0.04969862
C       -1.12421437      -0.42960436      -0.02413495
N       -2.07671705      -1.06547892      -0.06313555
H        0.16233030       0.82818819       1.04806261
H        0.02683410       1.22183743      -0.66879751
7
Frame=1 idx=001490 GeodesicLength=0.05757167770019442 rxn_smarts="[N:1]#[C:2][C:3]([C:4]#[N:5])([H:6])[H:7]>>[N+:1](#[C-:2])[C:3]([C:4]#[N:5])([H:6])[H:7]"
N        1.66307504      -0.42147918       0.38987394
C        1.33532704      -0.52972147      -0.74295599
C        0.05912306       0.39429072       0.05515641
C       -1.12685325      -0.43758725      -0.02411315
N       -2.09971098      -1.04088538      -0.07899103
H        0.14780012       0.81820312       1.05415555
H        0.02123896       1.21717944      -0.65312573
7
Frame=2 idx=001490 GeodesicLength=0.11460195130430126 rxn_smarts="[N:1]#[C:2][C:3]([C:4]#[N:5])([H:6])[H:7]>>[N+:1](#[C-:2])[C:3]([C:4]#[N:5])([H:6])[H:7]"
N        1.71017855      -0.35948632       0.36626069
C        1.33076261      -0.57813498      -0.73079426
C        0.06182004       0.38002691       0.06061266
C       -1.13075542      -0.44446751      -0.02621529
N       -2.12213075      -1.01602816      -0.09390653
H        0.13386556       0.80563518       1.06098858
H        0.01625941       1.21245487      -0.63694584
7
Frame=3 idx=001490 GeodesicLength=0.17021699842026458 rxn_smarts="[N:1]#[C:2][C:3]([C:4]#[N:5])([H:6])[H:7]>>[N+:1](#[C-:2])[C:3]([C:4]#[N:5])([H:6])[H:7]"
N        1.75442122      -0.29376599       0.33423584
C        1.32615994      -0.62967468      -0.71028624
C        0.06419062       0.36592677       0.06659264
C       -1.13546969      -0.44982340      -0.02821766
N       -2.14243043      -0.99141140      -0.11063187
H        0.12170770       0.79100612       1.06846549
H        0.01142063       1.20774259      -0.62015819
7
Frame=4 idx=001490 GeodesicLength=0.2250639239986973 rxn_smarts="[N:1]#[C:2][C:3]([C:4]#[N:5])([H:6])[H:7]>>[N+:1](#[C-:2])[C:3]([C:4]#[N:5])([H:6])[H:7]"
N        1.79450730      -0.22758522       0.29410662
C        1.32368931      -0.68268122      -0.68132095
C        0.06622217       0.35278940       0.07245223
C       -1.14145443      -0.45286296      -0.03191180
N       -2.16092068      -0.96860066      -0.12726959
H        0.11136748       0.77474681       1.07692922
H        0.00658886       1.20419385      -0.60298572
7
Frame=5 idx=001490 GeodesicLength=0.27803062086788966 rxn_smarts="[N:1]#[C:2][C:3]([C:4]#[N:5])([H:6])[H:7]>>[N+:1](#[C-:2])[C:3]([C:4]#[N:5])([H:6])[H:7]"
N        1.82825586      -0.16412800       0.24662404
C        1.32386847      -0.73505143      -0.64372815
C        0.06800463       0.34112731       0.07749676
C       -1.14777386      -0.45346361      -0.03863972
N       -2.17684418      -0.94832418      -0.14206007
H        0.10262821       0.75683161       1.08550471
H        0.00186086       1.20300831      -0.58519756
7
Frame=6 idx=001490 GeodesicLength=0.3301408577929307 rxn_smarts="[N:1]#[C:2][C:3]([C:4]#[N:5])([H:6])[H:7]>>[N+:1](#[C-:2])[C:3]([C:4]#[N:5])([H:6])[H:7]"
N        1.85638311      -0.10307923       0.18991453
C        1.32632878      -0.78697451      -0.59604673
C        0.06956185       0.33091799       0.08223973
C       -1.15421470      -0.45241495      -0.04650266
N       -2.19073309      -0.92985385      -0.15780661
H        0.09630262       0.73770546       1.09463568
H       -0.00362857       1.20369910      -0.56643394
7
Frame=7 idx=001490 GeodesicLength=0.38119466761584786 rxn_smarts="[N:1]#[C:2][C:3]([C:4]#[N:5])([H:6])[H:7]>>[N+:1](#[C-:2])[C:3]([C:4]#[N:5])([H:6])[H:7]"
N        1.87760175      -0.04780242       0.12482847
C        1.33174161      -0.83613368      -0.53878445
C        0.07090535       0.32257288       0.08629553
C       -1.15994939      -0.45009763      -0.05591661
N       -2.20215108      -0.91340995      -0.17369738
H        0.09196177       0.71780022       1.10387564
H       -0.01011002       1.20707058      -0.54660120
7
Frame=8 idx=001490 GeodesicLength=0.43143086491165356 rxn_smarts="[N:1]#[C:2][C:3]([C:4]#[N:5])([H:6])[H:7]>>[N+:1](#[C-:2])[C:3]([C:4]#[N:5])([H:6])[H:7]"
N        1.89160353      -0.00101146       0.05187616
C        1.33995917      -0.88077898      -0.47278967
C        0.07207453       0.31654422       0.08980652
C       -1.16483846      -0.44655860      -0.06657329
N       -2.21074984      -0.89987873      -0.19013957
H        0.08939806       0.69814132       1.11314799
H       -0.01744699       1.21354222      -0.52532815
7
Frame=9 idx=001490 GeodesicLength=0.48067509938827896 rxn_smarts="[N:1]#[C:2][C:3]([C:4]#[N:5])([H:6])[H:7]>>[N+:1](#[C-:2])[C:3]([C:4]#[N:5])([H:6])[H:7]"
N        1.89798752       0.03508319      -0.02777291
C        1.35094055      -0.91882252      -0.39974536
C        0.07310177       0.31286374       0.09303731
C       -1.16838572      -0.44224219      -0.07826100
N       -2.21631416      -0.88926381      -0.20714767
H        0.08798281       0.67944251       1.12234089
H       -0.02531278       1.22293908      -0.50245125
7
Frame=10 idx=001490 GeodesicLength=0.529023961194474 rxn_smarts="[N:1]#[C:2][C:3]([C:4]#[N:5])([H:6])[H:7]>>[N+:1](#[C-:2])[C:3]([C:4]#[N:5])([H:6])[H:7]"
N        1.89679421       0.05862832      -0.11222821
C        1.36450332      -0.94849130      -0.32249136
C        0.07401294       0.31158942       0.09652875
C       -1.17063244      -0.43705838      -0.09065995
N       -2.21867554      -0.88212062      -0.22473046
H        0.08691778       0.66264421       1.13169428
H       -0.03292028       1.23480834      -0.47811306
7
Frame=11 idx=001490 GeodesicLength=0.5766651890428701 rxn_smarts="[N:1]#[C:2][C:3]([C:4]#[N:5])([H:6])[H:7]>>[N+:1](#[C-:2])[C:3]([C:4]#[N:5])([H:6])[H:7]"
N        1.88806197       0.06898436      -0.19973414
C        1.38051260      -0.96871935      -0.24375763
C        0.07484365       0.31255206       0.10092030
C       -1.17165598      -0.43102272      -0.10316461
N       -2.21783533      -0.87847877      -0.24318532
H        0.08554537       0.64825457       1.14157203
H       -0.03947227       1.24842985      -0.45265062
7
Frame=12 idx=001490 GeodesicLength=0.6235164599243344 rxn_smarts="[N:1]#[C:2][C:3]([C:4]#[N:5])([H:6])[H:7]>>[N+:1](#[C-:2])[C:3]([C:4]#[N:5])([H:6])[H:7]"
N        1.87203083       0.06619432      -0.28725020
C        1.39868356      -0.97906873      -0.16714067
C        0.07558091       0.31556066       0.10653100
C       -1.17161469      -0.42374462      -0.11580551
N       -2.21362748      -0.87844274      -0.26178123
H        0.08294521       0.63641775       1.15223775
H       -0.04399835       1.26308336      -0.42679115
7
Frame=13 idx=001490 GeodesicLength=0.6698560927212108 rxn_smarts="[N:1]#[C:2][C:3]([C:4]#[N:5])([H:6])[H:7]>>[N+:1](#[C-:2])[C:3]([C:4]#[N:5])([H:6])[H:7]"
N        1.84936906       0.05173108      -0.37217563
C        1.41936683      -0.97996242      -0.09517592
C        0.07624518       0.32008727       0.11346243
C       -1.17073429      -0.41550938      -0.12831460
N       -2.20687068      -0.88108926      -0.28017026
H        0.07879293       0.62673269       1.16374109
H       -0.04616903       1.27801001      -0.40136712
7
Frame=14 idx=001490 GeodesicLength=0.7167122094727979 rxn_smarts="[N:1]#[C:2][C:3]([C:4]#[N:5])([H:6])[H:7]>>[N+:1](#[C-:2])[C:3]([C:4]#[N:5])([H:6])[H:7]"
N        1.82026876       0.02690144      -0.45404336
C        1.44310980      -0.97209927      -0.02847265
C        0.07683033       0.32571703       0.12195232
C       -1.16948156      -0.40643937      -0.13945865
N       -2.19803061      -0.88564622      -0.29959906
H        0.07340835       0.61887891       1.17641433
H       -0.04610506       1.29268748      -0.37679293
7
Frame=15 idx=001490 GeodesicLength=0.7647209637425559 rxn_smarts="[N:1]#[C:2][C:3]([C:4]#[N:5])([H:6])[H:7]>>[N+:1](#[C-:2])[C:3]([C:4]#[N:5])([H:6])[H:7]"
N        1.78309877      -0.00798971      -0.53338659
C        1.47007261      -0.95538594       0.03313582
C        0.07735989       0.33210223       0.13253718
C       -1.16798137      -0.39692900      -0.14704672
N       -2.18639541      -0.89130390      -0.32278548
H        0.06779344       0.61314897       1.19043160
H       -0.04394793       1.30635736      -0.35288581
7
Frame=16 idx=001490 GeodesicLength=0.8138507987873644 rxn_smarts="[N:1]#[C:2][C:3]([C:4]#[N:5])([H:6])[H:7]>>[N+:1](#[C-:2])[C:3]([C:4]#[N:5])([H:6])[H:7]"
N        1.74030326      -0.05087313      -0.60567586
C        1.50021611      -0.93110133       0.08672903
C        0.07766374       0.33889251       0.14417073
C       -1.16713466      -0.38640808      -0.15225636
N       -2.17310224      -0.89805722      -0.34736552
H        0.06167859       0.60844357       1.20521176
H       -0.03962480       1.31910368      -0.33081377
