15
Frame=0 idx=010278 GeodesicLength=0.0 rxn_smarts="[C:1]([C:2]([C:3]([H:12])([H:13])[H:14])([C:4]#[C:5][C:6](=[O:7])[H:15])[H:11])([H:8])([H:9])[H:10]>>[C:1]([C:2]([C:3]([H:12])([H:13])[H:14])=[C:4]=[C:5]([C:6](=[O:7])[H:15])[H:11])([H:8])([H:9])[H:10]"
C       -1.45056942      -0.84910835      -1.15225922
C       -0.68038777      -0.21957490      -0.03478307
C       -1.43217034       0.47833808       1.05302184
C        0.70393104      -0.22435145      -0.00767467
C        1.87615911      -0.27768406       0.52188077
C        3.10229314       0.40791100       0.30997281
O        3.91707272       0.17945222      -0.56285069
H       -2.17200224      -0.15947461      -1.59752273
H       -0.79613635      -1.24662710      -1.92571554
H       -2.02413915      -1.67984601      -0.72831686
H        0.48620883       0.41785709      -0.96927537
H       -0.99698245       0.20931745       2.01916325
H       -1.34319509       1.56256471       0.95420044
H       -2.49280360       0.22676357       1.02927380
H        3.30272157       1.17446242       1.09088530
15
Frame=1 idx=010278 GeodesicLength=0.09980840975500542 rxn_smarts="[C:1]([C:2]([C:3]([H:12])([H:13])[H:14])([C:4]#[C:5][C:6](=[O:7])[H:15])[H:11])([H:8])([H:9])[H:10]>>[C:1]([C:2]([C:3]([H:12])([H:13])[H:14])=[C:4]=[C:5]([C:6](=[O:7])[H:15])[H:11])([H:8])([H:9])[H:10]"
C       -1.43994608      -0.84875110      -1.15650222
C       -0.68546331      -0.20602483      -0.03501493
C       -1.45394750       0.46397252       1.05953097
C        0.69665943      -0.24282759       0.01935493
C        1.85802671      -0.18905782       0.56390987
C        3.11194776       0.41914872       0.28217362
O        3.92205913       0.05684408      -0.54744434
H       -2.16781697      -0.16771258      -1.60447839
H       -0.77786995      -1.23467007      -1.92936577
H       -2.00414084      -1.68869712      -0.73854265
H        0.49700448       0.45979021      -0.93778270
H       -1.06569846       0.12997916       2.02532842
H       -1.31979719       1.54713125       1.01819633
H       -2.52230029       0.25802012       0.99045222
H        3.35128309       1.24285504       0.99018463
15
Frame=2 idx=010278 GeodesicLength=0.19999041769105716 rxn_smarts="[C:1]([C:2]([C:3]([H:12])([H:13])[H:14])([C:4]#[C:5][C:6](=[O:7])[H:15])[H:11])([H:8])([H:9])[H:10]>>[C:1]([C:2]([C:3]([H:12])([H:13])[H:14])=[C:4]=[C:5]([C:6](=[O:7])[H:15])[H:11])([H:8])([H:9])[H:10]"
C       -1.42885864      -0.84947331      -1.15872532
C       -0.68897418      -0.18910996      -0.03665012
C       -1.47386627       0.45009117       1.06589656
C        0.69073016      -0.25121167       0.04124147
C        1.83886104      -0.09553859       0.58794482
C        3.12215642       0.42375715       0.25733315
O        3.92555786      -0.06420096      -0.51132260
H       -2.16690681      -0.18052965      -1.60838275
H       -0.75997197      -1.22253328      -1.93217347
H       -1.97910576      -1.69987979      -0.74370251
H        0.50284738       0.50838416      -0.91166186
H       -1.13274510       0.05153675       2.02499233
H       -1.29877594       1.52786828       1.08577853
H       -2.54653228       0.29039907       0.95461415
H        3.39558408       1.30044061       0.88481760
15
Frame=3 idx=010278 GeodesicLength=0.3008514126868054 rxn_smarts="[C:1]([C:2]([C:3]([H:12])([H:13])[H:14])([C:4]#[C:5][C:6](=[O:7])[H:15])[H:11])([H:8])([H:9])[H:10]>>[C:1]([C:2]([C:3]([H:12])([H:13])[H:14])=[C:4]=[C:5]([C:6](=[O:7])[H:15])[H:11])([H:8])([H:9])[H:10]"
C       -1.41331780      -0.85262059      -1.15811149
C       -0.69230816      -0.16670992      -0.03785363
C       -1.49690642       0.43858304       1.07083804
C        0.68467476      -0.24399761       0.06455110
C        1.82010833       0.00370779       0.59810296
C        3.13406346       0.41930473       0.23571008
O        3.91240914      -0.17442853      -0.48121684
H       -2.16520982      -0.20197358      -1.61152317
H       -0.73540954      -1.21107415      -1.93064982
H       -1.94388977      -1.71539560      -0.74345537
H        0.50303350       0.56788254      -0.88643611
H       -1.20089115      -0.01929988       2.01825995
H       -1.29012214       1.50768653       1.15182020
H       -2.57004156       0.31938080       0.92065354
H        3.45380716       1.32895443       0.78931057
15
Frame=4 idx=010278 GeodesicLength=0.40144050293189326 rxn_smarts="[C:1]([C:2]([C:3]([H:12])([H:13])[H:14])([C:4]#[C:5][C:6](=[O:7])[H:15])[H:11])([H:8])([H:9])[H:10]>>[C:1]([C:2]([C:3]([H:12])([H:13])[H:14])=[C:4]=[C:5]([C:6](=[O:7])[H:15])[H:11])([H:8])([H:9])[H:10]"
C       -1.40367288      -0.85601548      -1.15644005
C       -0.69350840      -0.14640600      -0.04265652
C       -1.50995576       0.42810808       1.07514499
C        0.68088838      -0.24197858       0.07730464
C        1.80313377       0.08881879       0.58865185
C        3.14091400       0.41870468       0.21818277
O        3.90826990      -0.26798141      -0.42170113
H       -2.16914534      -0.22172266      -1.61012221
H       -0.72229381      -1.20282765      -1.93121598
H       -1.91529620      -1.72839541      -0.73854307
H        0.50141839       0.62103917      -0.87234148
H       -1.26010022      -0.09043301       2.00428692
H       -1.26752797       1.48282917       1.21915051
H       -2.58211184       0.35787054       0.89127301
H        3.48898799       1.35838977       0.69902578
15
Frame=5 idx=010278 GeodesicLength=0.5022168812603809 rxn_smarts="[C:1]([C:2]([C:3]([H:12])([H:13])[H:14])([C:4]#[C:5][C:6](=[O:7])[H:15])[H:11])([H:8])([H:9])[H:10]>>[C:1]([C:2]([C:3]([H:12])([H:13])[H:14])=[C:4]=[C:5]([C:6](=[O:7])[H:15])[H:11])([H:8])([H:9])[H:10]"
C       -1.39449300      -0.86045434      -1.15338114
C       -0.69414119      -0.12541651      -0.04823734
C       -1.52080332       0.41939228       1.07860118
C        0.67768839      -0.23727284       0.08795223
C        1.78804747       0.16633753       0.56801524
C        3.14657647       0.41688629       0.20281519
O        3.90037061      -0.34703737      -0.35942186
H       -2.17438100      -0.24386121      -1.60681841
H       -0.71070060      -1.19631496      -1.93091053
H       -1.88572208      -1.74180190      -0.73032307
H        0.49714060       0.67543546      -0.86195561
H       -1.31644372      -0.15577585       1.98516603
H       -1.24565832       1.45554710       1.28410445
H       -2.58962971       0.39807937       0.86533694
H        3.52214939       1.37625696       0.61905671
15
Frame=6 idx=010278 GeodesicLength=0.6031158624426508 rxn_smarts="[C:1]([C:2]([C:3]([H:12])([H:13])[H:14])([C:4]#[C:5][C:6](=[O:7])[H:15])[H:11])([H:8])([H:9])[H:10]>>[C:1]([C:2]([C:3]([H:12])([H:13])[H:14])=[C:4]=[C:5]([C:6](=[O:7])[H:15])[H:11])([H:8])([H:9])[H:10]"
C       -1.38563321      -0.86494505      -1.14954862
C       -0.69411580      -0.10460959      -0.05411662
C       -1.52948772       0.41156180       1.08163504
C        0.67505721      -0.23184360       0.09747595
C        1.77457584       0.23549879       0.53946158
C        3.15100939       0.41352383       0.19023320
O        3.89023274      -0.41541215      -0.29185319
H       -2.18004785      -0.26633687      -1.60176813
H       -0.70045030      -1.19013995      -1.93044839
H       -1.85587806      -1.75466557      -0.72067669
H        0.49098321       0.73049201      -0.85356986
H       -1.37045319      -0.21633714       1.96181548
H       -1.22377295       1.42508260       1.34707101
H       -2.59279738       0.43950647       0.84277412
H        3.55077806       1.38862442       0.54151513
15
Frame=7 idx=010278 GeodesicLength=0.7039225286982551 rxn_smarts="[C:1]([C:2]([C:3]([H:12])([H:13])[H:14])([C:4]#[C:5][C:6](=[O:7])[H:15])[H:11])([H:8])([H:9])[H:10]>>[C:1]([C:2]([C:3]([H:12])([H:13])[H:14])=[C:4]=[C:5]([C:6](=[O:7])[H:15])[H:11])([H:8])([H:9])[H:10]"
C       -1.37812964      -0.86907233      -1.14544352
C       -0.69331111      -0.08517106      -0.06038616
C       -1.53522017       0.40432733       1.08437339
C        0.67308297      -0.22856810       0.10527603
C        1.76256221       0.29421336       0.50438307
C        3.15395851       0.41025928       0.17948669
O        3.88096166      -0.47252795      -0.21581854
H       -2.18651847      -0.28742686      -1.59492416
H       -0.69314157      -1.18428822      -1.93066201
H       -1.82790900      -1.76622193      -0.71060226
H        0.48362956       0.78455267      -0.84697077
H       -1.42159289      -0.27217758       1.93497021
H       -1.20009537       1.39125314       1.40744503
H       -2.59102867       0.48243889       0.82393172
H        3.57275199       1.39840937       0.46494125
15
Frame=8 idx=010278 GeodesicLength=0.8047672606400209 rxn_smarts="[C:1]([C:2]([C:3]([H:12])([H:13])[H:14])([C:4]#[C:5][C:6](=[O:7])[H:15])[H:11])([H:8])([H:9])[H:10]>>[C:1]([C:2]([C:3]([H:12])([H:13])[H:14])=[C:4]=[C:5]([C:6](=[O:7])[H:15])[H:11])([H:8])([H:9])[H:10]"
C       -1.37041483      -0.87301201      -1.14092854
C       -0.69195933      -0.06652334      -0.06621559
C       -1.53988981       0.39761412       1.08683693
C        0.67140586      -0.22584364       0.11377044
C        1.75186004       0.34508197       0.46499913
C        3.15599179       0.40615204       0.17043454
O        3.86964119      -0.52009629      -0.13772523
H       -2.19232195      -0.30802020      -1.58700812
H       -0.68604323      -1.17837549      -1.93063684
H       -1.79985924      -1.77711241      -0.70042257
H        0.47485996       0.83936680      -0.83989988
H       -1.47196681      -0.32298830       1.90538553
H       -1.17742519       1.35453731       1.46521977
H       -2.58612148       0.52571911       0.80772461
H        3.59224303       1.40350033       0.38846582
15
Frame=9 idx=010278 GeodesicLength=0.9055445450942633 rxn_smarts="[C:1]([C:2]([C:3]([H:12])([H:13])[H:14])([C:4]#[C:5][C:6](=[O:7])[H:15])[H:11])([H:8])([H:9])[H:10]>>[C:1]([C:2]([C:3]([H:12])([H:13])[H:14])=[C:4]=[C:5]([C:6](=[O:7])[H:15])[H:11])([H:8])([H:9])[H:10]"
C       -1.36335823      -0.87630319      -1.13647673
C       -0.68992246      -0.04937264      -0.07176010
C       -1.54283564       0.39095812       1.08926904
C        0.67015287      -0.22544044       0.12217492
C        1.74222622       0.38715481       0.42138427
C        3.15702873       0.40221616       0.16156293
O        3.85897936      -0.55802717      -0.05179395
H       -2.19799947      -0.32668434      -1.57797431
H       -0.68048377      -1.17204857      -1.93119744
H       -1.77328048      -1.78678034      -0.69098678
H        0.46490671       0.89417037      -0.83226462
H       -1.52094831      -0.36933726       1.87360913
H       -1.15459039       1.31464640       1.52038147
H       -2.57755158       0.56922378       0.79464418
H        3.60767645       1.40562431       0.30942799
15
Frame=10 idx=010278 GeodesicLength=1.0064437055447224 rxn_smarts="[C:1]([C:2]([C:3]([H:12])([H:13])[H:14])([C:4]#[C:5][C:6](=[O:7])[H:15])[H:11])([H:8])([H:9])[H:10]>>[C:1]([C:2]([C:3]([H:12])([H:13])[H:14])=[C:4]=[C:5]([C:6](=[O:7])[H:15])[H:11])([H:8])([H:9])[H:10]"
C       -1.35547756      -0.87909391      -1.13185461
C       -0.68732708      -0.03304185      -0.07628120
C       -1.54562356       0.38432473       1.09170045
C        0.66904659      -0.22577777       0.13271952
C        1.73355841       0.42243930       0.37451595
C        3.15739546       0.39757048       0.15312530
O        3.84648398      -0.58737331       0.03687710
H       -2.20215457      -0.34429859      -1.56847882
H       -0.67392612      -1.16499674      -1.93137311
H       -1.74631229      -1.79572895      -0.68230650
H        0.45349920       0.95055557      -0.82204762
H       -1.57037662      -0.41127734       1.83998883
H       -1.13397009       1.27193826       1.57336935
H       -2.56675692       0.61230398       0.78367253
H        3.62194115       1.40245615       0.22637284
15
Frame=11 idx=010278 GeodesicLength=1.1072749598904255 rxn_smarts="[C:1]([C:2]([C:3]([H:12])([H:13])[H:14])([C:4]#[C:5][C:6](=[O:7])[H:15])[H:11])([H:8])([H:9])[H:10]>>[C:1]([C:2]([C:3]([H:12])([H:13])[H:14])=[C:4]=[C:5]([C:6](=[O:7])[H:15])[H:11])([H:8])([H:9])[H:10]"
C       -1.34795775      -0.88121089      -1.12739435
C       -0.68394847      -0.01829082      -0.08016231
C       -1.54727431       0.37769865       1.09411778
C        0.66824870      -0.22902539       0.14426075
C        1.72559034       0.44899094       0.32350365
C        3.15705064       0.39302432       0.14346210
O        3.83481641      -0.60552519       0.13158803
H       -2.20556498      -0.35962766      -1.55848988
H       -0.66815048      -1.15763096      -1.93179088
H       -1.72103372      -1.80345252      -0.67467874
H        0.44115640       1.00723147      -0.80952341
H       -1.61904217      -0.44866946       1.80497097
H       -1.11412154       1.22677584       1.62353317
H       -2.55297731       0.65498955       0.77531749
H        3.63320824       1.39472212       0.14128561
15
Frame=12 idx=010278 GeodesicLength=1.2083804254963457 rxn_smarts="[C:1]([C:2]([C:3]([H:12])([H:13])[H:14])([C:4]#[C:5][C:6](=[O:7])[H:15])[H:11])([H:8])([H:9])[H:10]>>[C:1]([C:2]([C:3]([H:12])([H:13])[H:14])=[C:4]=[C:5]([C:6](=[O:7])[H:15])[H:11])([H:8])([H:9])[H:10]"
C       -1.33906436      -0.88280914      -1.12270481
C       -0.67988176      -0.00424555      -0.08256920
C       -1.54945100       0.37108994       1.09656694
C        0.66746544      -0.23319373       0.15938664
C        1.71817507       0.46841864       0.26823786
C        3.15615676       0.38774514       0.13335603
O        3.82145747      -0.61397037       0.22677763
H       -2.20663357      -0.37376290      -1.54865566
H       -0.66021477      -1.14958248      -1.93123378
H       -1.69519157      -1.81046734      -0.66785170
H        0.42755312       1.06605556      -0.79236769
H       -1.66902693      -0.48174985       1.76852934
H       -1.09762006       1.17937037       1.67178278
H       -2.53764093       0.69698202       0.76842855
H        3.64391708       1.38011970       0.05231707
15
Frame=13 idx=010278 GeodesicLength=1.3095524932458658 rxn_smarts="[C:1]([C:2]([C:3]([H:12])([H:13])[H:14])([C:4]#[C:5][C:6](=[O:7])[H:15])[H:11])([H:8])([H:9])[H:10]>>[C:1]([C:2]([C:3]([H:12])([H:13])[H:14])=[C:4]=[C:5]([C:6](=[O:7])[H:15])[H:11])([H:8])([H:9])[H:10]"
C       -1.32989905      -0.88386304      -1.11799717
C       -0.67480117       0.00837395      -0.08390887
C       -1.55116762       0.36475056       1.09888694
C        0.66687107      -0.24040531       0.17716707
C        1.71087397       0.47792266       0.20691920
C        3.15454285       0.38243279       0.12261070
O        3.80851785      -0.61016060       0.32255952
H       -2.20592661      -0.38554413      -1.53910303
H       -0.65167876      -1.14167564      -1.93003076
H       -1.67095178      -1.81629809      -0.66180463
H        0.41369318       1.12554186      -0.77066146
H       -1.71877071      -0.50995954       1.73117654
H       -1.08319128       1.13065551       1.71712805
H       -2.52009391       0.73818602       0.76333277
H        3.65198197       1.36004299      -0.03627487
15
Frame=14 idx=010278 GeodesicLength=1.4111028145083244 rxn_smarts="[C:1]([C:2]([C:3]([H:12])([H:13])[H:14])([C:4]#[C:5][C:6](=[O:7])[H:15])[H:11])([H:8])([H:9])[H:10]>>[C:1]([C:2]([C:3]([H:12])([H:13])[H:14])=[C:4]=[C:5]([C:6](=[O:7])[H:15])[H:11])([H:8])([H:9])[H:10]"
C       -1.32050966      -0.88431336      -1.11331263
C       -0.66851678       0.01958921      -0.08421757
C       -1.55227134       0.35856729       1.10114662
C        0.66653310      -0.25076406       0.19776243
C        1.70323880       0.47566842       0.13628588
C        3.15183720       0.37810396       0.11377143
O        3.79530141      -0.59339926       0.41896519
H       -2.20341615      -0.39467401      -1.52998791
H       -0.64243659      -1.13391942      -1.92811333
H       -1.64847910      -1.82093310      -0.65654679
H        0.40024690       1.18577644      -0.74341780
H       -1.76836895      -0.53364203       1.69284956
H       -1.07046887       1.08036157       1.76008842
H       -2.50002289       0.77900075       0.76001013
H        3.65733291       1.33457760      -0.12528363
15
Frame=15 idx=010278 GeodesicLength=1.5132319687135019 rxn_smarts="[C:1]([C:2]([C:3]([H:12])([H:13])[H:14])([C:4]#[C:5][C:6](=[O:7])[H:15])[H:11])([H:8])([H:9])[H:10]>>[C:1]([C:2]([C:3]([H:12])([H:13])[H:14])=[C:4]=[C:5]([C:6](=[O:7])[H:15])[H:11])([H:8])([H:9])[H:10]"
C       -1.31296025      -0.88396066      -1.10923400
C       -0.66048030       0.02858994      -0.08471326
C       -1.55037053       0.35226951       1.10344207
C        0.66697238      -0.26673583       0.21832066
C        1.69479122       0.45583580       0.05000511
C        3.14647825       0.37818040       0.11104215
O        3.78083507      -0.55888715       0.52163510
H       -2.20113283      -0.39967809      -1.52066610
H       -0.63577102      -1.12665349      -1.92694818
H       -1.63026476      -1.82401670      -0.65245889
H        0.38979770       1.24453986      -0.71141155
H       -1.81592779      -0.55297474       1.65363523
H       -1.05542640       1.02747321       1.80053986
H       -2.47473661       0.82062510       0.75979353
H        3.65819585       1.30539283      -0.21298172
15
Frame=16 idx=010278 GeodesicLength=1.6157045377185535 rxn_smarts="[C:1]([C:2]([C:3]([H:12])([H:13])[H:14])([C:4]#[C:5][C:6](=[O:7])[H:15])[H:11])([H:8])([H:9])[H:10]>>[C:1]([C:2]([C:3]([H:12])([H:13])[H:14])=[C:4]=[C:5]([C:6](=[O:7])[H:15])[H:11])([H:8])([H:9])[H:10]"
C       -1.31054565      -0.88246717      -1.10684418
C       -0.64920519       0.03309263      -0.08710756
C       -1.54133085       0.34603929       1.10550473
C        0.66913869      -0.29516584       0.23470160
C        1.68509153       0.40848053      -0.05226997
C        3.13391812       0.38787828       0.11708227
O        3.76352681      -0.49737356       0.63399969
H       -2.20114009      -0.39675719      -1.51095606
H       -0.63692526      -1.12164050      -1.92863931
H       -1.62228726      -1.82434952      -0.65049827
H        0.39052756       1.29455165      -0.67636113
H       -1.85840047      -0.56672228       1.61431323
H       -1.03129988       0.97152247       1.83689774
H       -2.43940280       0.86488974       0.76386344
H        3.64833474       1.27802147      -0.29368621
