16
Frame=0 idx=005943 GeodesicLength=0.0 rxn_smarts="[C:1]([C:2]([C:3]([H:11])([H:12])[H:13])([C:4]([C:5]#[C:6][H:16])([H:14])[H:15])[H:10])([H:7])([H:8])[H:9]>>[C:1]([C:2]([C:3]([H:11])([H:12])[H:13])([C:6](=[C:5]=[C:4]([H:14])[H:15])[H:16])[H:10])([H:7])([H:8])[H:9]"
C       -0.50065989       0.15719841      -1.51925643
C       -0.40549062      -0.06546022      -0.02305356
C       -0.33550339      -1.51978302       0.39806215
C        0.38753406       1.39977057       1.19599287
C        1.84041966       1.39596447       1.06726435
C        1.39665386       0.45383705       0.27533970
H       -1.44127717      -0.25724094      -1.89325768
H        0.31544934      -0.33276395      -2.05392694
H       -0.47825000       1.21880597      -1.77085769
H       -1.29532679       0.36545223       0.42933431
H       -0.20146047      -1.62182593       1.47623957
H       -1.26583336      -2.02594282       0.12497706
H        0.48637094      -2.04366190      -0.09384506
H       -0.19146114       2.18764880       0.71607999
H       -0.07360171       0.97664832       2.08725128
H        1.76243664      -0.28864704      -0.41634392
16
Frame=1 idx=005943 GeodesicLength=0.11640377042001576 rxn_smarts="[C:1]([C:2]([C:3]([H:11])([H:12])[H:13])([C:4]([C:5]#[C:6][H:16])([H:14])[H:15])[H:10])([H:7])([H:8])[H:9]>>[C:1]([C:2]([C:3]([H:11])([H:12])[H:13])([C:6](=[C:5]=[C:4]([H:14])[H:15])[H:16])[H:10])([H:7])([H:8])[H:9]"
C       -0.50564127       0.15395101      -1.52051554
C       -0.40228513      -0.06543752      -0.02318587
C       -0.34051556      -1.52208561       0.39534141
C        0.38066997       1.40893393       1.20434056
C        1.82639376       1.39230991       1.06505633
C        1.41900743       0.44603391       0.26661052
H       -1.44465781      -0.26564031      -1.89258804
H        0.31031327      -0.33395721      -2.05727697
H       -0.48939139       1.21507010      -1.77471081
H       -1.29943006       0.35835572       0.42380376
H       -0.21223631      -1.62749142       1.47391265
H       -1.26988130      -2.02684992       0.11672561
H        0.48152121      -2.04766414      -0.09445907
H       -0.18925725       2.20778859       0.73203929
H       -0.07129024       0.99596092       2.10488520
H        1.80668068      -0.28927794      -0.41997903
16
Frame=2 idx=005943 GeodesicLength=0.2328633974000086 rxn_smarts="[C:1]([C:2]([C:3]([H:11])([H:12])[H:13])([C:4]([C:5]#[C:6][H:16])([H:14])[H:15])[H:10])([H:7])([H:8])[H:9]>>[C:1]([C:2]([C:3]([H:11])([H:12])[H:13])([C:6](=[C:5]=[C:4]([H:14])[H:15])[H:16])[H:10])([H:7])([H:8])[H:9]"
C       -0.51068793       0.15071476      -1.52173203
C       -0.39927422      -0.06541519      -0.02329476
C       -0.34558484      -1.52436251       0.39261825
C        0.37321880       1.41831123       1.21290951
C        1.81152868       1.38756634       1.06194546
C        1.44176637       0.43766290       0.25734496
H       -1.44801841      -0.27404363      -1.89198674
H        0.30516953      -0.33508092      -2.06053674
H       -0.50064273       1.21132054      -1.77845148
H       -1.30369522       0.35114545       0.41820430
H       -0.22311141      -1.63308640       1.47155139
H       -1.27389453      -2.02783174       0.10846605
H        0.47666694      -2.05157310      -0.09504789
H       -0.18701669       2.22844395       0.74853883
H       -0.06894957       1.01591988       2.12293872
H        1.85252522      -0.28969155      -0.42346785
16
Frame=3 idx=005943 GeodesicLength=0.3493955487143858 rxn_smarts="[C:1]([C:2]([C:3]([H:11])([H:12])[H:13])([C:4]([C:5]#[C:6][H:16])([H:14])[H:15])[H:10])([H:7])([H:8])[H:9]>>[C:1]([C:2]([C:3]([H:11])([H:12])[H:13])([C:6](=[C:5]=[C:4]([H:14])[H:15])[H:16])[H:10])([H:7])([H:8])[H:9]"
C       -0.51580679       0.14748887      -1.52290871
C       -0.39648223      -0.06539725      -0.02338192
C       -0.35071615      -1.52661715       0.38989175
C        0.36514904       1.42791907       1.22171622
C        1.79571384       1.38164051       1.05785971
C        1.46494517       0.42868578       0.24750564
H       -1.45136387      -0.28245083      -1.89146283
H        0.30001256      -0.33613639      -2.06370644
H       -0.51200504       1.20755670      -1.78208024
H       -1.30813199       0.34382873       0.41254368
H       -0.23408405      -1.63861231       1.46915409
H       -1.27787530      -2.02889799       0.10019934
H        0.47180455      -2.05538840      -0.09561454
H       -0.18469671       2.24964003       0.76559991
H       -0.06653602       1.03655471       2.14142826
H        1.90007299      -0.28981408      -0.42674391
16
Frame=4 idx=005943 GeodesicLength=0.4660218282242715 rxn_smarts="[C:1]([C:2]([C:3]([H:11])([H:12])[H:13])([C:4]([C:5]#[C:6][H:16])([H:14])[H:15])[H:10])([H:7])([H:8])[H:9]>>[C:1]([C:2]([C:3]([H:11])([H:12])[H:13])([C:6](=[C:5]=[C:4]([H:14])[H:15])[H:16])[H:10])([H:7])([H:8])[H:9]"
C       -0.52100627       0.14427213      -1.52404938
C       -0.39393805      -0.06538993      -0.02345033
C       -0.35591608      -1.52885462       0.38716032
C        0.35642980       1.43777508       1.23077753
C        1.77882177       1.37442822       1.05271505
C        1.48855850       0.41906298       0.23705422
H       -1.45470020      -0.29086225      -1.89102742
H        0.29483637      -0.33712480      -2.06678618
H       -0.52348016       1.20377788      -1.78559785
H       -1.31275258       0.33641363       0.40683106
H       -0.24515381      -1.64407186       1.46671859
H       -1.28182691      -2.03006091       0.09192523
H        0.46693004      -2.05910990      -0.09616231
H       -0.18224341       2.27140260       0.78324347
H       -0.06399229       1.05789565       2.16037009
H        1.94943330      -0.28955389      -0.42972209
16
Frame=5 idx=005943 GeodesicLength=0.5827701055525598 rxn_smarts="[C:1]([C:2]([C:3]([H:11])([H:12])[H:13])([C:4]([C:5]#[C:6][H:16])([H:14])[H:15])[H:10])([H:7])([H:8])[H:9]>>[C:1]([C:2]([C:3]([H:11])([H:12])[H:13])([C:6](=[C:5]=[C:4]([H:14])[H:15])[H:16])[H:10])([H:7])([H:8])[H:9]"
C       -0.52629774       0.14106188      -1.52515996
C       -0.39167679      -0.06540191      -0.02350535
C       -0.36119270      -1.53108129       0.38442193
C        0.34703260       1.44789691       1.24011094
C        1.76070657       1.36580667       1.04642054
C        1.51262054       0.40875575       0.22595066
H       -1.45803529      -0.29928113      -1.89069474
H        0.28963390      -0.33804732      -2.06977659
H       -0.53507312       1.19998223      -1.78900679
H       -1.31757281       0.32890987       0.40107650
H       -0.25632134      -1.64946777       1.46424249
H       -1.28575292      -2.03133605       0.08364276
H        0.46203987      -2.06273648      -0.09669405
H       -0.17958466       2.29375850       0.80148934
H       -0.06124696       1.07997378       2.17977911
H        2.00072086      -0.28879366      -0.43229679
16
Frame=6 idx=005943 GeodesicLength=0.6996767080166275 rxn_smarts="[C:1]([C:2]([C:3]([H:11])([H:12])[H:13])([C:4]([C:5]#[C:6][H:16])([H:14])[H:15])[H:10])([H:7])([H:8])[H:9]>>[C:1]([C:2]([C:3]([H:11])([H:12])[H:13])([C:6](=[C:5]=[C:4]([H:14])[H:15])[H:16])[H:10])([H:7])([H:8])[H:9]"
C       -0.53169517       0.13785463      -1.52624786
C       -0.38974194      -0.06544606      -0.02355445
C       -0.36655753      -1.53330699       0.38167307
C        0.33693368       1.45830270       1.24973245
C        1.74120055       1.35564131       1.03886651
C        1.53714444       0.39772540       0.21415742
H       -1.46137810      -0.30771228      -1.89048343
H        0.28439844      -0.33890387      -2.07267734
H       -0.54679097       1.19616762      -1.79230933
H       -1.32261349       0.32132774       0.39529249
H       -0.26759074      -1.65480580       1.46172225
H       -1.28965874      -2.03274425       0.07534754
H        0.45712989      -2.06626745      -0.09721270
H       -0.17663019       2.31673378       0.82035643
H       -0.05820435       1.10282099       2.19966821
H        2.05405422      -0.28738745      -0.43433126
16
Frame=7 idx=005943 GeodesicLength=0.8167887913156657 rxn_smarts="[C:1]([C:2]([C:3]([H:11])([H:12])[H:13])([C:4]([C:5]#[C:6][H:16])([H:14])[H:15])[H:10])([H:7])([H:8])[H:9]>>[C:1]([C:2]([C:3]([H:11])([H:12])[H:13])([C:6](=[C:5]=[C:4]([H:14])[H:15])[H:16])[H:10])([H:7])([H:8])[H:9]"
C       -0.53721784       0.13464360      -1.52732441
C       -0.38818849      -0.06553981      -0.02360938
C       -0.37202549      -1.53554407       0.37890944
C        0.32611800       1.46900808       1.25965754
C        1.72011353       1.34377124       1.02993835
C        1.56214071       0.38593896       0.20163779
H       -1.46474020      -0.31616738      -1.89041825
H        0.27912236      -0.33969428      -2.07548855
H       -0.55864681       1.19232910      -1.79551110
H       -1.32790280       0.31367996       0.38949233
H       -0.27897040      -1.66009186       1.45915389
H       -1.29355015      -2.03431335       0.06703292
H        0.45219750      -2.06969986      -0.09771913
H       -0.17325651       2.34035374       0.83986112
H       -0.05474529       1.12646975       2.22004575
H        2.10955189      -0.28514383      -0.43565833
16
Frame=8 idx=005943 GeodesicLength=0.9341684158009538 rxn_smarts="[C:1]([C:2]([C:3]([H:11])([H:12])[H:13])([C:4]([C:5]#[C:6][H:16])([H:14])[H:15])[H:10])([H:7])([H:8])[H:9]>>[C:1]([C:2]([C:3]([H:11])([H:12])[H:13])([C:6](=[C:5]=[C:4]([H:14])[H:15])[H:16])[H:10])([H:7])([H:8])[H:9]"
C       -0.54289077       0.13142085      -1.52840320
C       -0.38708694      -0.06570879      -0.02368484
C       -0.37761797      -1.53781214       0.37612255
C        0.31458448       1.48002893       1.26989474
C        1.69723014       1.33002896       1.01949037
C        1.58761610       0.37336805       0.18836608
H       -1.46813501      -0.32466203      -1.89053349
H        0.27379974      -0.34041282      -2.07820790
H       -0.57066205       1.18846137      -1.79861576
H       -1.33347922       0.30597820       0.38369442
H       -0.29047604      -1.66533937       1.45653009
H       -1.29743569      -2.03608186       0.05868187
H        0.44723990      -2.07303140      -0.09821545
H       -0.16931114       2.36463961       0.86001625
H       -0.05070431       1.15095406       2.24091335
H        2.16732879      -0.28183160      -0.43604906
16
Frame=9 idx=005943 GeodesicLength=1.0518901854331772 rxn_smarts="[C:1]([C:2]([C:3]([H:11])([H:12])[H:13])([C:4]([C:5]#[C:6][H:16])([H:14])[H:15])[H:10])([H:7])([H:8])[H:9]>>[C:1]([C:2]([C:3]([H:11])([H:12])[H:13])([C:6](=[C:5]=[C:4]([H:14])[H:15])[H:16])[H:10])([H:7])([H:8])[H:9]"
C       -0.54874562       0.12817157      -1.52950434
C       -0.38652751      -0.06598743      -0.02380434
C       -0.38336421      -1.54013552       0.37330341
C        0.30235509       1.49137159       1.28044931
C        1.67230801       1.31421452       1.00737547
C        1.61356670       0.35999944       0.17432529
H       -1.47157521      -0.33322545      -1.89087373
H        0.26842545      -0.34105386      -2.08083063
H       -0.58286512       1.18455267      -1.80163411
H       -1.33939449       0.29823723       0.37791544
H       -0.30213789      -1.67056272       1.45384283
H       -1.30132351      -2.03810151       0.05027323
H        0.44225611      -2.07625459      -0.09869473
H       -0.16458225       2.38960497       0.88083157
H       -0.04587241       1.17630355       2.26226057
H        2.22747684      -0.27713444      -0.43523524
16
Frame=10 idx=005943 GeodesicLength=1.1700578319484602 rxn_smarts="[C:1]([C:2]([C:3]([H:11])([H:12])[H:13])([C:4]([C:5]#[C:6][H:16])([H:14])[H:15])[H:10])([H:7])([H:8])[H:9]>>[C:1]([C:2]([C:3]([H:11])([H:12])[H:13])([C:6](=[C:5]=[C:4]([H:14])[H:15])[H:16])[H:10])([H:7])([H:8])[H:9]"
C       -0.55482917       0.12487643      -1.53065399
C       -0.38663014      -0.06642339      -0.02399635
C       -0.38930489      -1.54255049       0.37043500
C        0.28948435       1.50303781       1.29131077
C        1.64508579       1.29612025       0.99342017
C        1.63997957       0.34583866       0.15952401
H       -1.47507942      -0.34190160      -1.89150352
H        0.26299664      -0.34160045      -2.08334927
H       -0.59531152       1.18058746      -1.80457661
H       -1.34572212       0.29046956       0.37217938
H       -0.31400244      -1.67578860       1.45107814
H       -1.30522470      -2.04044473       0.04176410
H        0.43724885      -2.07936018      -0.09915092
H       -0.15879654       2.41525321       0.90230439
H       -0.03996363       1.20254979       2.28405897
H        2.29006935      -0.27066373      -0.43284427
16
Frame=11 idx=005943 GeodesicLength=1.2887982628803345 rxn_smarts="[C:1]([C:2]([C:3]([H:11])([H:12])[H:13])([C:4]([C:5]#[C:6][H:16])([H:14])[H:15])[H:10])([H:7])([H:8])[H:9]>>[C:1]([C:2]([C:3]([H:11])([H:12])[H:13])([C:6](=[C:5]=[C:4]([H:14])[H:15])[H:16])[H:10])([H:7])([H:8])[H:9]"
C       -0.56119994       0.12150326      -1.53188900
C       -0.38755074      -0.06707851      -0.02430323
C       -0.39549891      -1.54510362       0.36749807
C        0.27607660       1.51500778       1.30245784
C        1.61528653       1.27551360       0.97745836
C        1.66682178       0.33093052       0.14399502
H       -1.47866509      -0.35076175      -1.89250573
H        0.25751532      -0.34203501      -2.08575076
H       -0.60807118       1.17653841      -1.80746556
H       -1.35256286       0.28269057       0.36650599
H       -0.32614968      -1.68104827       1.44821905
H       -1.30915410      -2.04321079       0.03310033
H        0.43222247      -2.08233150      -0.09956240
H       -0.15157914       2.44156419       0.92442463
H       -0.03261370       1.22970990       2.30625160
H        2.35512264      -0.26188879      -0.42843421
16
Frame=12 idx=005943 GeodesicLength=1.408263812291595 rxn_smarts="[C:1]([C:2]([C:3]([H:11])([H:12])[H:13])([C:4]([C:5]#[C:6][H:16])([H:14])[H:15])[H:10])([H:7])([H:8])[H:9]>>[C:1]([C:2]([C:3]([H:11])([H:12])[H:13])([C:6](=[C:5]=[C:4]([H:14])[H:15])[H:16])[H:10])([H:7])([H:8])[H:9]"
C       -0.56794364       0.11801883      -1.53324932
C       -0.38948941      -0.06804245      -0.02476986
C       -0.40201793      -1.54786481       0.36445410
C        0.26230383       1.52725722       1.31382343
C        1.58263505       1.25219160       0.95928624
C        1.69403804       0.31535699       0.12783841
H       -1.48235851      -0.35989083      -1.89399404
H        0.25198385      -0.34230541      -2.08801258
H       -0.62126695       1.17237573      -1.81030857
H       -1.36005127       0.27489682       0.36093251
H       -0.33867022      -1.68640535       1.44523138
H       -1.31312486      -2.04652944       0.02418473
H        0.42718803      -2.08514740      -0.09992156
H       -0.14246859       2.46848592       0.94713709
H       -0.02332524       1.25780764       2.32872738
H        2.42256784      -0.25020507      -0.42135933
16
Frame=13 idx=005943 GeodesicLength=1.5286370070286308 rxn_smarts="[C:1]([C:2]([C:3]([H:11])([H:12])[H:13])([C:4]([C:5]#[C:6][H:16])([H:14])[H:15])[H:10])([H:7])([H:8])[H:9]>>[C:1]([C:2]([C:3]([H:11])([H:12])[H:13])([C:6](=[C:5]=[C:4]([H:14])[H:15])[H:16])[H:10])([H:7])([H:8])[H:9]"
C       -0.57515478       0.11435983      -1.53479831
C       -0.39270029      -0.06941703      -0.02546649
C       -0.40897251      -1.55091286       0.36127247
C        0.24843183       1.53970618       1.32533493
C        1.54688352       1.22593796       0.93875980
C        1.72154334       0.29927814       0.11120990
H       -1.48617683      -0.36942659      -1.89611333
H        0.24642180      -0.34238393      -2.09010135
H       -0.63502105       1.16804151      -1.81315266
H       -1.36836916       0.26710078       0.35547079
H       -0.35173866      -1.69191519       1.44208852
H       -1.31716394      -2.05056962       0.01491028
H        0.42215669      -2.08777530      -0.10016778
H       -0.13084014       2.49590152       0.97038874
H       -0.01148908       1.28680300       2.35132356
H        2.49218926      -0.23472839      -0.41095907
16
Frame=14 idx=005943 GeodesicLength=1.6501145079857662 rxn_smarts="[C:1]([C:2]([C:3]([H:11])([H:12])[H:13])([C:4]([C:5]#[C:6][H:16])([H:14])[H:15])[H:10])([H:7])([H:8])[H:9]>>[C:1]([C:2]([C:3]([H:11])([H:12])[H:13])([C:6](=[C:5]=[C:4]([H:14])[H:15])[H:16])[H:10])([H:7])([H:8])[H:9]"
C       -0.58296026       0.11045860      -1.53660813
C       -0.39749117      -0.07133306      -0.02646724
C       -0.41649024      -1.55435032       0.35790579
C        0.23483919       1.55224862       1.33685924
C        1.50784875       1.19659913       0.91575080
C        1.74921977       0.28293416       0.09437074
H       -1.49014159      -0.37953179      -1.89904952
H        0.24085457      -0.34220097      -2.09197162
H       -0.64952437       1.16347017      -1.81604080
H       -1.37774728       0.25929235       0.35014372
H       -0.36555464      -1.69766761       1.43875061
H       -1.32129103      -2.05553625       0.00512172
H        0.41715289      -2.09016906      -0.10024146
H       -0.11593697       2.52361615       0.99405054
H        0.00366298       1.31662782       2.37378075
H        2.56355940      -0.21445794      -0.39635515
16
Frame=15 idx=005943 GeodesicLength=1.772863711582855 rxn_smarts="[C:1]([C:2]([C:3]([H:11])([H:12])[H:13])([C:4]([C:5]#[C:6][H:16])([H:14])[H:15])[H:10])([H:7])([H:8])[H:9]>>[C:1]([C:2]([C:3]([H:11])([H:12])[H:13])([C:6](=[C:5]=[C:4]([H:14])[H:15])[H:16])[H:10])([H:7])([H:8])[H:9]"
C       -0.59150363       0.10625472      -1.53872405
C       -0.40421021      -0.07395251      -0.02783657
C       -0.42471854      -1.55831643       0.35428076
C        0.22203786       1.56475799       1.34817282
C        1.46545072       1.16414949       0.89014485
C        1.77690977       0.26667950       0.07770489
H       -1.49425455      -0.39039023      -1.90298872
H        0.23532133      -0.34161707      -2.09353091
H       -0.66501817       1.15860386      -1.81896516
H       -1.38845186       0.25141588       0.34499347
H       -0.38035157      -1.70381591       1.43513827
H       -1.32551602      -2.06168670      -0.00538904
H        0.41220236      -2.09227003      -0.10009713
H       -0.09688057       2.55132934       1.01786343
H        0.02305756       1.34717373       2.39568077
H        2.63592552      -0.18831564      -0.37644766
16
Frame=16 idx=005943 GeodesicLength=1.8970340220402346 rxn_smarts="[C:1]([C:2]([C:3]([H:11])([H:12])[H:13])([C:4]([C:5]#[C:6][H:16])([H:14])[H:15])[H:10])([H:7])([H:8])[H:9]>>[C:1]([C:2]([C:3]([H:11])([H:12])[H:13])([C:6](=[C:5]=[C:4]([H:14])[H:15])[H:16])[H:10])([H:7])([H:8])[H:9]"
C       -0.60092713       0.10166724      -1.54122286
C       -0.41322893      -0.07742202      -0.02965273
C       -0.43381869      -1.56292791       0.35035115
C        0.21067229       1.57703048       1.35904896
C        1.41976486       1.12860836       0.86201178
C        1.80443471       0.25099197       0.06171266
H       -1.49849019      -0.40222455      -1.90815973
H        0.22988844      -0.34050947      -2.09467743
H       -0.68175277       1.15335534      -1.82198520
H       -1.40079216       0.24343662       0.34002010
H       -0.39642861      -1.71047757       1.43120783
H       -1.32982920      -2.06927493      -0.01683111
H        0.40735469      -2.09398254      -0.09960463
H       -0.07265903       2.57858943       1.04151051
H        0.04767501       1.37817965       2.41650423
H        2.70813670      -0.15504012      -0.35023354
