12
Frame=0 idx=001155 GeodesicLength=0.0 rxn_smarts="[C:1]([C:2]([C:3]([O:4][H:12])([H:10])[H:11])([H:8])[H:9])([H:5])([H:6])[H:7]>>[C:1]([C:2]([C:3](=[O:4])[H:10])([H:9])[H:11])([H:5])([H:6])[H:7].[H:8][H:12]"
C       -1.50512708       0.16251259      -0.02435189
C       -0.08125656      -0.06374991      -0.38076988
C        1.04161845       0.51879018       0.33125055
O        2.20244565      -0.01630676       0.12442040
H       -1.60592570       0.64159740       0.94928349
H       -2.00353208      -0.80882757       0.01933415
H       -2.02911957       0.74826660      -0.78253925
H        0.74328935      -1.71903889       0.07544347
H        0.14464293      -0.37797665      -1.39556671
H        0.77655813       0.88234791       1.34042047
H        0.79630251       1.41347167      -0.38313514
H        1.52010400      -1.38108652       0.12621036
12
Frame=1 idx=001155 GeodesicLength=0.09686954947230218 rxn_smarts="[C:1]([C:2]([C:3]([O:4][H:12])([H:10])[H:11])([H:8])[H:9])([H:5])([H:6])[H:7]>>[C:1]([C:2]([C:3](=[O:4])[H:10])([H:9])[H:11])([H:5])([H:6])[H:7].[H:8][H:12]"
C       -1.50501214       0.16630970      -0.02296312
C       -0.08010084      -0.06658148      -0.37870549
C        1.04134907       0.52046722       0.33778726
O        2.20112950      -0.01803409       0.12972439
H       -1.60963067       0.64553657       0.95034240
H       -2.01070782      -0.80121043       0.01722613
H       -2.02271846       0.75919589      -0.78002768
H        0.74782526      -1.72504938       0.06072828
H        0.14298073      -0.38074693      -1.39411668
H        0.77554979       0.88438948       1.34639278
H        0.77097287       1.40646568      -0.39976560
H        1.54836271      -1.39074223       0.13337732
12
Frame=2 idx=001155 GeodesicLength=0.19321553092949362 rxn_smarts="[C:1]([C:2]([C:3]([O:4][H:12])([H:10])[H:11])([H:8])[H:9])([H:5])([H:6])[H:7]>>[C:1]([C:2]([C:3](=[O:4])[H:10])([H:9])[H:11])([H:5])([H:6])[H:7].[H:8][H:12]"
C       -1.50495642       0.17009629      -0.02156605
C       -0.07902837      -0.06920552      -0.37680142
C        1.04106540       0.52233301       0.34408398
O        2.19966613      -0.02006784       0.13516941
H       -1.61334487       0.64967851       0.95129723
H       -2.01773940      -0.79362139       0.01534580
H       -2.01654371       0.76980945      -0.77751767
H        0.75228066      -1.73081241       0.04564250
H        0.14116158      -0.38339395      -1.39281012
H        0.77455474       0.88619397       1.35230811
H        0.74594716       1.39933245      -0.41615919
H        1.57693708      -1.40034256       0.14100744
12
Frame=3 idx=001155 GeodesicLength=0.2892796962592767 rxn_smarts="[C:1]([C:2]([C:3]([O:4][H:12])([H:10])[H:11])([H:8])[H:9])([H:5])([H:6])[H:7]>>[C:1]([C:2]([C:3](=[O:4])[H:10])([H:9])[H:11])([H:5])([H:6])[H:7].[H:8][H:12]"
C       -1.50496236       0.17387952      -0.02016184
C       -0.07803815      -0.07163515      -0.37504695
C        1.04076567       0.52435381       0.35017065
O        2.19805683      -0.02239694       0.14075986
H       -1.61707135       0.65403048       0.95214676
H       -2.02464741      -0.78605055       0.01368944
H       -2.01058956       0.78012423      -0.77502052
H        0.75658895      -1.73634702       0.03022442
H        0.13918673      -0.38592580      -1.39163732
H        0.77356664       0.88776331       1.35818137
H        0.72120021       1.39208667      -0.43234534
H        1.60594381      -1.40988255       0.14903949
12
Frame=4 idx=001155 GeodesicLength=0.3852261772889553 rxn_smarts="[C:1]([C:2]([C:3]([O:4][H:12])([H:10])[H:11])([H:8])[H:9])([H:5])([H:6])[H:7]>>[C:1]([C:2]([C:3](=[O:4])[H:10])([H:9])[H:11])([H:5])([H:6])[H:7].[H:8][H:12]"
C       -1.50503398       0.17766866      -0.01875216
C       -0.07713067      -0.07388212      -0.37343113
C        1.04044599       0.52650158       0.35607304
O        2.19630543      -0.02500789       0.14649416
H       -1.62081418       0.65860507       0.95288663
H       -2.03145312      -0.77848537       0.01225617
H       -2.00485136       0.79015447      -0.77255122
H        0.76068093      -1.74167410       0.01449781
H        0.13705629      -0.38835472      -1.39058608
H        0.77258159       0.88909161       1.36402702
H        0.69670524       1.38473899      -0.44834333
H        1.63550786      -1.41935619       0.15742909
12
Frame=5 idx=001155 GeodesicLength=0.480957548815465 rxn_smarts="[C:1]([C:2]([C:3]([O:4][H:12])([H:10])[H:11])([H:8])[H:9])([H:5])([H:6])[H:7]>>[C:1]([C:2]([C:3](=[O:4])[H:10])([H:9])[H:11])([H:5])([H:6])[H:7].[H:8][H:12]"
C       -1.50517533       0.18146910      -0.01733918
C       -0.07630933      -0.07594491      -0.37195666
C        1.04010461       0.52875915       0.36180928
O        2.19439971      -0.02792100       0.15237482
H       -1.62457525       0.66340293       0.95351827
H       -2.03816652      -0.77092248       0.01103885
H       -1.99933459       0.79991577      -0.77011275
H        0.76453082      -1.74680268      -0.00149369
H        0.13476549      -0.39067468      -1.38966020
H        0.77159349       0.89017689       1.36985501
H        0.67245293       1.37729964      -0.46417654
H        1.66571396      -1.42875774       0.16614277
12
Frame=6 idx=001155 GeodesicLength=0.5768520571092123 rxn_smarts="[C:1]([C:2]([C:3]([O:4][H:12])([H:10])[H:11])([H:8])[H:9])([H:5])([H:6])[H:7]>>[C:1]([C:2]([C:3](=[O:4])[H:10])([H:9])[H:11])([H:5])([H:6])[H:7].[H:8][H:12]"
C       -1.50539192       0.18529492      -0.01592738
C       -0.07557682      -0.07783706      -0.37061341
C        1.03973620       0.53108114       0.36741126
O        2.19234569      -0.03110512       0.15837297
H       -1.62836029       0.66843864       0.95403527
H       -2.04481719      -0.76334011       0.01002958
H       -1.99403107       0.80943146      -0.76772201
H        0.76799918      -1.75177682      -0.01773541
H        0.13231421      -0.39290619      -1.38884579
H        0.77059974       0.89099273       1.37568833
H        0.64840655       1.36977683      -0.47986374
H        1.69677571      -1.43805043       0.17517034
12
Frame=7 idx=001155 GeodesicLength=0.6729031548092315 rxn_smarts="[C:1]([C:2]([C:3]([O:4][H:12])([H:10])[H:11])([H:8])[H:9])([H:5])([H:6])[H:7]>>[C:1]([C:2]([C:3](=[O:4])[H:10])([H:9])[H:11])([H:5])([H:6])[H:7].[H:8][H:12]"
C       -1.50568882       0.18915611      -0.01451999
C       -0.07493691      -0.07956213      -0.36939922
C        1.03933958       0.53343668       0.37290028
O        2.19013427      -0.03455232       0.16447669
H       -1.63217066       0.67371787       0.95443792
H       -2.05142335      -0.75572433       0.00921905
H       -1.98893981       0.81872158      -0.76538548
H        0.77100512      -1.75661861      -0.03421909
H        0.12969787      -0.39505444      -1.38813987
H        0.76959697       0.89152649       1.38153945
H        0.62454352       1.36216960      -0.49542564
H        1.72884222      -1.44721648       0.18451589
12
Frame=8 idx=001155 GeodesicLength=0.7694040402263397 rxn_smarts="[C:1]([C:2]([C:3]([O:4][H:12])([H:10])[H:11])([H:8])[H:9])([H:5])([H:6])[H:7]>>[C:1]([C:2]([C:3](=[O:4])[H:10])([H:9])[H:11])([H:5])([H:6])[H:7].[H:8][H:12]"
C       -1.50607898       0.19306876      -0.01312762
C       -0.07440340      -0.08112849      -0.36832015
C        1.03890834       0.53578267       0.37829998
O        2.18776189      -0.03825774       0.17061777
H       -1.63601430       0.67924866       0.95472238
H       -2.05802120      -0.74805079       0.00858482
H       -1.98406300       0.82781983      -0.76311379
H        0.77338735      -1.76136548      -0.05091134
H        0.12690398      -0.39712743      -1.38754889
H        0.76858593       0.89172186       1.38743529
H        0.60083851       1.35448222      -0.51086566
H        1.76219488      -1.45619407       0.19422721
12
Frame=9 idx=001155 GeodesicLength=0.8669695271397989 rxn_smarts="[C:1]([C:2]([C:3]([O:4][H:12])([H:10])[H:11])([H:8])[H:9])([H:5])([H:6])[H:7]>>[C:1]([C:2]([C:3](=[O:4])[H:10])([H:9])[H:11])([H:5])([H:6])[H:7].[H:8][H:12]"
C       -1.50656989       0.19705457      -0.01174230
C       -0.07398594      -0.08257070      -0.36735735
C        1.03841935       0.53802971       0.38361465
O        2.18526774      -0.04213437       0.17670138
H       -1.63988642       0.68505897       0.95488124
H       -2.06466073      -0.74027523       0.00814264
H       -1.97938598       0.83675559      -0.76091999
H        0.77487949      -1.76610321      -0.06809389
H        0.12391485      -0.39915926      -1.38705017
H        0.76757880       0.89151517       1.39337192
H        0.57724076       1.34671605      -0.52618355
H        1.79718797      -1.46488728       0.20463542
12
Frame=10 idx=001155 GeodesicLength=0.9650664485963096 rxn_smarts="[C:1]([C:2]([C:3]([O:4][H:12])([H:10])[H:11])([H:8])[H:9])([H:5])([H:6])[H:7]>>[C:1]([C:2]([C:3](=[O:4])[H:10])([H:9])[H:11])([H:5])([H:6])[H:7].[H:8][H:12]"
C       -1.50717649       0.20112195      -0.01037869
C       -0.07370441      -0.08386108      -0.36655226
C        1.03788282       0.54015982       0.38886435
O        2.18259260      -0.04628293       0.18270090
H       -1.64379098       0.69112743       0.95492834
H       -2.07135181      -0.73239531       0.00784880
H       -1.97493623       0.84556678      -0.75878707
H        0.77546709      -1.77082940      -0.08559610
H        0.12070570      -0.40110480      -1.38669511
H        0.76657109       0.89087001       1.39937483
H        0.55376037       1.33886913      -0.54141242
H        1.83398026      -1.47324160       0.21570443
12
Frame=11 idx=001155 GeodesicLength=1.0635271196536504 rxn_smarts="[C:1]([C:2]([C:3]([O:4][H:12])([H:10])[H:11])([H:8])[H:9])([H:5])([H:6])[H:7]>>[C:1]([C:2]([C:3](=[O:4])[H:10])([H:9])[H:11])([H:5])([H:6])[H:7].[H:8][H:12]"
C       -1.50791035       0.20528463      -0.00903431
C       -0.07357745      -0.08499813      -0.36592651
C        1.03728986       0.54213135       0.39403642
O        2.17972377      -0.05074161       0.18854761
H       -1.64771977       0.69744696       0.95487596
H       -2.07811983      -0.72439027       0.00769392
H       -1.97072718       0.85428990      -0.75669916
H        0.77504491      -1.77558850      -0.10354726
H        0.11724128      -0.40294466      -1.38651162
H        0.76557621       0.88972995       1.40543554
H        0.53038550       1.33093975      -0.55656279
H        1.87279305      -1.48115938       0.22769218
12
Frame=12 idx=001155 GeodesicLength=1.1622039133956215 rxn_smarts="[C:1]([C:2]([C:3]([O:4][H:12])([H:10])[H:11])([H:8])[H:9])([H:5])([H:6])[H:7]>>[C:1]([C:2]([C:3](=[O:4])[H:10])([H:9])[H:11])([H:5])([H:6])[H:7].[H:8][H:12]"
C       -1.50878552       0.20955849      -0.00770902
C       -0.07362829      -0.08597749      -0.36551066
C        1.03663489       0.54388188       0.39912483
O        2.17664134      -0.05556299       0.19415602
H       -1.65166404       0.70400860       0.95473945
H       -2.08499438      -0.71623634       0.00766202
H       -1.96677610       0.86296959      -0.75463376
H        0.77349168      -1.78041800      -0.12206120
H        0.11347967      -0.40464969      -1.38653994
H        0.76460734       0.88802737       1.41155042
H        0.50709881       1.32293028      -0.57165555
H        1.91389459      -1.48853168       0.24087740
12
Frame=13 idx=001155 GeodesicLength=1.260828582781849 rxn_smarts="[C:1]([C:2]([C:3]([O:4][H:12])([H:10])[H:11])([H:8])[H:9])([H:5])([H:6])[H:7]>>[C:1]([C:2]([C:3](=[O:4])[H:10])([H:9])[H:11])([H:5])([H:6])[H:7].[H:8][H:12]"
C       -1.50981611       0.21395839      -0.00640023
C       -0.07388201      -0.08679599      -0.36533991
C        1.03591351       0.54535573       0.40411383
O        2.17332341      -0.06081875       0.19943848
H       -1.65561118       0.71079925       0.95454048
H       -2.09200519      -0.70791005       0.00774043
H       -1.96310266       0.87165141      -0.75256298
H        0.77070045      -1.78534525      -0.14127722
H        0.10937241      -0.40618720      -1.38682753
H        0.76368216       0.88568957       1.41770920
H        0.48388654       1.31484181      -0.58671135
H        1.95753870      -1.49523892       0.25557679
12
Frame=14 idx=001155 GeodesicLength=1.3594091939638746 rxn_smarts="[C:1]([C:2]([C:3]([O:4][H:12])([H:10])[H:11])([H:8])[H:9])([H:5])([H:6])[H:7]>>[C:1]([C:2]([C:3](=[O:4])[H:10])([H:9])[H:11])([H:5])([H:6])[H:7].[H:8][H:12]"
C       -1.51102529       0.21850906      -0.00510855
C       -0.07437996      -0.08745586      -0.36546632
C        1.03511761       0.54645349       0.40897928
O        2.16974037      -0.06660962       0.20424072
H       -1.65954533       0.71780099       0.95430674
H       -2.09920573      -0.69936825       0.00789997
H       -1.95972947       0.88041168      -0.75044657
H        0.76647063      -1.79042854      -0.16136523
H        0.10484551      -0.40751480      -1.38744409
H        0.76282862       0.88258829       1.42390168
H        0.46072725       1.30667526      -0.60174383
H        2.00415578      -1.50106169       0.27224619
12
Frame=15 idx=001155 GeodesicLength=1.4576487417298274 rxn_smarts="[C:1]([C:2]([C:3]([O:4][H:12])([H:10])[H:11])([H:8])[H:9])([H:5])([H:6])[H:7]>>[C:1]([C:2]([C:3](=[O:4])[H:10])([H:9])[H:11])([H:5])([H:6])[H:7].[H:8][H:12]"
C       -1.51243325       0.22323267      -0.00383082
C       -0.07516183      -0.08795834      -0.36594360
C        1.03424255       0.54708396       0.41369132
O        2.16585638      -0.07306224       0.20843491
H       -1.66344569       0.72499403       0.95407187
H       -2.10664201      -0.69057139       0.00811967
H       -1.95667907       0.88932212      -0.74823984
H        0.76065682      -1.79570835      -0.18249499
H        0.09982352      -0.40859086      -1.38846159
H        0.76207454       0.87860812       1.43010861
H        0.43760528       1.29843285      -0.61677197
H        2.05410277      -1.50578257       0.29131643
12
Frame=16 idx=001155 GeodesicLength=1.5553252590758064 rxn_smarts="[C:1]([C:2]([C:3]([O:4][H:12])([H:10])[H:11])([H:8])[H:9])([H:5])([H:6])[H:7]>>[C:1]([C:2]([C:3](=[O:4])[H:10])([H:9])[H:11])([H:5])([H:6])[H:7].[H:8][H:12]"
C       -1.51406506       0.22815976      -0.00256523
C       -0.07627780      -0.08830754      -0.36683455
C        1.03328243       0.54712952       0.41821448
O        2.16162836      -0.08033106       0.21186495
H       -1.66728750       0.73236161       0.95387240
H       -2.11437398      -0.68146434       0.00837438
H       -1.95397431       0.89847118      -0.74589232
H        0.75306292      -1.80124249      -0.20485573
H        0.09421321      -0.40937033      -1.38996295
H        0.76145549       0.87359222       1.43630991
H        0.41449892       1.29011271      -0.63181395
H        2.10783732      -1.50911123       0.31328861
