14
Frame=0 idx=006940 GeodesicLength=0.0 rxn_smarts="[O:1]=[C:2]([N:3]([C:4]([C:5]([C:6]#[C:7][H:14])([H:12])[H:13])([H:10])[H:11])[H:9])[H:8]>>[C:5](=[C:6]=[C:7]([H:9])[H:14])([H:12])[H:13].[O:1]=[C:2]([N:3]=[C:4]([H:10])[H:11])[H:8]"
O       -1.82778481      -0.70928723      -1.90623089
C       -1.55414635       0.29011644      -1.29028839
N       -1.18383484       0.35625638       0.05027139
C       -0.72040768      -0.76678201       0.59273000
C        1.34580801      -0.90309662       0.59999086
C        1.54969296       0.42060382       0.41345267
C        1.13598185       1.57847120       0.15002537
H       -1.62604719       1.28921502      -1.75194998
H       -0.09381777       1.31949597       0.13476798
H       -0.80009068      -1.68508142       0.01719765
H       -0.80278338      -0.85226357       1.67059278
H        1.48687225      -1.32765777       1.58750119
H        1.56191781      -1.57010613      -0.22813065
H        1.52863987       2.56011598      -0.03992999
14
Frame=1 idx=006940 GeodesicLength=0.09227954988948972 rxn_smarts="[O:1]=[C:2]([N:3]([C:4]([C:5]([C:6]#[C:7][H:14])([H:12])[H:13])([H:10])[H:11])[H:9])[H:8]>>[C:5](=[C:6]=[C:7]([H:9])[H:14])([H:12])[H:13].[O:1]=[C:2]([N:3]=[C:4]([H:10])[H:11])[H:8]"
O       -1.76245191      -0.72104768      -1.93025925
C       -1.54758745       0.28047083      -1.29482422
N       -1.18870655       0.35350657       0.04771136
C       -0.73907042      -0.76853366       0.60747614
C        1.34475428      -0.90200448       0.58560340
C        1.55995333       0.42393632       0.41106211
C        1.14661054       1.58507463       0.15895140
H       -1.65203290       1.28034825      -1.74907350
H       -0.10541794       1.33251438       0.14361573
H       -0.84440546      -1.69771308       0.05363783
H       -0.82097696      -0.83416932       1.68714521
H        1.51463793      -1.33696971       1.56427512
H        1.54558645      -1.55875988      -0.25486214
H        1.54910706       2.56334682      -0.03045920
14
Frame=2 idx=006940 GeodesicLength=0.18457703866712583 rxn_smarts="[O:1]=[C:2]([N:3]([C:4]([C:5]([C:6]#[C:7][H:14])([H:12])[H:13])([H:10])[H:11])[H:9])[H:8]>>[C:5](=[C:6]=[C:7]([H:9])[H:14])([H:12])[H:13].[O:1]=[C:2]([N:3]=[C:4]([H:10])[H:11])[H:8]"
O       -1.69606307      -0.73071395      -1.95167616
C       -1.54265720       0.27063659      -1.29840229
N       -1.19331700       0.35077133       0.04554167
C       -0.75769132      -0.77055882       0.62154475
C        1.34380691      -0.90066962       0.57213201
C        1.57067857       0.42722305       0.40921421
C        1.15807928       1.59111396       0.16579003
H       -1.67964924       1.26970137      -1.74626678
H       -0.11685258       1.34551662       0.15139208
H       -0.88813287      -1.70846040       0.08772785
H       -0.84073959      -0.81770780       1.70251729
H        1.54205222      -1.34605120       1.54101432
H        1.53021262      -1.54722666      -0.27988070
H        1.57027327       2.56642554      -0.02064826
14
Frame=3 idx=006940 GeodesicLength=0.27688642733408125 rxn_smarts="[O:1]=[C:2]([N:3]([C:4]([C:5]([C:6]#[C:7][H:14])([H:12])[H:13])([H:10])[H:11])[H:9])[H:8]>>[C:5](=[C:6]=[C:7]([H:9])[H:14])([H:12])[H:13].[O:1]=[C:2]([N:3]=[C:4]([H:10])[H:11])[H:8]"
O       -1.63001319      -0.73820722      -1.97021512
C       -1.53874043       0.26046202      -1.30132643
N       -1.19765456       0.34796984       0.04366011
C       -0.77626923      -0.77293086       0.63494118
C        1.34306544      -0.89903141       0.55953121
C        1.58186193       0.43057101       0.40806876
C        1.17024120       1.59682434       0.17131574
H       -1.70794982       1.25716656      -1.74383251
H       -0.12824925       1.35855092       0.15842535
H       -0.93139379      -1.71760903       0.11952538
H       -0.86206140      -0.80282306       1.71675674
H        1.56928915      -1.35498673       1.51759870
H        1.51585783      -1.53528043      -0.30343928
H        1.59201612       2.56932407      -0.01100984
14
Frame=4 idx=006940 GeodesicLength=0.36916239283396424 rxn_smarts="[O:1]=[C:2]([N:3]([C:4]([C:5]([C:6]#[C:7][H:14])([H:12])[H:13])([H:10])[H:11])[H:9])[H:8]>>[C:5](=[C:6]=[C:7]([H:9])[H:14])([H:12])[H:13].[O:1]=[C:2]([N:3]=[C:4]([H:10])[H:11])[H:8]"
O       -1.56579023      -0.74388420      -1.98570450
C       -1.53512219       0.24983667      -1.30393132
N       -1.20166433       0.34505036       0.04191575
C       -0.79479538      -0.77565089       0.64769931
C        1.34261256      -0.89704156       0.54768263
C        1.59352180       0.43405424       0.40767550
C        1.18302004       1.60242509       0.17626879
H       -1.73611089       1.24266996      -1.74212161
H       -0.13969286       1.37165479       0.16493189
H       -0.97432944      -1.72538310       0.14924913
H       -0.88486023      -0.78928090       1.72991366
H        1.59652415      -1.36385650       1.49381379
H        1.50244751      -1.52271800      -0.32585273
H        1.61423949       2.57212404      -0.00154029
14
Frame=5 idx=006940 GeodesicLength=0.4614264714056773 rxn_smarts="[O:1]=[C:2]([N:3]([C:4]([C:5]([C:6]#[C:7][H:14])([H:12])[H:13])([H:10])[H:11])[H:9])[H:8]>>[C:5](=[C:6]=[C:7]([H:9])[H:14])([H:12])[H:13].[O:1]=[C:2]([N:3]=[C:4]([H:10])[H:11])[H:8]"
O       -1.50515485      -0.74887645      -1.99788008
C       -1.53111807       0.23856727      -1.30660840
N       -1.20526571       0.34198937       0.04004963
C       -0.81327979      -0.77859519       0.65993102
C        1.34248244      -0.89463211       0.53623171
C        1.60572797       0.43775127       0.40778829
C        1.19646647       1.60806072       0.18093062
H       -1.76309786       1.22611653      -1.74178374
H       -0.15118482       1.38492503       0.17075796
H       -1.01717313      -1.73200956       0.17752662
H       -0.90898470      -0.77649413       1.74218858
H        1.62399616      -1.37271910       1.46916026
H        1.48966274      -1.50932417      -0.34767810
H        1.63692315       2.57524052       0.00938562
14
Frame=6 idx=006940 GeodesicLength=0.5535900795280103 rxn_smarts="[O:1]=[C:2]([N:3]([C:4]([C:5]([C:6]#[C:7][H:14])([H:12])[H:13])([H:10])[H:11])[H:9])[H:8]>>[C:5](=[C:6]=[C:7]([H:9])[H:14])([H:12])[H:13].[O:1]=[C:2]([N:3]=[C:4]([H:10])[H:11])[H:8]"
O       -1.44777059      -0.75304122      -2.00737741
C       -1.52659277       0.22690866      -1.30925126
N       -1.20847711       0.33872857       0.03819833
C       -0.83173826      -0.78187837       0.67164316
C        1.34272700      -0.89181692       0.52534350
C        1.61844299       0.44165308       0.40863269
C        1.21044754       1.61383984       0.18596345
H       -1.78901627       1.20783156      -1.74233543
H       -0.16287258       1.39830183       0.17636702
H       -1.05998381      -1.73758184       0.20424865
H       -0.93448657      -0.76465027       1.75352059
H        1.65173008      -1.38157375       1.44375086
H        1.47759934      -1.49505046      -0.36878870
H        1.65999101       2.57832929       0.02008456
14
Frame=7 idx=006940 GeodesicLength=0.6456745441831704 rxn_smarts="[O:1]=[C:2]([N:3]([C:4]([C:5]([C:6]#[C:7][H:14])([H:12])[H:13])([H:10])[H:11])[H:9])[H:8]>>[C:5](=[C:6]=[C:7]([H:9])[H:14])([H:12])[H:13].[O:1]=[C:2]([N:3]=[C:4]([H:10])[H:11])[H:8]"
O       -1.39381265      -0.75687127      -2.01450352
C       -1.52145988       0.21488294      -1.31188103
N       -1.21127563       0.33525715       0.03633568
C       -0.85019671      -0.78546508       0.68291723
C        1.34337961      -0.88859111       0.51491031
C        1.63170818       0.44574995       0.41001001
C        1.22500334       1.61977644       0.19135959
H       -1.81371212       1.18790799      -1.74378316
H       -0.17477696       1.41179306       0.18171636
H       -1.10296774      -1.74218558       0.22969425
H       -0.96129817      -0.75351282       1.76402295
H        1.67983494      -1.39034900       1.41741903
H        1.46612228      -1.47991282      -0.38930647
H        1.68345150       2.58152015       0.03108878
14
Frame=8 idx=006940 GeodesicLength=0.737663727904831 rxn_smarts="[O:1]=[C:2]([N:3]([C:4]([C:5]([C:6]#[C:7][H:14])([H:12])[H:13])([H:10])[H:11])[H:9])[H:8]>>[C:5](=[C:6]=[C:7]([H:9])[H:14])([H:12])[H:13].[O:1]=[C:2]([N:3]=[C:4]([H:10])[H:11])[H:8]"
O       -1.34331047      -0.76070569      -2.01956260
C       -1.51567751       0.20254414      -1.31450654
N       -1.21364087       0.33155404       0.03444587
C       -0.86867031      -0.78934398       0.69379775
C        1.34447870      -0.88496453       0.50489959
C        1.64556506       0.45002622       0.41180839
C        1.24016401       1.62587945       0.19715097
H       -1.83722063       1.16646105      -1.74601652
H       -0.18691619       1.42540072       0.18680199
H       -1.14624914      -1.74586295       0.25403277
H       -0.98939867      -0.74292984       1.77372343
H        1.70837825      -1.39898180       1.39007729
H        1.45516859      -1.46393974      -0.40926074
H        1.70732917       2.58486293       0.04260837
14
Frame=9 idx=006940 GeodesicLength=0.8297173277609654 rxn_smarts="[O:1]=[C:2]([N:3]([C:4]([C:5]([C:6]#[C:7][H:14])([H:12])[H:13])([H:10])[H:11])[H:9])[H:8]>>[C:5](=[C:6]=[C:7]([H:9])[H:14])([H:12])[H:13].[O:1]=[C:2]([N:3]=[C:4]([H:10])[H:11])[H:8]"
O       -1.29663272      -0.76519779      -2.02258600
C       -1.50928451       0.18973818      -1.31724977
N       -1.21552312       0.32757260       0.03236337
C       -0.88716461      -0.79342095       0.70434889
C        1.34607913      -0.88094971       0.49511805
C        1.66014206       0.45443556       0.41355776
C        1.25610911       1.63207262       0.20270645
H       -1.85949342       1.14348869      -1.74919309
H       -0.19925016       1.43918145       0.19125570
H       -1.18997926      -1.74863719       0.27772861
H       -1.01871870      -0.73240745       1.78270296
H        1.73748624      -1.40734481       1.36150641
H        1.44455708      -1.44726331      -0.42879278
H        1.73167289       2.58873210       0.05653343
14
Frame=10 idx=006940 GeodesicLength=0.921695890929819 rxn_smarts="[O:1]=[C:2]([N:3]([C:4]([C:5]([C:6]#[C:7][H:14])([H:12])[H:13])([H:10])[H:11])[H:9])[H:8]>>[C:5](=[C:6]=[C:7]([H:9])[H:14])([H:12])[H:13].[O:1]=[C:2]([N:3]=[C:4]([H:10])[H:11])[H:8]"
O       -1.25288140      -0.77001361      -2.02415502
C       -1.50244482       0.17669917      -1.31988191
N       -1.21695436       0.32330331       0.03029763
C       -0.90571638      -0.79780318       0.71458856
C        1.34819721      -0.87657074       0.48576134
C        1.67537217       0.45897104       0.41546941
C        1.27272915       1.63838461       0.20839981
H       -1.88083082       1.11919735      -1.75280671
H       -0.21188956       1.45306132       0.19541543
H       -1.23425969      -1.75046524       0.30053823
H       -1.04929532      -0.72224641       1.79091236
H        1.76710981      -1.41539791       1.33183657
H        1.43439771      -1.42989930      -0.44767918
H        1.75646629       2.59277958       0.07130346
14
Frame=11 idx=006940 GeodesicLength=1.0136090628182284 rxn_smarts="[O:1]=[C:2]([N:3]([C:4]([C:5]([C:6]#[C:7][H:14])([H:12])[H:13])([H:10])[H:11])[H:9])[H:8]>>[C:5](=[C:6]=[C:7]([H:9])[H:14])([H:12])[H:13].[O:1]=[C:2]([N:3]=[C:4]([H:10])[H:11])[H:8]"
O       -1.21184359      -0.77529188      -2.02448744
C       -1.49526776       0.16342301      -1.32237261
N       -1.21791596       0.31872406       0.02825185
C       -0.92435037      -0.80248475       0.72455760
C        1.35086819      -0.87184640       0.47680624
C        1.69129988       0.46360888       0.41737186
C        1.29007924       1.64478280       0.21401442
H       -1.90134768       1.09363946      -1.75672014
H       -0.22485079       1.46703115       0.19920189
H       -1.27919013      -1.75133136       0.32256652
H       -1.08109319      -0.71233703       1.79837366
H        1.79725967      -1.42303553       1.30104456
H        1.42463013      -1.41193817      -0.46589940
H        1.78172236       2.59705576       0.08729099
14
Frame=12 idx=006940 GeodesicLength=1.105473364024653 rxn_smarts="[O:1]=[C:2]([N:3]([C:4]([C:5]([C:6]#[C:7][H:14])([H:12])[H:13])([H:10])[H:11])[H:9])[H:8]>>[C:5](=[C:6]=[C:7]([H:9])[H:14])([H:12])[H:13].[O:1]=[C:2]([N:3]=[C:4]([H:10])[H:11])[H:8]"
O       -1.17332872      -0.78120071      -2.02374860
C       -1.48783594       0.14987599      -1.32472155
N       -1.21837860       0.31382046       0.02620347
C       -0.94308944      -0.80743369       0.73429672
C        1.35412671      -0.86680095       0.46821966
C        1.70797544       0.46832089       0.41907331
C        1.30823808       1.65123140       0.21928057
H       -1.92122617       1.06678670      -1.76082673
H       -0.23813532       1.48109675       0.20248212
H       -1.32488994      -1.75115351       0.34394730
H       -1.11405675      -0.70251522       1.80509027
H        1.82797315      -1.43018047       1.26905594
H        1.41518257      -1.39348233      -0.48343904
H        1.80744492       2.60163469       0.10508655
14
Frame=13 idx=006940 GeodesicLength=1.1972752151745032 rxn_smarts="[O:1]=[C:2]([N:3]([C:4]([C:5]([C:6]#[C:7][H:14])([H:12])[H:13])([H:10])[H:11])[H:9])[H:8]>>[C:5](=[C:6]=[C:7]([H:9])[H:14])([H:12])[H:13].[O:1]=[C:2]([N:3]=[C:4]([H:10])[H:11])[H:8]"
O       -1.13706462      -0.78763908      -2.02210630
C       -1.48016106       0.13614656      -1.32687733
N       -1.21833551       0.30853457       0.02422162
C       -0.96197115      -0.81274094       0.74380061
C        1.35800686      -0.86143791       0.46008455
C        1.72538810       0.47312443       0.42069522
C        1.32718487       1.65775189       0.22437370
H       -1.94052349       1.03878415      -1.76491661
H       -0.25184650       1.49524077       0.20544050
H       -1.37138167      -1.74993266       0.36459601
H       -1.14820246      -0.69289124       1.81100211
H        1.85919791      -1.43681121       1.23592246
H        1.40607917      -1.37449527      -0.50023083
H        1.83362955       2.60636594       0.12399428
14
Frame=14 idx=006940 GeodesicLength=1.2890220817454905 rxn_smarts="[O:1]=[C:2]([N:3]([C:4]([C:5]([C:6]#[C:7][H:14])([H:12])[H:13])([H:10])[H:11])[H:9])[H:8]>>[C:5](=[C:6]=[C:7]([H:9])[H:14])([H:12])[H:13].[O:1]=[C:2]([N:3]=[C:4]([H:10])[H:11])[H:8]"
O       -1.10294601      -0.79476383      -2.01966750
C       -1.47232344       0.12216730      -1.32883866
N       -1.21775516       0.30284693       0.02228704
C       -0.98102340      -0.81837627       0.75311433
C        1.36254508      -0.85578013       0.45235572
C        1.74359442       0.47799583       0.42200529
C        1.34700073       1.66431835       0.22898036
H       -1.95930502       1.00960042      -1.76892787
H       -0.26599802       1.50945958       0.20794117
H       -1.41873859      -1.74758040       0.38463084
H       -1.18342993      -0.68329633       1.81611890
H        1.89092015      -1.44283324       1.20157368
H        1.39722658      -1.35508756      -0.51626868
H        1.86023259       2.61132935       0.14469537
14
Frame=15 idx=006940 GeodesicLength=1.3807055658474956 rxn_smarts="[O:1]=[C:2]([N:3]([C:4]([C:5]([C:6]#[C:7][H:14])([H:12])[H:13])([H:10])[H:11])[H:9])[H:8]>>[C:5](=[C:6]=[C:7]([H:9])[H:14])([H:12])[H:13].[O:1]=[C:2]([N:3]=[C:4]([H:10])[H:11])[H:8]"
O       -1.07066800      -0.80237746      -2.01657502
C       -1.46430439       0.10805085      -1.33054055
N       -1.21664053       0.29668796       0.02050234
C       -1.00031275      -0.82447285       0.76222231
C        1.36776552      -0.84982798       0.44515682
C        1.76256751       0.48296114       0.42320881
C        1.36763715       1.67097002       0.23338564
H       -1.97754808       0.97943009      -1.77263826
H       -0.28073448       1.52372055       0.21027403
H       -1.46694992      -1.74413102       0.40388665
H       -1.21976960      -0.67392680       1.82037812
H        1.92305324      -1.44823885       1.16608072
H        1.38865168      -1.33518492      -0.53145736
H        1.88725265       2.61633925       0.16611575
14
Frame=16 idx=006940 GeodesicLength=1.4723305898962504 rxn_smarts="[O:1]=[C:2]([N:3]([C:4]([C:5]([C:6]#[C:7][H:14])([H:12])[H:13])([H:10])[H:11])[H:9])[H:8]>>[C:5](=[C:6]=[C:7]([H:9])[H:14])([H:12])[H:13].[O:1]=[C:2]([N:3]=[C:4]([H:10])[H:11])[H:8]"
O       -1.04016858      -0.81061953      -2.01288573
C       -1.45617671       0.09372684      -1.33198170
N       -1.21496009       0.29002667       0.01885562
C       -1.01987261      -0.83101062       0.77116519
C        1.37370763      -0.84360022       0.43844433
C        1.78235844       0.48800527       0.42410240
C        1.38917293       1.67768943       0.23730152
H       -1.99526789       0.94825369      -1.77602345
H       -0.29609073       1.53801654       0.21232623
H       -1.51605061      -1.73949663       0.42245377
H       -1.25709332      -0.66462134       1.82378250
H        1.95554890      -1.45295218       1.12937978
H        1.38026256      -1.31487640      -0.54579567
H        1.91463009       2.62145848       0.18887521
