11
Frame=0 idx=005813 GeodesicLength=0.0 rxn_smarts="[C:1]1([H:6])([H:7])[C:2]([H:8])([H:9])[C@@:3]2([H:10])[O:4][C@@:5]12[H:11]>>[C:1]1([H:6])([H:7])[C:2]([H:8])([H:9])[C:3][C@:5]1([O:4][H:10])[H:11]"
C       -0.66485857       0.73247330      -0.22394674
C       -0.79448175      -0.77798769       0.09145375
C        0.61824466      -0.79557957       0.68144514
O        1.48166824      -0.15207556      -0.73051700
C        0.78480017       0.63143445       0.23504854
H       -1.26792435       1.34715096       0.44338043
H       -0.81291779       1.06359077      -1.25121354
H       -1.51519215      -0.99554807       0.88290314
H       -0.97062119      -1.46851824      -0.73198447
H        1.76803299      -1.00851863      -0.08526811
H        1.37324970       1.42357831       0.68869891
11
Frame=1 idx=005813 GeodesicLength=0.04075932555718166 rxn_smarts="[C:1]1([H:6])([H:7])[C:2]([H:8])([H:9])[C@@:3]2([H:10])[O:4][C@@:5]12[H:11]>>[C:1]1([H:6])([H:7])[C:2]([H:8])([H:9])[C:3][C@:5]1([O:4][H:10])[H:11]"
C       -0.66637466       0.73340537      -0.22409957
C       -0.79565140      -0.77737904       0.09103290
C        0.61912391      -0.79558437       0.67421654
O        1.48024969      -0.15181298      -0.73061209
C        0.78348370       0.63268355       0.23431732
H       -1.26972993       1.34798948       0.44308548
H       -0.81406879       1.06401287      -1.25161853
H       -1.51317332      -0.99565101       0.88522978
H       -0.97539865      -1.46688213      -0.73256395
H        1.77922942      -1.01408809      -0.07900596
H        1.37231003       1.42330635       0.69001807
11
Frame=2 idx=005813 GeodesicLength=0.08151591086004126 rxn_smarts="[C:1]1([H:6])([H:7])[C:2]([H:8])([H:9])[C@@:3]2([H:10])[O:4][C@@:5]12[H:11]>>[C:1]1([H:6])([H:7])[C:2]([H:8])([H:9])[C:3][C@:5]1([O:4][H:10])[H:11]"
C       -0.66789426       0.73433957      -0.22426221
C       -0.79680449      -0.77676824       0.09061088
C        0.62002524      -0.79558118       0.66690588
O        1.47887048      -0.15148498      -0.73075380
C        0.78216591       0.63394086       0.23356697
H       -1.27153655       1.34882264       0.44278965
H       -0.81523324       1.06443663      -1.25203155
H       -1.51108773      -0.99576417       0.88757349
H       -0.98018869      -1.46523536      -0.73312841
H        1.79032762      -1.01972400      -0.07263455
H        1.37135571       1.42301823       0.69136365
11
Frame=3 idx=005813 GeodesicLength=0.12226686799339126 rxn_smarts="[C:1]1([H:6])([H:7])[C:2]([H:8])([H:9])[C@@:3]2([H:10])[O:4][C@@:5]12[H:11]>>[C:1]1([H:6])([H:7])[C:2]([H:8])([H:9])[C:3][C@:5]1([O:4][H:10])[H:11]"
C       -0.66941778       0.73527657      -0.22443329
C       -0.79793903      -0.77615540       0.09018664
C        0.62094841      -0.79556630       0.65951488
O        1.47752807      -0.15108853      -0.73094615
C        0.78084736       0.63520770       0.23279658
H       -1.27334384       1.34964962       0.44249644
H       -0.81641351       1.06486425      -1.25245044
H       -1.50893538      -0.99588952       0.88993010
H       -0.98498533      -1.46357915      -0.73367851
H        1.80132239      -1.02543535      -0.06614704
H        1.37038864       1.42271612       0.69273078
11
Frame=4 idx=005813 GeodesicLength=0.16300852638097496 rxn_smarts="[C:1]1([H:6])([H:7])[C:2]([H:8])([H:9])[C@@:3]2([H:10])[O:4][C@@:5]12[H:11]>>[C:1]1([H:6])([H:7])[C:2]([H:8])([H:9])[C:3][C@:5]1([O:4][H:10])[H:11]"
C       -0.67094566       0.73621701      -0.22461140
C       -0.79905297      -0.77554063       0.08975923
C        0.62189346      -0.79553600       0.65204523
O        1.47622000      -0.15062043      -0.73119301
C        0.77952856       0.63648558       0.23200538
H       -1.27515155       1.35046959       0.44220919
H       -0.81761188       1.06529776      -1.25287313
H       -1.50671625      -0.99602896       0.89229556
H       -0.98978248      -1.46191476      -0.73421484
H        1.81220811      -1.03123154      -0.05953699
H        1.36941065       1.42240238       0.69411479
11
Frame=5 idx=005813 GeodesicLength=0.203731542828343 rxn_smarts="[C:1]1([H:6])([H:7])[C:2]([H:8])([H:9])[C@@:3]2([H:10])[O:4][C@@:5]12[H:11]>>[C:1]1([H:6])([H:7])[C:2]([H:8])([H:9])[C:3][C@:5]1([O:4][H:10])[H:11]"
C       -0.67247832       0.73716168      -0.22479548
C       -0.80014426      -0.77492434       0.08932800
C        0.62286141      -0.79548663       0.64449891
O        1.47494540      -0.15007680      -0.73149750
C        0.77821053       0.63777651       0.23119298
H       -1.27695996       1.35128182       0.44193065
H       -0.81883046       1.06573949      -1.25329827
H       -1.50443044      -0.99618518       0.89466665
H       -0.99457423      -1.46024387      -0.73473783
H        1.82297657      -1.03712270      -0.05279966
H        1.36842377       1.42208003       0.69551155
11
Frame=6 idx=005813 GeodesicLength=0.24447647252151544 rxn_smarts="[C:1]1([H:6])([H:7])[C:2]([H:8])([H:9])[C@@:3]2([H:10])[O:4][C@@:5]12[H:11]>>[C:1]1([H:6])([H:7])[C:2]([H:8])([H:9])[C:3][C@:5]1([O:4][H:10])[H:11]"
C       -0.67401704       0.73811132      -0.22498225
C       -0.80121167      -0.77430588       0.08888955
C        0.62384920      -0.79541557       0.63687404
O        1.47369350      -0.14945712      -0.73187196
C        0.77689305       0.63907936       0.23035497
H       -1.27876681       1.35208507       0.44166939
H       -0.82007520       1.06619331      -1.25372011
H       -1.50207819      -0.99635893       0.89703614
H       -0.99935482      -1.45856576      -0.73525140
H        1.83363639      -1.04311406      -0.04590880
H        1.36743160       1.42174826       0.69691043
11
Frame=7 idx=005813 GeodesicLength=0.2852042700659224 rxn_smarts="[C:1]1([H:6])([H:7])[C:2]([H:8])([H:9])[C@@:3]2([H:10])[O:4][C@@:5]12[H:11]>>[C:1]1([H:6])([H:7])[C:2]([H:8])([H:9])[C:3][C@:5]1([O:4][H:10])[H:11]"
C       -0.67556148       0.73906588      -0.22517355
C       -0.80225277      -0.77368573       0.08844507
C        0.62485972      -0.79531893       0.62917026
O        1.47246824      -0.14875684      -0.73231308
C        0.77557642       0.64039854       0.22949089
H       -1.28057353       1.35287876       0.44142075
H       -0.82134722       1.06665816      -1.25414038
H       -1.49965544      -0.99655105       0.89940575
H       -1.00412589      -1.45688173      -0.73575250
H        1.84417850      -1.04921452      -0.03887236
H        1.36643345       1.42140745       0.69831916
11
Frame=8 idx=005813 GeodesicLength=0.32592703991990385 rxn_smarts="[C:1]1([H:6])([H:7])[C:2]([H:8])([H:9])[C@@:3]2([H:10])[O:4][C@@:5]12[H:11]>>[C:1]1([H:6])([H:7])[C:2]([H:8])([H:9])[C:3][C@:5]1([O:4][H:10])[H:11]"
C       -0.67711239       0.74002679      -0.22536622
C       -0.80326628      -0.77306385       0.08799171
C        0.62589428      -0.79519598       0.62138497
O        1.47126757      -0.14797307      -0.73283032
C        0.77426251       0.64173303       0.22859891
H       -1.28238092       1.35366179       0.44119218
H       -0.82264870       1.06714165      -1.25455487
H       -1.49716178      -0.99676780       0.90177103
H       -1.00888287      -1.45519304      -0.73624364
H        1.85459644      -1.05543127      -0.03166766
H        1.36543214       1.42106174       0.69972393
11
Frame=9 idx=005813 GeodesicLength=0.36664100269245486 rxn_smarts="[C:1]1([H:6])([H:7])[C:2]([H:8])([H:9])[C@@:3]2([H:10])[O:4][C@@:5]12[H:11]>>[C:1]1([H:6])([H:7])[C:2]([H:8])([H:9])[C:3][C@:5]1([O:4][H:10])[H:11]"
C       -0.67867027       0.74099438      -0.22556085
C       -0.80425186      -0.77243996       0.08752911
C        0.62695236      -0.79504592       0.61351464
O        1.47008963      -0.14710241      -0.73342603
C        0.77295048       0.64308378       0.22767827
H       -1.28418746       1.35443467       0.44098396
H       -0.82398278       1.06764107      -1.25496444
H       -1.49459319      -0.99700910       0.90413344
H       -1.01362785      -1.45349705      -0.73672595
H        1.86489463      -1.06177041      -0.02428932
H        1.36442631       1.42071094       0.70112715
11
Frame=10 idx=005813 GeodesicLength=0.40734977177302195 rxn_smarts="[C:1]1([H:6])([H:7])[C:2]([H:8])([H:9])[C@@:3]2([H:10])[O:4][C@@:5]12[H:11]>>[C:1]1([H:6])([H:7])[C:2]([H:8])([H:9])[C:3][C@:5]1([O:4][H:10])[H:11]"
C       -0.68023565       0.74196909      -0.22575729
C       -0.80520781      -0.77181399       0.08705559
C        0.62803584      -0.79486806       0.60555331
O        1.46893221      -0.14614192      -0.73410827
C        0.77164105       0.64445099       0.22672514
H       -1.28599319       1.35519662       0.44079795
H       -0.82535318       1.06815738      -1.25536839
H       -1.49194414      -0.99727443       0.90649389
H       -1.01836365      -1.45179269      -0.73720090
H        1.87507338      -1.06823545      -0.01672137
H        1.36341515       1.42035246       0.70253035
11
Frame=11 idx=005813 GeodesicLength=0.44805381602933636 rxn_smarts="[C:1]1([H:6])([H:7])[C:2]([H:8])([H:9])[C@@:3]2([H:10])[O:4][C@@:5]12[H:11]>>[C:1]1([H:6])([H:7])[C:2]([H:8])([H:9])[C:3][C@:5]1([O:4][H:10])[H:11]"
C       -0.68180935       0.74295124      -0.22595490
C       -0.80613299      -0.77118706       0.08656944
C        0.62914539      -0.79466102       0.59749760
O        1.46779355      -0.14509045      -0.73488297
C        0.77033468       0.64583581       0.22573588
H       -1.28779853       1.35594553       0.44063786
H       -0.82676393       1.06869399      -1.25576484
H       -1.48921079      -0.99756604       0.90885230
H       -1.02309174      -1.45007783      -0.73767232
H        1.88513289      -1.07483129      -0.00894729
H        1.36240082       1.41998711       0.70392925
11
Frame=12 idx=005813 GeodesicLength=0.4887538568996767 rxn_smarts="[C:1]1([H:6])([H:7])[C:2]([H:8])([H:9])[C@@:3]2([H:10])[O:4][C@@:5]12[H:11]>>[C:1]1([H:6])([H:7])[C:2]([H:8])([H:9])[C:3][C@:5]1([O:4][H:10])[H:11]"
C       -0.68339287       0.74394102      -0.22615127
C       -0.80702593      -0.77055886       0.08606776
C        0.63028209      -0.79442408       0.58934130
O        1.46667053      -0.14394970      -0.73575676
C        0.76903185       0.64723625       0.22470513
H       -1.28960268       1.35667862       0.44050964
H       -0.82822203       1.06925395      -1.25614878
H       -1.48638884      -0.99788716       0.91120495
H       -1.02781518      -1.44834594      -0.73814508
H        1.89507646      -1.08155575      -0.00093992
H        1.36138661       1.41961165       0.70531303
11
Frame=13 idx=005813 GeodesicLength=0.5294510737168314 rxn_smarts="[C:1]1([H:6])([H:7])[C:2]([H:8])([H:9])[C@@:3]2([H:10])[O:4][C@@:5]12[H:11]>>[C:1]1([H:6])([H:7])[C:2]([H:8])([H:9])[C:3][C@:5]1([O:4][H:10])[H:11]"
C       -0.68498634       0.74493891      -0.22634681
C       -0.80788438      -0.76993035       0.08554975
C        0.63144686      -0.79415475       0.58108308
O        1.46556038      -0.14271107      -0.73673560
C        0.76773237       0.64865582       0.22363344
H       -1.29140609       1.35739592       0.44041378
H       -0.82972563       1.06984302      -1.25652045
H       -1.48347457      -0.99823924       0.91355205
H       -1.03252797      -1.44660482      -0.73861613
H        1.90489313      -1.08842351       0.00730416
H        1.36037224       1.41923007       0.70668273
11
Frame=14 idx=005813 GeodesicLength=0.5701451415467148 rxn_smarts="[C:1]1([H:6])([H:7])[C:2]([H:8])([H:9])[C@@:3]2([H:10])[O:4][C@@:5]12[H:11]>>[C:1]1([H:6])([H:7])[C:2]([H:8])([H:9])[C:3][C@:5]1([O:4][H:10])[H:11]"
C       -0.68659071       0.74594495      -0.22654094
C       -0.80870757      -0.76930136       0.08501349
C        0.63264166      -0.79385161       0.57271467
O        1.46446275      -0.14137288      -0.73782725
C        0.76643737       0.65009463       0.22251485
H       -1.29320735       1.35809560       0.44035455
H       -0.83128186       1.07046070      -1.25687763
H       -1.48046341      -0.99862386       0.91589333
H       -1.03723403      -1.44484993      -0.73908884
H        1.91458357      -1.09543520       0.01580718
H        1.35935957       1.41883897       0.70803658
11
Frame=15 idx=005813 GeodesicLength=0.6108400110837396 rxn_smarts="[C:1]1([H:6])([H:7])[C:2]([H:8])([H:9])[C@@:3]2([H:10])[O:4][C@@:5]12[H:11]>>[C:1]1([H:6])([H:7])[C:2]([H:8])([H:9])[C:3][C@:5]1([O:4][H:10])[H:11]"
C       -0.68820636       0.74696060      -0.22673288
C       -0.80949347      -0.76867190       0.08445698
C        0.63386847      -0.79351479       0.56422910
O        1.46337520      -0.13993327      -0.73904024
C        0.76514795       0.65155300       0.22134519
H       -1.29500619       1.35877687       0.44033579
H       -0.83289623       1.07110919      -1.25721939
H       -1.47734834      -0.99904387       0.91822905
H       -1.04193597      -1.44307837      -0.73956621
H        1.92414632      -1.10259533       0.02459017
H        1.35834863       1.41843785       0.70937242
11
Frame=16 idx=005813 GeodesicLength=0.6515324921671188 rxn_smarts="[C:1]1([H:6])([H:7])[C:2]([H:8])([H:9])[C@@:3]2([H:10])[O:4][C@@:5]12[H:11]>>[C:1]1([H:6])([H:7])[C:2]([H:8])([H:9])[C:3][C@:5]1([O:4][H:10])[H:11]"
C       -0.68983363       0.74798642      -0.22691974
C       -0.81023890      -0.76804213       0.08387853
C        0.63512916      -0.79314059       0.55562402
O        1.46229540      -0.13838847      -0.74038055
C        0.76386536       0.65303273       0.22012162
H       -1.29680142       1.35943756       0.44036381
H       -0.83457376       1.07179033      -1.25754151
H       -1.47412782      -0.99950295       0.92055366
H       -1.04662772      -1.44128961      -0.74005055
H        1.93357091      -1.10991364       0.03366956
H        1.35734243       1.41803036       0.71068115
