11
Frame=0 idx=001111 GeodesicLength=0.0 rxn_smarts="[C:1](/[C:2](=[N:3]/[H:10])[O:4][C:5](=[O:6])[H:11])([H:7])([H:8])[H:9]>>[C:1](=[C:2]1[N:3]([H:10])[O:6][C:5]([H:9])([H:11])[O:4]1)([H:7])[H:8]"
C       -0.91527188      -0.46386492       1.19099089
C       -0.10655161       0.51961429       0.64174312
N       -0.67605302       1.52874426       0.03933642
O        1.16034695       0.15184794       0.36420560
C        0.83593914      -0.43341017      -0.99812840
O        0.43726138       0.45666253      -1.80311348
H       -1.98081925      -0.29408860       1.27722420
H       -0.47223255      -1.34378541       1.63860034
H       -0.00744492      -1.17345752      -0.65092924
H        0.03739317       2.10886498      -0.39703198
H        1.68743263      -1.05712739      -1.30289744
11
Frame=1 idx=001111 GeodesicLength=0.10614625106321349 rxn_smarts="[C:1](/[C:2](=[N:3]/[H:10])[O:4][C:5](=[O:6])[H:11])([H:7])([H:8])[H:9]>>[C:1](=[C:2]1[N:3]([H:10])[O:6][C:5]([H:9])([H:11])[O:4]1)([H:7])[H:8]"
C       -0.92012291      -0.47454074       1.17459669
C       -0.11156211       0.51941346       0.63930750
N       -0.67974807       1.51377891       0.00759727
O        1.15788332       0.15106304       0.35856021
C        0.84711855      -0.43484248      -0.99852412
O        0.45022324       0.45987339      -1.80200244
H       -1.97462810      -0.27944771       1.32172040
H       -0.47455921      -1.34962267       1.62960221
H       -0.03436766      -1.17830539      -0.65008782
H        0.03469169       2.12401589      -0.38271989
H        1.70507125      -1.05138571      -1.29805003
11
Frame=2 idx=001111 GeodesicLength=0.2121819579626253 rxn_smarts="[C:1](/[C:2](=[N:3]/[H:10])[O:4][C:5](=[O:6])[H:11])([H:7])([H:8])[H:9]>>[C:1](=[C:2]1[N:3]([H:10])[O:6][C:5]([H:9])([H:11])[O:4]1)([H:7])[H:8]"
C       -0.92550898      -0.48406646       1.15881529
C       -0.11642810       0.51926346       0.63681489
N       -0.68166702       1.49946566      -0.02314539
O        1.15544121       0.14976370       0.35313149
C        0.85843925      -0.43649843      -0.99873860
O        0.46261793       0.46242662      -1.80078649
H       -1.96577445      -0.26589869       1.36411607
H       -0.47769330      -1.35484305       1.62039070
H       -0.06268065      -1.18313974      -0.64904764
H        0.03006333       2.13868637      -0.36842272
H        1.72319078      -1.04515943      -1.29312761
11
Frame=3 idx=001111 GeodesicLength=0.3181412030083418 rxn_smarts="[C:1](/[C:2](=[N:3]/[H:10])[O:4][C:5](=[O:6])[H:11])([H:7])([H:8])[H:9]>>[C:1](=[C:2]1[N:3]([H:10])[O:6][C:5]([H:9])([H:11])[O:4]1)([H:7])[H:8]"
C       -0.93118641      -0.49239607       1.14393328
C       -0.12103909       0.51922129       0.63431407
N       -0.68187076       1.48585408      -0.05285155
O        1.15310651       0.14799257       0.34787129
C        0.86987684      -0.43838756      -0.99875963
O        0.47435970       0.46428636      -1.79946927
H       -1.95473231      -0.25362859       1.40392964
H       -0.48138988      -1.35952403       1.61106297
H       -0.09254935      -1.18788115      -0.64768690
H        0.02369781       2.15292915      -0.35418975
H        1.74172694      -1.03846606      -1.28815415
11
Frame=4 idx=001111 GeodesicLength=0.4240814730824544 rxn_smarts="[C:1](/[C:2](=[N:3]/[H:10])[O:4][C:5](=[O:6])[H:11])([H:7])([H:8])[H:9]>>[C:1](=[C:2]1[N:3]([H:10])[O:6][C:5]([H:9])([H:11])[O:4]1)([H:7])[H:8]"
C       -0.93699119      -0.49958244       1.13009949
C       -0.12532508       0.51928663       0.63182098
N       -0.68044024       1.47293726      -0.08153236
O        1.15095144       0.14576337       0.34275032
C        0.88147462      -0.44049828      -0.99861090
O        0.48544408       0.46544874      -1.79809770
H       -1.94198953      -0.24262993       1.44105734
H       -0.48547555      -1.36376193       1.60173047
H       -0.12410239      -1.19245055      -0.64597071
H        0.01574063       2.16675924      -0.34007809
H        1.76071321      -1.03127211      -1.28316884
11
Frame=5 idx=001111 GeodesicLength=0.530032478456619 rxn_smarts="[C:1](/[C:2](=[N:3]/[H:10])[O:4][C:5](=[O:6])[H:11])([H:7])([H:8])[H:9]>>[C:1](=[C:2]1[N:3]([H:10])[O:6][C:5]([H:9])([H:11])[O:4]1)([H:7])[H:8]"
C       -0.94283332      -0.50572562       1.11733503
C       -0.12926104       0.51942648       0.62931951
N       -0.67747121       1.46066085      -0.10923923
O        1.14900957       0.14307812       0.33775758
C        0.89331985      -0.44281105      -0.99832501
O        0.49593803       0.46591344      -1.79671900
H       -1.92791936      -0.23275873       1.47569284
H       -0.48985076      -1.36765069       1.59244025
H       -0.15744769      -1.19677031      -0.64393632
H        0.00627750       2.18015511      -0.32613245
H        1.78023842      -1.02351759      -1.27819319
11
Frame=6 idx=001111 GeodesicLength=0.6359641297105618 rxn_smarts="[C:1](/[C:2](=[N:3]/[H:10])[O:4][C:5](=[O:6])[H:11])([H:7])([H:8])[H:9]>>[C:1](=[C:2]1[N:3]([H:10])[O:6][C:5]([H:9])([H:11])[O:4]1)([H:7])[H:8]"
C       -0.94866216      -0.51092627       1.10558962
C       -0.13284535       0.51960345       0.62677839
N       -0.67306693       1.44895659      -0.13603727
O        1.14729087       0.13992830       0.33289519
C        0.90551914      -0.44531399      -0.99791822
O        0.50594775       0.46567793      -1.79535435
H       -1.91275947      -0.22382540       1.50816899
H       -0.49445426      -1.37128492       1.58315641
H       -0.19269864      -1.20073607      -0.64166451
H       -0.00467499       2.19308477      -0.31240206
H        1.80040403      -1.01516438      -1.27321219
11
Frame=7 idx=001111 GeodesicLength=0.7418406674091443 rxn_smarts="[C:1](/[C:2](=[N:3]/[H:10])[O:4][C:5](=[O:6])[H:11])([H:7])([H:8])[H:9]>>[C:1](=[C:2]1[N:3]([H:10])[O:6][C:5]([H:9])([H:11])[O:4]1)([H:7])[H:8]"
C       -0.95446185      -0.51528036       1.09479231
C       -0.13608690       0.51977882       0.62416254
N       -0.66732100       1.43774969      -0.16200932
O        1.14579733       0.13630140       0.32818027
C        0.91818669      -0.44799557      -0.99739496
O        0.51559402       0.46474087      -1.79402432
H       -1.89663761      -0.21564981       1.53888316
H       -0.49926404      -1.37476439       1.57380189
H       -0.22999196      -1.20421435      -0.63925463
H       -0.01713168       2.20550959      -0.29895369
H        1.82131698      -1.00617589      -1.26818325
11
Frame=8 idx=001111 GeodesicLength=0.84802346860125 rxn_smarts="[C:1](/[C:2](=[N:3]/[H:10])[O:4][C:5](=[O:6])[H:11])([H:7])([H:8])[H:9]>>[C:1](=[C:2]1[N:3]([H:10])[O:6][C:5]([H:9])([H:11])[O:4]1)([H:7])[H:8]"
C       -0.96028476      -0.51896237       1.08490702
C       -0.13895999       0.51994971       0.62143959
N       -0.66033832       1.42710478      -0.18734522
O        1.14465109       0.13219266       0.32369224
C        0.93145025      -0.45085639      -0.99674718
O        0.52496419       0.46319797      -1.79283847
H       -1.87964002      -0.20814389       1.56831750
H       -0.50429752      -1.37838963       1.56435680
H       -0.26960995      -1.20714972      -0.63680555
H       -0.03108596       2.21761647      -0.28598114
H        1.84315099      -0.99655958      -1.26299560
11
Frame=9 idx=001111 GeodesicLength=0.9536879266841621 rxn_smarts="[C:1](/[C:2](=[N:3]/[H:10])[O:4][C:5](=[O:6])[H:11])([H:7])([H:8])[H:9]>>[C:1](=[C:2]1[N:3]([H:10])[O:6][C:5]([H:9])([H:11])[O:4]1)([H:7])[H:8]"
C       -0.96607436      -0.52179864       1.07576100
C       -0.14161851       0.51991853       0.61854592
N       -0.65207231       1.41655350      -0.21184601
O        1.14347858       0.12752796       0.31927031
C        0.94540171      -0.45379074      -0.99603774
O        0.53416212       0.46068949      -1.79159026
H       -1.86163972      -0.20087359       1.59652277
H       -0.50960654      -1.38163008       1.55461070
H       -0.31137289      -1.20929757      -0.63428504
H       -0.04658010       2.22859719      -0.27310787
H        1.86592203      -0.98589605      -1.25784377
11
Frame=10 idx=001111 GeodesicLength=1.0595881642423248 rxn_smarts="[C:1](/[C:2](=[N:3]/[H:10])[O:4][C:5](=[O:6])[H:11])([H:7])([H:8])[H:9]>>[C:1](=[C:2]1[N:3]([H:10])[O:6][C:5]([H:9])([H:11])[O:4]1)([H:7])[H:8]"
C       -0.97182306      -0.52406645       1.06748222
C       -0.14387004       0.51983578       0.61552927
N       -0.64264545       1.40648757      -0.23577466
O        1.14269343       0.12235321       0.31511354
C        0.96014916      -0.45687401      -0.99517597
O        0.54316177       0.45750015      -1.79049204
H       -1.84286173      -0.19416357       1.62379557
H       -0.51509606      -1.38515488       1.54467698
H       -0.35588103      -1.21057416      -0.63180629
H       -0.06360317       2.23914998      -0.26089484
H        1.88977619      -0.97449362      -1.25245378
11
Frame=11 idx=001111 GeodesicLength=1.165465921759892 rxn_smarts="[C:1](/[C:2](=[N:3]/[H:10])[O:4][C:5](=[O:6])[H:11])([H:7])([H:8])[H:9]>>[C:1](=[C:2]1[N:3]([H:10])[O:6][C:5]([H:9])([H:11])[O:4]1)([H:7])[H:8]"
C       -0.97755876      -0.52572607       1.05995493
C       -0.14579061       0.51961333       0.61234055
N       -0.63206980       1.39668797      -0.25914371
O        1.14215809       0.11662835       0.31120559
C        0.97582593      -0.46007340      -0.99414796
O        0.55207608       0.45344413      -1.78947426
H       -1.82308490      -0.18779003       1.65049461
H       -0.52085356      -1.38887818       1.53428619
H       -0.40328974      -1.21070842      -0.62941634
H       -0.08225270       2.24893867      -0.24930271
H        1.91483997      -0.96213634      -1.24679689
11
Frame=12 idx=001111 GeodesicLength=1.2713403968243178 rxn_smarts="[C:1](/[C:2](=[N:3]/[H:10])[O:4][C:5](=[O:6])[H:11])([H:7])([H:8])[H:9]>>[C:1](=[C:2]1[N:3]([H:10])[O:6][C:5]([H:9])([H:11])[O:4]1)([H:7])[H:8]"
C       -0.98328391      -0.52680900       1.05315310
C       -0.14737170       0.51922433       0.60896413
N       -0.62035334       1.38710708      -0.28200887
O        1.14188684       0.11033553       0.30758149
C        0.99255764      -0.46338004      -0.99291409
O        0.56092442       0.44841692      -1.78853820
H       -1.80219842      -0.18172894       1.67683940
H       -0.52691662      -1.39289463       1.52329956
H       -0.45391960      -1.20945392      -0.62713056
H       -0.10257308       2.25787560      -0.23845419
H        1.94124780      -0.94869293      -1.24079177
11
Frame=13 idx=001111 GeodesicLength=1.377188048314191 rxn_smarts="[C:1](/[C:2](=[N:3]/[H:10])[O:4][C:5](=[O:6])[H:11])([H:7])([H:8])[H:9]>>[C:1](=[C:2]1[N:3]([H:10])[O:6][C:5]([H:9])([H:11])[O:4]1)([H:7])[H:8]"
C       -0.98899676      -0.52732712       1.04705131
C       -0.14860550       0.51864452       0.60538620
N       -0.60749266       1.37768078      -0.30441877
O        1.14188902       0.10345809       0.30427990
C        1.01048296      -0.46679167      -0.99141387
O        0.56972286       0.44226960      -1.78767050
H       -1.78003541      -0.17599015       1.70306097
H       -0.53333409      -1.39729490       1.51151399
H       -0.50813633      -1.20647448      -0.62495241
H       -0.12463563       2.26584079      -0.22850080
H        1.96914154      -0.93401545      -1.23433603
11
Frame=14 idx=001111 GeodesicLength=1.4830429037886759 rxn_smarts="[C:1](/[C:2](=[N:3]/[H:10])[O:4][C:5](=[O:6])[H:11])([H:7])([H:8])[H:9]>>[C:1](=[C:2]1[N:3]([H:10])[O:6][C:5]([H:9])([H:11])[O:4]1)([H:7])[H:8]"
C       -0.99469541      -0.52730644       1.04163292
C       -0.14947503       0.51784976       0.60159430
N       -0.59346478       1.36837871      -0.32642970
O        1.14219065       0.09597660       0.30135200
C        1.02975184      -0.47030972      -0.98958079
O        0.57842032       0.43480609      -1.78687364
H       -1.75641687      -0.17061993       1.72933102
H       -0.54016661      -1.40219751       1.49875038
H       -0.56637496      -1.20143031      -0.62284147
H       -0.14846927       2.27273236      -0.21961137
H        1.99870013      -0.91787962      -1.22732364
11
Frame=15 idx=001111 GeodesicLength=1.5888884670345886 rxn_smarts="[C:1](/[C:2](=[N:3]/[H:10])[O:4][C:5](=[O:6])[H:11])([H:7])([H:8])[H:9]>>[C:1](=[C:2]1[N:3]([H:10])[O:6][C:5]([H:9])([H:11])[O:4]1)([H:7])[H:8]"
C       -1.00037602      -0.52675119       1.03687872
C       -0.14996555       0.51681610       0.59757760
N       -0.57823096       1.35913576      -0.34809571
O        1.14281118       0.08787398       0.29885621
C        1.05053876      -0.47394129      -0.98731775
O        0.58696666       0.42575588      -1.78613198
H       -1.73108656      -0.16571615       1.75586191
H       -0.54750201      -1.40771771       1.48472742
H       -0.62913521      -1.19383543      -0.62072816
H       -0.17413504       2.27839736      -0.21200747
H        2.03011475      -0.90001730      -1.21962080
11
Frame=16 idx=001111 GeodesicLength=1.6947243355890238 rxn_smarts="[C:1](/[C:2](=[N:3]/[H:10])[O:4][C:5](=[O:6])[H:11])([H:7])([H:8])[H:9]>>[C:1](=[C:2]1[N:3]([H:10])[O:6][C:5]([H:9])([H:11])[O:4]1)([H:7])[H:8]"
C       -1.00603328      -0.52565018       1.03276676
C       -0.15005835       0.51551463       0.59331999
N       -0.56172748       1.34985771      -0.36947409
O        1.14377469       0.07913236       0.29685192
C        1.07304801      -0.47769450      -0.98449762
O        0.59528579       0.41475060      -1.78540597
H       -1.70370810      -0.16142117       1.78286884
H       -0.55546676      -1.41397668       1.46906754
H       -0.69700258      -1.18307135      -0.61847404
H       -0.20171600       2.28263178      -0.20595124
H        2.06360408      -0.88007319      -1.21107208
