18
Frame=0 idx=008966 GeodesicLength=0.0 rxn_smarts="[C:1]([C:2]([N:3]1[C:4]([H:13])([H:14])[C@:5]1([C:6]([O:7][H:18])([H:16])[H:17])[H:15])([H:11])[H:12])([H:8])([H:9])[H:10]>>[C:1]([C:2]([N:3]1[C:4]([H:13])([H:14])[C:5]1=[C:6]([H:16])[H:17])([H:11])[H:12])([H:8])([H:9])[H:10].[O:7]([H:15])[H:18]"
C       -1.84441194      -1.21161491      -0.33244944
C       -1.44532488      -0.24063154       0.76229650
N       -0.01186135      -0.30727545       1.00670629
C        0.57321886       0.90016523       1.59237376
C        0.78838873       0.56756313       0.17942744
C        1.96069651       0.13701026      -0.50704096
O        1.47670989       0.81960000      -2.06000050
H       -2.92244994      -1.19029788      -0.50294683
H       -1.55436396      -2.23027581      -0.06904492
H       -1.35213833      -0.94986943      -1.27306477
H       -1.74768569       0.78053356       0.48089144
H       -1.95909562      -0.49452473       1.69456929
H       -0.10112332       1.72047373       1.82800748
H        1.34040452       0.71971054       2.33966088
H        0.67762441       1.08597605      -1.33446851
H        2.88910740       0.68718193      -0.39841900
H        2.08216591      -0.91333374      -0.76425498
H        1.15013880       0.11960908      -2.64224309
18
Frame=1 idx=008966 GeodesicLength=0.09529062348317213 rxn_smarts="[C:1]([C:2]([N:3]1[C:4]([H:13])([H:14])[C@:5]1([C:6]([O:7][H:18])([H:16])[H:17])[H:15])([H:11])[H:12])([H:8])([H:9])[H:10]>>[C:1]([C:2]([N:3]1[C:4]([H:13])([H:14])[C:5]1=[C:6]([H:16])[H:17])([H:11])[H:12])([H:8])([H:9])[H:10].[O:7]([H:15])[H:18]"
C       -1.84690211      -1.20719628      -0.34071366
C       -1.44377434      -0.23521716       0.75207480
N       -0.01122875      -0.30985771       1.00107253
C        0.57894737       0.88743950       1.60262703
C        0.80387323       0.56272649       0.19070485
C        1.97821525       0.15112026      -0.50091305
O        1.45010141       0.80132956      -2.07039498
H       -2.92386620      -1.17330802      -0.51778901
H       -1.57069213      -2.22797755      -0.07053567
H       -1.34662547      -0.95753910      -1.28040435
H       -1.73645878       0.78760348       0.46614593
H       -1.96366288      -0.48229376       1.68278268
H       -0.08714750       1.71665207       1.83114369
H        1.33967697       0.69354311       2.35296279
H        0.64892727       1.07023377      -1.31448099
H        2.88983851       0.73399567      -0.41704041
H        2.13828151      -0.89982699      -0.73270938
H        1.10249665       0.08857265      -2.63453281
18
Frame=2 idx=008966 GeodesicLength=0.19053415557538578 rxn_smarts="[C:1]([C:2]([N:3]1[C:4]([H:13])([H:14])[C@:5]1([C:6]([O:7][H:18])([H:16])[H:17])[H:15])([H:11])[H:12])([H:8])([H:9])[H:10]>>[C:1]([C:2]([N:3]1[C:4]([H:13])([H:14])[C:5]1=[C:6]([H:16])[H:17])([H:11])[H:12])([H:8])([H:9])[H:10].[O:7]([H:15])[H:18]"
C       -1.84978807      -1.20285153      -0.34874431
C       -1.44223935      -0.23000461       0.74204358
N       -0.01054276      -0.31237423       0.99501204
C        0.58451720       0.87471113       1.61217570
C        0.81891285       0.55774085       0.20131288
C        1.99534444       0.16533088      -0.49505652
O        1.42498665       0.78240237      -2.08038356
H       -2.92558830      -1.15662140      -0.53191125
H       -1.58711235      -2.22554437      -0.07215706
H       -1.34219232      -0.96506960      -1.28760861
H       -1.72547253       0.79437145       0.45184837
H       -1.96773734      -0.47039308       1.67134839
H       -0.07308592       1.71268421       1.83396668
H        1.33885493       0.66751204       2.36523120
H        0.62160938       1.05510765      -1.29400909
H        2.88891236       0.77953115      -0.43543889
H        2.19433052      -0.88408506      -0.70170878
H        1.05629061       0.05755216      -2.62592077
18
Frame=3 idx=008966 GeodesicLength=0.2857064590785123 rxn_smarts="[C:1]([C:2]([N:3]1[C:4]([H:13])([H:14])[C@:5]1([C:6]([O:7][H:18])([H:16])[H:17])[H:15])([H:11])[H:12])([H:8])([H:9])[H:10]>>[C:1]([C:2]([N:3]1[C:4]([H:13])([H:14])[C:5]1=[C:6]([H:16])[H:17])([H:11])[H:12])([H:8])([H:9])[H:10].[O:7]([H:15])[H:18]"
C       -1.85306570      -1.19856279      -0.35655369
C       -1.44073153      -0.22499805       0.73220983
N       -0.00980872      -0.31483992       0.98854951
C        0.58994628       0.86196765       1.62103619
C        0.83352405       0.55259028       0.21126648
C        2.01210428       0.17961841      -0.48943136
O        1.40139410       0.76273587      -2.09007839
H       -2.92762477      -1.14020434      -0.54533681
H       -1.60361831      -2.22297611      -0.07392125
H       -1.33881188      -0.97241790      -1.29469558
H       -1.71474275       0.80084391       0.43801024
H       -1.97134701      -0.45884412       1.66027335
H       -0.05893304       1.70855563       1.83648858
H        1.33795440       0.64160088       2.37649554
H        0.59561772       1.04061464      -1.27312955
H        2.88641843       0.82381661      -0.45358336
H        2.25031147      -0.86613541      -0.67106045
H        1.01141296       0.02663477      -2.61653929
18
Frame=4 idx=008966 GeodesicLength=0.38074450561991185 rxn_smarts="[C:1]([C:2]([N:3]1[C:4]([H:13])([H:14])[C@:5]1([C:6]([O:7][H:18])([H:16])[H:17])[H:15])([H:11])[H:12])([H:8])([H:9])[H:10]>>[C:1]([C:2]([N:3]1[C:4]([H:13])([H:14])[C:5]1=[C:6]([H:16])[H:17])([H:11])[H:12])([H:8])([H:9])[H:10].[O:7]([H:15])[H:18]"
C       -1.85673331      -1.19431274      -0.36415305
C       -1.43926291      -0.22020086       0.72258201
N       -0.00903177      -0.31726804       0.98170874
C        0.59525211       0.84919760       1.62922467
C        0.84771802       0.54726034       0.22057742
C        2.02849930       0.19395828      -0.48400421
O        1.37936410       0.74223933      -2.09957796
H       -2.92998340      -1.12403329      -0.55808121
H       -1.62020073      -2.22027160      -0.07584332
H       -1.33646340      -0.97953967      -1.30168080
H       -1.70428448       0.80702893       0.42464419
H       -1.97451853      -0.44766727       1.64956488
H       -0.04468300       1.70425295       1.83872223
H        1.33699523       0.61579569       2.38678008
H        0.57091519       1.02676742      -1.25190328
H        2.88242116       0.86686083      -0.47146311
H        2.30621375      -0.84596548      -0.64060117
H        0.96778266      -0.00410240      -2.60649612
18
Frame=5 idx=008966 GeodesicLength=0.4756488279589945 rxn_smarts="[C:1]([C:2]([N:3]1[C:4]([H:13])([H:14])[C@:5]1([C:6]([O:7][H:18])([H:16])[H:17])[H:15])([H:11])[H:12])([H:8])([H:9])[H:10]>>[C:1]([C:2]([N:3]1[C:4]([H:13])([H:14])[C:5]1=[C:6]([H:16])[H:17])([H:11])[H:12])([H:8])([H:9])[H:10].[O:7]([H:15])[H:18]"
C       -1.86079204      -1.19009476      -0.37154310
C       -1.43784172      -0.21561236       0.71316466
N       -0.00822821      -0.31967453       0.97451579
C        0.60043979       0.83639410       1.63676602
C        0.86151973       0.54172975       0.22925971
C        2.04457083       0.20833336      -0.47874218
O        1.35891227       0.72088542      -2.10890910
H       -2.93266439      -1.10807725      -0.57017220
H       -1.63688630      -2.21743151      -0.07791063
H       -1.33512219      -0.98643240      -1.30855982
H       -1.69409530       0.81292934       0.41174811
H       -1.97727616      -0.43685733       1.63922056
H       -0.03033440       1.69977617       1.84067453
H        1.33596780       0.59007946       2.39613124
H        0.54741068       1.01359702      -1.23037669
H        2.87704395       0.90868840      -0.48904851
H        2.36202264      -0.82357738      -0.61031636
H        0.92535303      -0.03465549      -2.59590203
18
Frame=6 idx=008966 GeodesicLength=0.5703878479160129 rxn_smarts="[C:1]([C:2]([N:3]1[C:4]([H:13])([H:14])[C@:5]1([C:6]([O:7][H:18])([H:16])[H:17])[H:15])([H:11])[H:12])([H:8])([H:9])[H:10]>>[C:1]([C:2]([N:3]1[C:4]([H:13])([H:14])[C:5]1=[C:6]([H:16])[H:17])([H:11])[H:12])([H:8])([H:9])[H:10].[O:7]([H:15])[H:18]"
C       -1.86523112      -1.18588823      -0.37874146
C       -1.43647438      -0.21123401       0.70396035
N       -0.00739382      -0.32207094       0.96698953
C        0.60553555       0.82354111       1.64367383
C        0.87494222       0.53598729       0.23732741
C        2.06031900       0.22271279      -0.47360568
O        1.34008986       0.69852086      -2.11819525
H       -2.93567082      -1.09231604      -0.58162277
H       -1.65364328      -2.21445655      -0.08014954
H       -1.33475899      -0.99303609      -1.31536040
H       -1.68418783       0.81855778       0.39933193
H       -1.97964348      -0.42643962       1.62924419
H       -0.01587445       1.69510339       1.84235959
H        1.33490336       0.56443551       2.40456725
H        0.52508446       1.00111347      -1.20860241
H        2.87031719       0.94929873      -0.50636093
H        2.41771682      -0.79892266      -0.57995761
H        0.88396971      -0.06490679      -2.58485804
18
Frame=7 idx=008966 GeodesicLength=0.6650542303104889 rxn_smarts="[C:1]([C:2]([N:3]1[C:4]([H:13])([H:14])[C@:5]1([C:6]([O:7][H:18])([H:16])[H:17])[H:15])([H:11])[H:12])([H:8])([H:9])[H:10]>>[C:1]([C:2]([N:3]1[C:4]([H:13])([H:14])[C:5]1=[C:6]([H:16])[H:17])([H:11])[H:12])([H:8])([H:9])[H:10].[O:7]([H:15])[H:18]"
C       -1.87003919      -1.18168204      -0.38575736
C       -1.43516284      -0.20706466       0.69496676
N       -0.00653039      -0.32447236       0.95914607
C        0.61055771       0.81062319       1.64996888
C        0.88801515       0.53001175       0.24479584
C        2.07578476       0.23706702      -0.46855307
O        1.32292247       0.67507913      -2.12750310
H       -2.93900339      -1.07672101      -0.59245071
H       -1.67046419      -2.21135077      -0.08256055
H       -1.33534020      -0.99932537      -1.32210012
H       -1.67455979       0.82392414       0.38739042
H       -1.98164041      -0.41641850       1.61963342
H       -0.00129006       1.69022264       1.84378438
H        1.33380670       0.53883957       2.41212770
H        0.50384876       0.98935209      -1.18663589
H        2.86233056       0.98868658      -0.52340163
H        2.47327081      -0.77195273      -0.54936247
H        0.84349355      -0.09481864      -2.57348858
18
Frame=8 idx=008966 GeodesicLength=0.759641077601865 rxn_smarts="[C:1]([C:2]([N:3]1[C:4]([H:13])([H:14])[C@:5]1([C:6]([O:7][H:18])([H:16])[H:17])[H:15])([H:11])[H:12])([H:8])([H:9])[H:10]>>[C:1]([C:2]([N:3]1[C:4]([H:13])([H:14])[C:5]1=[C:6]([H:16])[H:17])([H:11])[H:12])([H:8])([H:9])[H:10].[O:7]([H:15])[H:18]"
C       -1.87521166      -1.17746617      -0.39259703
C       -1.43391088      -0.20310317       0.68618467
N       -0.00563974      -0.32689217       0.95100197
C        0.61552457       0.79762568       1.65566833
C        0.90075750       0.52378635       0.25167610
C        2.09098145       0.25136855      -0.46355286
O        1.30746414       0.65045781      -2.13688810
H       -2.94266495      -1.06127535      -0.60266431
H       -1.68733924      -2.20812051      -0.08514411
H       -1.33683862      -1.00527313      -1.32879354
H       -1.66521219       0.82903904       0.37592048
H       -1.98328874      -0.40679685       1.61038739
H        0.01343122       1.68511981       1.84495868
H        1.33269266       0.51327206       2.41883859
H        0.48365401       0.97833620      -1.16451075
H        2.85314042       1.02682526      -0.54019148
H        2.52863244      -0.74258008      -0.51840438
H        0.80382761      -0.12432332      -2.56188966
18
Frame=9 idx=008966 GeodesicLength=0.8539304604411666 rxn_smarts="[C:1]([C:2]([N:3]1[C:4]([H:13])([H:14])[C@:5]1([C:6]([O:7][H:18])([H:16])[H:17])[H:15])([H:11])[H:12])([H:8])([H:9])[H:10]>>[C:1]([C:2]([N:3]1[C:4]([H:13])([H:14])[C:5]1=[C:6]([H:16])[H:17])([H:11])[H:12])([H:8])([H:9])[H:10].[O:7]([H:15])[H:18]"
C       -1.88074533      -1.17323349      -0.39926669
C       -1.43272145      -0.19934886       0.67761497
N       -0.00473641      -0.32934055       0.94258285
C        0.62043698       0.78454789       1.66079192
C        0.91318572       0.51729154       0.25797858
C        2.10594036       0.26559740      -0.45858499
O        1.29373644       0.62439925      -2.14633413
H       -2.94664753      -1.04596234      -0.61229685
H       -1.70429249      -2.20476043      -0.08790535
H       -1.33923669      -1.01087284      -1.33542680
H       -1.65613505       0.83390228       0.36492112
H       -1.98460348      -0.39757374       1.60149232
H        0.02828824       1.67979792       1.84588662
H        1.33155228       0.48772643       2.42473594
H        0.46445803       0.96809626      -1.14220362
H        2.84281317       1.06374592      -0.55678741
H        2.58380279      -0.71076660      -0.48707135
H        0.76490443      -0.15324603      -2.55012715
18
Frame=10 idx=008966 GeodesicLength=0.9481580702766315 rxn_smarts="[C:1]([C:2]([N:3]1[C:4]([H:13])([H:14])[C@:5]1([C:6]([O:7][H:18])([H:16])[H:17])[H:15])([H:11])[H:12])([H:8])([H:9])[H:10]>>[C:1]([C:2]([N:3]1[C:4]([H:13])([H:14])[C:5]1=[C:6]([H:16])[H:17])([H:11])[H:12])([H:8])([H:9])[H:10].[O:7]([H:15])[H:18]"
C       -1.88662511      -1.16896794      -0.40577656
C       -1.43159115      -0.19579827       0.66925325
N       -0.00380840      -0.33183327       0.93389159
C        0.62532684       0.77136084       1.66535559
C        0.92532912       0.51051520       0.26371820
C        2.12069156       0.27972243      -0.45359377
O        1.28181716       0.59685536      -2.15593074
H       -2.95095335      -1.03075804      -0.62133932
H       -1.72128597      -2.20127792      -0.09085044
H       -1.34250058      -1.01607966      -1.34203707
H       -1.64732810       0.83853274       0.35438976
H       -1.98559881      -0.38875623       1.59295282
H        0.04330547       1.67422651       1.84658489
H        1.33040987       0.46216524       2.42984328
H        0.44618029       0.95865445      -1.11978443
H        2.83139546       1.09937927      -0.57321212
H        2.63868020      -0.67635375      -0.45513628
H        0.72655552      -0.18158697      -2.53832864
18
Frame=11 idx=008966 GeodesicLength=1.0422674396014155 rxn_smarts="[C:1]([C:2]([N:3]1[C:4]([H:13])([H:14])[C@:5]1([C:6]([O:7][H:18])([H:16])[H:17])[H:15])([H:11])[H:12])([H:8])([H:9])[H:10]>>[C:1]([C:2]([N:3]1[C:4]([H:13])([H:14])[C:5]1=[C:6]([H:16])[H:17])([H:11])[H:12])([H:8])([H:9])[H:10].[O:7]([H:15])[H:18]"
C       -1.89283637      -1.16465929      -0.41213474
C       -1.43051539      -0.19244882       0.66109819
N       -0.00285265      -0.33437578       0.92494227
C        0.63021006       0.75805634       1.66937836
C        0.93720707       0.50345073       0.26890520
C        2.13525345       0.29371935      -0.44854777
O        1.27176216       0.56763636      -2.16569636
H       -2.95557472      -1.01565565      -0.62980092
H       -1.73829688      -2.19767392      -0.09399347
H       -1.34660688      -1.02086043      -1.34863333
H       -1.63878467       0.84293980       0.34432708
H       -1.98628132      -0.38035212       1.58476213
H        0.05849377       1.66839478       1.84706699
H        1.32927579       0.43657558       2.43418798
H        0.42878660       0.95002853      -1.09725116
H        2.81892475       1.13369979      -0.58952860
H        2.69314152      -0.63925357      -0.42250669
H        0.68869372      -0.20922168      -2.52657514
18
Frame=12 idx=008966 GeodesicLength=1.1363005107241544 rxn_smarts="[C:1]([C:2]([N:3]1[C:4]([H:13])([H:14])[C@:5]1([C:6]([O:7][H:18])([H:16])[H:17])[H:15])([H:11])[H:12])([H:8])([H:9])[H:10]>>[C:1]([C:2]([N:3]1[C:4]([H:13])([H:14])[C:5]1=[C:6]([H:16])[H:17])([H:11])[H:12])([H:8])([H:9])[H:10].[O:7]([H:15])[H:18]"
C       -1.89936829      -1.16029807      -0.41834807
C       -1.42949020      -0.18929793       0.65314673
N       -0.00186831      -0.33697816       0.91574634
C        0.63510065       0.74462096       1.67287928
C        0.94884385       0.49608477       0.27355240
C        2.14966499       0.30756600      -0.44340760
O        1.26364390       0.53654394      -2.17562849
H       -2.96050877      -1.00063895      -0.63769013
H       -1.75531642      -2.19395324      -0.09733577
H       -1.35152675      -1.02519315      -1.35522672
H       -1.63049661       0.84713204       0.33473056
H       -1.98666133      -0.37236311       1.57691402
H        0.07386356       1.66229037       1.84734567
H        1.32815300       0.41093485       2.43779993
H        0.41220906       0.94225177      -1.07460633
H        2.80546093       1.16665083      -0.60580063
H        2.74709568      -0.59932184      -0.38910349
H        0.65120108      -0.23603107      -2.51496770
18
Frame=13 idx=008966 GeodesicLength=1.2299998214029946 rxn_smarts="[C:1]([C:2]([N:3]1[C:4]([H:13])([H:14])[C@:5]1([C:6]([O:7][H:18])([H:16])[H:17])[H:15])([H:11])[H:12])([H:8])([H:9])[H:10]>>[C:1]([C:2]([N:3]1[C:4]([H:13])([H:14])[C:5]1=[C:6]([H:16])[H:17])([H:11])[H:12])([H:8])([H:9])[H:10].[O:7]([H:15])[H:18]"
C       -1.90620640      -1.15587263      -0.42442705
C       -1.42850916      -0.18634379       0.64539371
N       -0.00085714      -0.33965206       0.90631956
C        0.64000645       0.73104414       1.67587709
C        0.96026243       0.48839710       0.27767611
C        2.16395554       0.32122949      -0.43813325
O        1.25749642       0.50315811      -2.18564398
H       -2.96574173      -0.98569290      -0.64502616
H       -1.77233861      -2.19011792      -0.10088962
H       -1.35723121      -1.02905373      -1.36181703
H       -1.62244839       0.85111694       0.32559681
H       -1.98674919      -0.36479058       1.56939202
H        0.08942023       1.65590370       1.84742529
H        1.32703692       0.38522679       2.44071265
H        0.39643029       0.93535032      -1.05183342
H        2.79102532       1.19819899      -0.62215006
H        2.80050596      -0.55639993      -0.35485338
H        0.61394226      -0.26170204      -2.50361928
18
Frame=14 idx=008966 GeodesicLength=1.3236672705440915 rxn_smarts="[C:1]([C:2]([N:3]1[C:4]([H:13])([H:14])[C@:5]1([C:6]([O:7][H:18])([H:16])[H:17])[H:15])([H:11])[H:12])([H:8])([H:9])[H:10]>>[C:1]([C:2]([N:3]1[C:4]([H:13])([H:14])[C:5]1=[C:6]([H:16])[H:17])([H:11])[H:12])([H:8])([H:9])[H:10].[O:7]([H:15])[H:18]"
C       -1.91333347      -1.15136608      -0.43037972
C       -1.42756309      -0.18358257       0.63784021
N        0.00019389      -0.34240055       0.89666315
C        0.64495287       0.71730665       1.67839334
C        0.97148447       0.48039916       0.28128593
C        2.17816161       0.33470146      -0.43268247
O        1.25344858       0.46737699      -2.19576483
H       -2.97127302      -0.97080256      -0.65179604
H       -1.78932319      -2.18616663      -0.10467202
H       -1.36369653      -1.03239207      -1.36843298
H       -1.61463969       0.85490935       0.31694098
H       -1.98654114      -0.35765098       1.56220253
H        0.10518288       1.64920987       1.84734153
H        1.32594880       0.35941837       2.44294573
H        0.38136249       0.92934217      -1.02894760
H        2.77566398       1.22824725      -0.63864952
H        2.85313427      -0.51031756      -0.31965909
H        0.57683629      -0.28623223      -2.49262913
18
Frame=15 idx=008966 GeodesicLength=1.4172558656272807 rxn_smarts="[C:1]([C:2]([N:3]1[C:4]([H:13])([H:14])[C@:5]1([C:6]([O:7][H:18])([H:16])[H:17])[H:15])([H:11])[H:12])([H:8])([H:9])[H:10]>>[C:1]([C:2]([N:3]1[C:4]([H:13])([H:14])[C:5]1=[C:6]([H:16])[H:17])([H:11])[H:12])([H:8])([H:9])[H:10].[O:7]([H:15])[H:18]"
C       -1.92072086      -1.14675827      -0.43622052
C       -1.42663964      -0.18101289       0.63048893
N        0.00129455      -0.34522158       0.88679090
C        0.64995299       0.70340354       1.68045399
C        0.98252964       0.47210125       0.28440083
C        2.19230794       0.34797372      -0.42700853
O        1.25157629       0.42883632      -2.20591004
H       -2.97708366      -0.95596096      -0.65800320
H       -1.80622230      -2.18209767      -0.10871723
H       -1.37088624      -1.03514904      -1.37508904
H       -1.60706474       0.85851960       0.30878409
H       -1.98603443      -0.35096830       1.55534020
H        0.12115412       1.64219678       1.84712350
H        1.32489573       0.33349912       2.44452940
H        0.36696491       0.92425253      -1.00592825
H        2.75939430       1.25671964      -0.65543950
H        2.90476581      -0.46094291      -0.28349053
H        0.53981557      -0.30939088      -2.48210499
18
Frame=16 idx=008966 GeodesicLength=1.510757060419246 rxn_smarts="[C:1]([C:2]([N:3]1[C:4]([H:13])([H:14])[C@:5]1([C:6]([O:7][H:18])([H:16])[H:17])[H:15])([H:11])[H:12])([H:8])([H:9])[H:10]>>[C:1]([C:2]([N:3]1[C:4]([H:13])([H:14])[C:5]1=[C:6]([H:16])[H:17])([H:11])[H:12])([H:8])([H:9])[H:10].[O:7]([H:15])[H:18]"
C       -1.92833824      -1.14201967      -0.44197028
C       -1.42572803      -0.17863391       0.62334709
N        0.00245347      -0.34811390       0.87671720
C        0.65501957       0.68932579       1.68209093
C        0.99341377       0.46352004       0.28704453
C        2.20642217       0.36104201      -0.42106383
O        1.25194832       0.38710907      -2.21594644
H       -2.98315517      -0.94114167      -0.66365747
H       -1.82299025      -2.17790509      -0.11307073
H       -1.37875992      -1.03725108      -1.38180778
H       -1.59972426       0.86196225       0.30116382
H       -1.98522601      -0.34477781       1.54880675
H        0.13733429       1.63484793       1.84681501
H        1.32388686       0.30744740       2.44549478
H        0.35317402       0.92010991      -0.98275442
H        2.74223752       1.28350404      -0.67269151
H        2.95519769      -0.40807214      -0.24634202
H        0.50283418      -0.33095319      -2.47217564
