8
Frame=0 idx=005124 GeodesicLength=0.0 rxn_smarts="[O:1]=[C:2]([C:3]#[C:4][C:5](=[O:6])[H:8])[H:7]>>[O+:1](=[C:2]([C:3]#[C-:4])[H:7])[C:5](=[O:6])[H:8]"
O       -0.83123375       0.53264250       0.93486795
C       -1.20631336      -0.22229622       0.02033044
C       -0.21145429      -0.71453510      -0.81986262
C        0.80276205      -0.95494713      -1.52147868
C        1.02686554       0.47170942       0.43676852
O        1.69196663      -0.03327812       1.22316039
H       -2.26887069      -0.44698344      -0.10121661
H        0.99627789       1.36768811      -0.17256939
8
Frame=1 idx=005124 GeodesicLength=0.0742424703032001 rxn_smarts="[O:1]=[C:2]([C:3]#[C:4][C:5](=[O:6])[H:8])[H:7]>>[O+:1](=[C:2]([C:3]#[C-:4])[H:7])[C:5](=[O:6])[H:8]"
O       -0.84491623       0.53779752       0.92638969
C       -1.22311464      -0.20809711       0.00365508
C       -0.22939434      -0.71690097      -0.82882214
C        0.80066557      -0.93494105      -1.51219348
C        1.03838142       0.46756313       0.44039880
O        1.70710058      -0.02705590       1.23407316
H       -2.27826636      -0.47865172      -0.08730197
H        1.02954400       1.36028611      -0.17619914
8
Frame=2 idx=005124 GeodesicLength=0.14798896293098157 rxn_smarts="[O:1]=[C:2]([C:3]#[C:4][C:5](=[O:6])[H:8])[H:7]>>[O+:1](=[C:2]([C:3]#[C-:4])[H:7])[C:5](=[O:6])[H:8]"
O       -0.85904845       0.54169945       0.91830792
C       -1.24007974      -0.19583866      -0.01200087
C       -0.24767919      -0.71819425      -0.83866520
C        0.79805332      -0.91600845      -1.50177550
C        1.04962783       0.46370080       0.44409160
O        1.72292759      -0.02007312       1.24428833
H       -2.28566399      -0.50790087      -0.07460754
H        1.06186263       1.35261510      -0.17963874
8
Frame=3 idx=005124 GeodesicLength=0.22181173285138506 rxn_smarts="[O:1]=[C:2]([C:3]#[C:4][C:5](=[O:6])[H:8])[H:7]>>[O+:1](=[C:2]([C:3]#[C-:4])[H:7])[C:5](=[O:6])[H:8]"
O       -0.87345167       0.54430257       0.91097357
C       -1.25705625      -0.18636725      -0.02580128
C       -0.26624149      -0.71852277      -0.84935146
C        0.79504028      -0.89813930      -1.49032932
C        1.06094697       0.46028469       0.44785341
O        1.73988958      -0.01209426       1.25386886
H       -2.29255947      -0.53433710      -0.06413028
H        1.09343206       1.34487341      -0.18308349
8
Frame=4 idx=005124 GeodesicLength=0.2954040419805702 rxn_smarts="[O:1]=[C:2]([C:3]#[C:4][C:5](=[O:6])[H:8])[H:7]>>[O+:1](=[C:2]([C:3]#[C-:4])[H:7])[C:5](=[O:6])[H:8]"
O       -0.88798483       0.54536219       0.90467778
C       -1.27384535      -0.17949512      -0.03781073
C       -0.28493024      -0.71835493      -0.86049154
C        0.79145443      -0.88115569      -1.47796196
C        1.07239626       0.45730770       0.45168557
O        1.75812561      -0.00288599       1.26278071
H       -2.29935700      -0.55776666      -0.05630797
H        1.12414113       1.33698851      -0.18657185
8
Frame=5 idx=005124 GeodesicLength=0.36899141013481457 rxn_smarts="[O:1]=[C:2]([C:3]#[C:4][C:5](=[O:6])[H:8])[H:7]>>[O+:1](=[C:2]([C:3]#[C-:4])[H:7])[C:5](=[O:6])[H:8]"
O       -0.90283125       0.54567386       0.89883796
C       -1.29075890      -0.17420950      -0.04875542
C       -0.30387404      -0.71698382      -0.87260451
C        0.78746861      -0.86504811      -1.46465055
C        1.08407030       0.45467660       0.45567257
O        1.77719258       0.00702655       1.27134212
H       -2.30605017      -0.58002938      -0.04975148
H        1.15478287       1.32889380      -0.19009068
8
Frame=6 idx=005124 GeodesicLength=0.44254201216345745 rxn_smarts="[O:1]=[C:2]([C:3]#[C:4][C:5](=[O:6])[H:8])[H:7]>>[O+:1](=[C:2]([C:3]#[C-:4])[H:7])[C:5](=[O:6])[H:8]"
O       -0.91801322       0.54559085       0.89319619
C       -1.30782681      -0.17013787      -0.05894469
C       -0.32311754      -0.71429409      -0.88574144
C        0.78289233      -0.84960922      -1.45045820
C        1.09600201       0.45231683       0.45984312
O        1.79686586       0.01756186       1.27974190
H       -2.31248769      -0.60183473      -0.04402044
H        1.18568506       1.32040638      -0.19361644
8
Frame=7 idx=005124 GeodesicLength=0.5160298788020018 rxn_smarts="[O:1]=[C:2]([C:3]#[C:4][C:5](=[O:6])[H:8])[H:7]>>[O+:1](=[C:2]([C:3]#[C-:4])[H:7])[C:5](=[O:6])[H:8]"
O       -0.93368936       0.54566082       0.88736552
C       -1.32519420      -0.16689183      -0.06861914
C       -0.34275503      -0.70968466      -0.90033815
C        0.77779051      -0.83492358      -1.43539918
C        1.10817396       0.45017367       0.46424681
O        1.81678390       0.02840834       1.28818944
H       -2.31835107      -0.62416200      -0.03828480
H        1.21724129       1.31141924      -0.19716051
8
Frame=8 idx=005124 GeodesicLength=0.5894496690174337 rxn_smarts="[O:1]=[C:2]([C:3]#[C:4][C:5](=[O:6])[H:8])[H:7]>>[O+:1](=[C:2]([C:3]#[C-:4])[H:7])[C:5](=[O:6])[H:8]"
O       -0.94992181       0.54627448       0.88107744
C       -1.34293107      -0.16432900      -0.07790526
C       -0.36288810      -0.70273844      -0.91663733
C        0.77203574      -0.82096557      -1.41944987
C        1.12057995       0.44820900       0.46891071
O        1.83671534       0.03943889       1.29684994
H       -2.32331542      -0.64764426      -0.03211451
H        1.24972538       1.30175490      -0.20073112
8
Frame=9 idx=005124 GeodesicLength=0.6629162037673779 rxn_smarts="[O:1]=[C:2]([C:3]#[C:4][C:5](=[O:6])[H:8])[H:7]>>[O+:1](=[C:2]([C:3]#[C-:4])[H:7])[C:5](=[O:6])[H:8]"
O       -0.96685139       0.54789418       0.87406819
C       -1.36107563      -0.16238966      -0.08687154
C       -0.38349408      -0.69333999      -0.93472367
C        0.76541416      -0.80747207      -1.40278425
C        1.13323417       0.44633148       0.47381799
O        1.85640235       0.05055282       1.30598299
H       -2.32702935      -0.67276734      -0.02512108
H        1.28339976       1.29119057      -0.20436864
8
Frame=10 idx=005124 GeodesicLength=0.7362075307814016 rxn_smarts="[O:1]=[C:2]([C:3]#[C:4][C:5](=[O:6])[H:8])[H:7]>>[O+:1](=[C:2]([C:3]#[C-:4])[H:7])[C:5](=[O:6])[H:8]"
O       -0.98448255       0.55072077       0.86604515
C       -1.37966560      -0.16097650      -0.09563730
C       -0.40478028      -0.68076344      -0.95483188
C        0.75767688      -0.79461399      -1.38521552
C        1.14608460       0.44450491       0.47900933
O        1.87567240       0.06173057       1.31568107
H       -2.32888358      -0.70005729      -0.01699952
H        1.31837813       1.27945497      -0.20805133
8
Frame=11 idx=005124 GeodesicLength=0.8094846445866222 rxn_smarts="[O:1]=[C:2]([C:3]#[C:4][C:5](=[O:6])[H:8])[H:7]>>[O+:1](=[C:2]([C:3]#[C-:4])[H:7])[C:5](=[O:6])[H:8]"
O       -1.00282762       0.55411521       0.85756366
C       -1.39866302      -0.16008229      -0.10418376
C       -0.42652521      -0.66569559      -0.97636357
C        0.74863372      -0.78221944      -1.36689129
C        1.15924353       0.44273559       0.48442391
O        1.89486983       0.07337569       1.32590553
H       -2.32911788      -0.72872607      -0.00852971
H        1.35438665       1.26649691      -0.21192477
8
Frame=12 idx=005124 GeodesicLength=0.8828369984070161 rxn_smarts="[O:1]=[C:2]([C:3]#[C:4][C:5](=[O:6])[H:8])[H:7]>>[O+:1](=[C:2]([C:3]#[C-:4])[H:7])[C:5](=[O:6])[H:8]"
O       -1.02164291       0.55669995       0.84967638
C       -1.41793822      -0.15967567      -0.11251663
C       -0.44843770      -0.64957095      -0.99819523
C        0.73815227      -0.77002450      -1.34797939
C        1.17294301       0.44105406       0.48996468
O        1.91471121       0.08628144       1.33645946
H       -2.32860959      -0.75716474      -0.00126286
H        1.39082193       1.25240040      -0.21614640
8
Frame=13 idx=005124 GeodesicLength=0.9562716652502584 rxn_smarts="[O:1]=[C:2]([C:3]#[C:4][C:5](=[O:6])[H:8])[H:7]>>[O+:1](=[C:2]([C:3]#[C-:4])[H:7])[C:5](=[O:6])[H:8]"
O       -1.04077319       0.55765804       0.84292839
C       -1.43744583      -0.15967375      -0.12068481
C       -0.47034007      -0.63327153      -1.01958423
C        0.72623655      -0.75776661      -1.32859891
C        1.18738538       0.43942554       0.49556229
O        1.93560524       0.10094594       1.34723045
H       -2.32805570      -0.78450071       0.00394610
H        1.42738761       1.23718308      -0.22079928
8
Frame=14 idx=005124 GeodesicLength=1.0298337053889959 rxn_smarts="[O:1]=[C:2]([C:3]#[C:4][C:5](=[O:6])[H:8])[H:7]>>[O+:1](=[C:2]([C:3]#[C-:4])[H:7])[C:5](=[O:6])[H:8]"
O       -1.06010908       0.55642866       0.83771908
C       -1.45717923      -0.16001230      -0.12871620
C       -0.49210554      -0.61748631      -1.04003610
C        0.71301613      -0.74523154      -1.30886737
C        1.20276875       0.43780848       0.50116102
O        1.95783063       0.11773049       1.35813987
H       -2.32816115      -0.81014337       0.00653161
H        1.46393948       1.22090590      -0.22593191
8
Frame=15 idx=005124 GeodesicLength=1.1035293698744395 rxn_smarts="[O:1]=[C:2]([C:3]#[C:4][C:5](=[O:6])[H:8])[H:7]>>[O+:1](=[C:2]([C:3]#[C-:4])[H:7])[C:5](=[O:6])[H:8]"
O       -1.07957849       0.55273226       0.83421869
C       -1.47713693      -0.16065413      -0.13661647
C       -0.51365786      -0.60267319      -1.05926258
C        0.69865468      -0.73217983      -1.28888803
C        1.21925944       0.43612124       0.50670656
O        1.98148215       0.13686149       1.36915301
H       -2.32947701      -0.83379888       0.00624394
H        1.50045402       1.20359103      -0.23155510
8
Frame=16 idx=005124 GeodesicLength=1.177365435235208 rxn_smarts="[O:1]=[C:2]([C:3]#[C:4][C:5](=[O:6])[H:8])[H:7]>>[O+:1](=[C:2]([C:3]#[C-:4])[H:7])[C:5](=[O:6])[H:8]"
O       -1.09915000       0.54648902       0.83245057
C       -1.49732626      -0.16158116      -0.14437856
C       -0.53496846      -0.58908425      -1.07715314
C        0.68331356      -0.71838880      -1.26875043
C        1.23699649       0.43425576       0.51215393
O        2.00652848       0.15848158       1.38027055
H       -2.33239897      -0.85539941       0.00305898
H        1.53700517       1.18522727      -0.23765189
