16
Frame=0 idx=008336 GeodesicLength=0.0 rxn_smarts="[N:1](=[C:2]1/[C:3]([H:9])([H:10])[C:4]([H:11])([H:12])[C:5]([H:13])([H:14])[C:6]([H:15])([H:16])[O:7]1)\[H:8]>>[C:6](=[O:7])([H:15])[H:16].[N:1](=[C:2]=[C:3]([C:4]([C:5]([H:9])([H:13])[H:14])([H:11])[H:12])[H:10])[H:8]"
N        2.73365123       0.57964558       0.39060238
C        1.52019529       0.32836788       0.15737453
C        0.85660394      -0.90981811      -0.00650867
C       -0.51751885      -1.19928603       0.53637423
C       -1.33830135      -0.43630418      -0.50923251
C       -0.61565165       1.39446894      -0.03823869
O        0.67492358       1.48536249      -0.19393820
H        2.95034301       1.55649416       0.21208248
H       -0.32874630      -0.12375474      -1.11859233
H        1.53976549      -1.73065313      -0.18040662
H       -0.70534370      -0.85642476       1.56003274
H       -0.72732418      -2.26822333       0.52369844
H       -1.55029400      -1.14553719      -1.31996864
H       -2.31156541       0.02414681      -0.30125968
H       -0.99638328       1.24425555       0.97134097
H       -1.18435385       2.05726002      -0.68336039
16
Frame=1 idx=008336 GeodesicLength=0.11333916425943057 rxn_smarts="[N:1](=[C:2]1/[C:3]([H:9])([H:10])[C:4]([H:11])([H:12])[C:5]([H:13])([H:14])[C:6]([H:15])([H:16])[O:7]1)\[H:8]>>[C:6](=[O:7])([H:15])[H:16].[N:1](=[C:2]=[C:3]([C:4]([C:5]([H:9])([H:13])[H:14])([H:11])[H:12])[H:10])[H:8]"
N        2.73221272       0.57387287       0.40716997
C        1.52398566       0.32144873       0.15596010
C        0.85732028      -0.91257220      -0.02367414
C       -0.51235666      -1.20059187       0.53462750
C       -1.34478486      -0.44016784      -0.50334445
C       -0.61450577       1.40871891      -0.04708043
O        0.67721999       1.50664023      -0.19330017
H        2.94368565       1.55578630       0.24955265
H       -0.32013192      -0.14508423      -1.13499218
H        1.53651496      -1.73471184      -0.20676330
H       -0.68649866      -0.85465393       1.55926334
H       -0.72351153      -2.26937475       0.52682037
H       -1.57023281      -1.14637858      -1.31278083
H       -2.32164163       0.00080852      -0.27175514
H       -0.99658522       1.27381980       0.96492079
H       -1.18069020       2.06243987      -0.70462408
16
Frame=2 idx=008336 GeodesicLength=0.22662180541085467 rxn_smarts="[N:1](=[C:2]1/[C:3]([H:9])([H:10])[C:4]([H:11])([H:12])[C:5]([H:13])([H:14])[C:6]([H:15])([H:16])[O:7]1)\[H:8]>>[C:6](=[O:7])([H:15])[H:16].[N:1](=[C:2]=[C:3]([C:4]([C:5]([H:9])([H:13])[H:14])([H:11])[H:12])[H:10])[H:8]"
N        2.73055347       0.56805708       0.42326053
C        1.52768410       0.31448251       0.15481604
C        0.85799350      -0.91520316      -0.04033810
C       -0.50725255      -1.20202616       0.53274155
C       -1.35118104      -0.44383112      -0.49728967
C       -0.61332499       1.42327669      -0.05561565
O        0.67944931       1.52850488      -0.19208685
H        2.93640622       1.55452753       0.28586704
H       -0.31133845      -0.16716078      -1.15168569
H        1.53325017      -1.73856430      -0.23236050
H       -0.66800981      -0.85336714       1.55824294
H       -0.71961838      -2.27065930       0.52945835
H       -1.58974670      -1.14666163      -1.30560304
H       -2.33092896      -0.02284452      -0.24205968
H       -0.99727103       1.30376615       0.95837570
H       -1.17666486       2.06770328      -0.72572297
16
Frame=3 idx=008336 GeodesicLength=0.3398711747141441 rxn_smarts="[N:1](=[C:2]1/[C:3]([H:9])([H:10])[C:4]([H:11])([H:12])[C:5]([H:13])([H:14])[C:6]([H:15])([H:16])[O:7]1)\[H:8]>>[C:6](=[O:7])([H:15])[H:16].[N:1](=[C:2]=[C:3]([C:4]([C:5]([H:9])([H:13])[H:14])([H:11])[H:12])[H:10])[H:8]"
N        2.72870614       0.56219300       0.43875442
C        1.53130860       0.30744077       0.15377720
C        0.85862106      -0.91774607      -0.05658958
C       -0.50219388      -1.20357504       0.53073397
C       -1.35752142      -0.44729351      -0.49102324
C       -0.61208079       1.43815807      -0.06387056
O        0.68162296       1.55096663      -0.19038666
H        2.92843274       1.55284289       0.32146179
H       -0.30241978      -0.19009703      -1.16871087
H        1.52995606      -1.74226955      -0.25726697
H       -0.64978901      -0.85252163       1.55700442
H       -0.71566791      -2.27206093       0.53167454
H       -1.60890565      -1.14639760      -1.29838669
H       -2.33943561      -0.04681878      -0.21219300
H       -0.99837154       1.33413790       0.95169566
H       -1.17226197       2.07304089      -0.74667442
16
Frame=4 idx=008336 GeodesicLength=0.4531132506035007 rxn_smarts="[N:1](=[C:2]1/[C:3]([H:9])([H:10])[C:4]([H:11])([H:12])[C:5]([H:13])([H:14])[C:6]([H:15])([H:16])[O:7]1)\[H:8]>>[C:6](=[O:7])([H:15])[H:16].[N:1](=[C:2]=[C:3]([C:4]([C:5]([H:9])([H:13])[H:14])([H:11])[H:12])[H:10])[H:8]"
N        2.72664717       0.55633051       0.45379617
C        1.53484004       0.30032991       0.15292109
C        0.85920216      -0.92020460      -0.07239657
C       -0.49721185      -1.20524737       0.52860297
C       -1.36379677      -0.45054412      -0.48456292
C       -0.61078645       1.45338180      -0.07176312
O        0.68371828       1.57407508      -0.18805231
H        2.91989451       1.55071796       0.35587558
H       -0.29333327      -0.21395809      -1.18605276
H        1.52665433      -1.74583580      -0.28140410
H       -0.63189413      -0.85214986       1.55556140
H       -0.71170425      -2.27358981       0.53344153
H       -1.62765590      -1.14555159      -1.29119489
H       -2.34716580      -0.07114667      -0.18230042
H       -0.99995016       1.36492350       0.94493602
H       -1.16745791       2.07846916      -0.76740766
16
Frame=5 idx=008336 GeodesicLength=0.5663470976857123 rxn_smarts="[N:1](=[C:2]1/[C:3]([H:9])([H:10])[C:4]([H:11])([H:12])[C:5]([H:13])([H:14])[C:6]([H:15])([H:16])[O:7]1)\[H:8]>>[C:6](=[O:7])([H:15])[H:16].[N:1](=[C:2]=[C:3]([C:4]([C:5]([H:9])([H:13])[H:14])([H:11])[H:12])[H:10])[H:8]"
N        2.72444489       0.55044665       0.46807379
C        1.53831698       0.29312325       0.15193046
C        0.85973508      -0.92261714      -0.08792401
C       -0.49225656      -1.20700893       0.52637163
C       -1.37005111      -0.45358790      -0.47783176
C       -0.60939124       1.46896859      -0.07938056
O        0.68576620       1.59784052      -0.18526812
H        2.91057216       1.54827329       0.39010228
H       -0.28420262      -0.23891629      -1.20378099
H        1.52331338      -1.74933991      -0.30492329
H       -0.61414031      -0.85215721       1.55394244
H       -0.70771511      -2.27520781       0.53487522
H       -1.64613196      -1.14415731      -1.28390716
H       -2.35414151      -0.09582381      -0.15231196
H       -1.00188638       1.39620412       0.93803342
H       -1.16223188       2.08395989      -0.78800139
16
Frame=6 idx=008336 GeodesicLength=0.679606966586324 rxn_smarts="[N:1](=[C:2]1/[C:3]([H:9])([H:10])[C:4]([H:11])([H:12])[C:5]([H:13])([H:14])[C:6]([H:15])([H:16])[O:7]1)\[H:8]>>[C:6](=[O:7])([H:15])[H:16].[N:1](=[C:2]=[C:3]([C:4]([C:5]([H:9])([H:13])[H:14])([H:11])[H:12])[H:10])[H:8]"
N        2.72203312       0.54461089       0.48191324
C        1.54170001       0.28584068       0.15103111
C        0.86021766      -0.92497267      -0.10306796
C       -0.48738657      -1.20888434       0.52402874
C       -1.37625427      -0.45640813      -0.47088095
C       -0.60793376       1.48493809      -0.08657604
O        0.68772048       1.62233244      -0.18174938
H        2.90073638       1.54544356       0.42310853
H       -0.27492271      -0.26501150      -1.22184213
H        1.51997560      -1.75276550      -0.32765434
H       -0.59667309      -0.85262202       1.55215163
H       -0.70376113      -2.27694188       0.53589680
H       -1.66419633      -1.14214315      -1.27666740
H       -2.36037613      -0.12089551      -0.12244344
H       -1.00432625       1.42793375       0.93108027
H       -1.15655302       2.08954529      -0.80832868
16
Frame=7 idx=008336 GeodesicLength=0.7929023070268744 rxn_smarts="[N:1](=[C:2]1/[C:3]([H:9])([H:10])[C:4]([H:11])([H:12])[C:5]([H:13])([H:14])[C:6]([H:15])([H:16])[O:7]1)\[H:8]>>[C:6](=[O:7])([H:15])[H:16].[N:1](=[C:2]=[C:3]([C:4]([C:5]([H:9])([H:13])[H:14])([H:11])[H:12])[H:10])[H:8]"
N        2.71943126       0.53882481       0.49522438
C        1.54500274       0.27847512       0.15007611
C        0.86064640      -0.92729074      -0.11790819
C       -0.48258803      -1.21085439       0.52158217
C       -1.38242026      -0.45899978      -0.46368503
C       -0.60639306       1.50131755      -0.09335188
O        0.68958700       1.64758761      -0.17752493
H        2.89032913       1.54228966       0.45520549
H       -0.26554327      -0.29240379      -1.24026223
H        1.51663401      -1.75616112      -0.34963335
H       -0.57941783      -0.85349757       1.55020157
H       -0.69985432      -2.27877038       0.53655841
H       -1.68188815      -1.13950505      -1.26944921
H       -2.36589214      -0.14638243      -0.09272453
H       -1.00723175       1.46014967       0.92407667
H       -1.15040174       2.09522086      -0.82838545
16
Frame=8 idx=008336 GeodesicLength=0.9062516361203161 rxn_smarts="[N:1](=[C:2]1/[C:3]([H:9])([H:10])[C:4]([H:11])([H:12])[C:5]([H:13])([H:14])[C:6]([H:15])([H:16])[O:7]1)\[H:8]>>[C:6](=[O:7])([H:15])[H:16].[N:1](=[C:2]=[C:3]([C:4]([C:5]([H:9])([H:13])[H:14])([H:11])[H:12])[H:10])[H:8]"
N        2.71663016       0.53310532       0.50804242
C        1.54821875       0.27102619       0.14907136
C        0.86101590      -0.92958194      -0.13244790
C       -0.47787602      -1.21291924       0.51903600
C       -1.38855177      -0.46135486      -0.45623992
C       -0.60477053       1.51812775      -0.09965039
O        0.69134842       1.67365075      -0.17247933
H        2.87942429       1.53884975       0.48617834
H       -0.25604939      -0.32120786      -1.25902762
H        1.51329772      -1.75955445      -0.37081230
H       -0.56238804      -0.85478912       1.54810357
H       -0.69602599      -2.28069264       0.53686345
H       -1.69916175      -1.13619714      -1.26230580
H       -2.37072182      -0.17231646      -0.06325276
H       -1.01065356       1.49285841       0.91704764
H       -1.14373638       2.10099553      -0.84812677
16
Frame=9 idx=008336 GeodesicLength=1.0194356806540241 rxn_smarts="[N:1](=[C:2]1/[C:3]([H:9])([H:10])[C:4]([H:11])([H:12])[C:5]([H:13])([H:14])[C:6]([H:15])([H:16])[O:7]1)\[H:8]>>[C:6](=[O:7])([H:15])[H:16].[N:1](=[C:2]=[C:3]([C:4]([C:5]([H:9])([H:13])[H:14])([H:11])[H:12])[H:10])[H:8]"
N        2.71367621       0.52748214       0.51999859
C        1.55136696       0.26352218       0.14768467
C        0.86133149      -0.93185837      -0.14684624
C       -0.47320215      -1.21503633       0.51638812
C       -1.39458113      -0.46346770      -0.44859582
C       -0.60304135       1.53542900      -0.10545594
O        0.69301188       1.70059494      -0.16644753
H        2.86784087       1.53511093       0.51672781
H       -0.24659415      -0.35181323      -1.27813291
H        1.50997214      -1.76299641      -0.39125010
H       -0.54545217      -0.85637122       1.54583622
H       -0.69225921      -2.28265939       0.53690684
H       -1.71614157      -1.13230765      -1.25511587
H       -2.37481825      -0.19859911      -0.03402629
H       -1.01466947       1.52609570       0.90992515
H       -1.13644008       2.10687452      -0.86759670
16
Frame=10 idx=008336 GeodesicLength=1.1326556650988486 rxn_smarts="[N:1](=[C:2]1/[C:3]([H:9])([H:10])[C:4]([H:11])([H:12])[C:5]([H:13])([H:14])[C:6]([H:15])([H:16])[O:7]1)\[H:8]>>[C:6](=[O:7])([H:15])[H:16].[N:1](=[C:2]=[C:3]([C:4]([C:5]([H:9])([H:13])[H:14])([H:11])[H:12])[H:10])[H:8]"
N        2.71048203       0.52196418       0.53159929
C        1.55439959       0.25595516       0.14626336
C        0.86157176      -0.93411421      -0.16095597
C       -0.46865169      -1.21724208       0.51364318
C       -1.40056045      -0.46532897      -0.44073172
C       -0.60124731       1.55321451      -0.11062952
O        0.69451465       1.72844970      -0.15926976
H        2.85600350       1.53113847       0.54553419
H       -0.23700796      -0.38411877      -1.29751211
H        1.50667686      -1.76648084      -0.41076203
H       -0.52878623      -0.85836100       1.54343235
H       -0.68863346      -2.28471134       0.53660491
H       -1.73259817      -1.12767077      -1.24812457
H       -2.37829787      -0.22541156      -0.00531754
H       -1.01934415       1.55983290       0.90285011
H       -1.12852110       2.11288461      -0.88662418
16
Frame=11 idx=008336 GeodesicLength=1.2458985758238958 rxn_smarts="[N:1](=[C:2]1/[C:3]([H:9])([H:10])[C:4]([H:11])([H:12])[C:5]([H:13])([H:14])[C:6]([H:15])([H:16])[O:7]1)\[H:8]>>[C:6](=[O:7])([H:15])[H:16].[N:1](=[C:2]=[C:3]([C:4]([C:5]([H:9])([H:13])[H:14])([H:11])[H:12])[H:10])[H:8]"
N        2.70713022       0.51656077       0.54244163
C        1.55735101       0.24832388       0.14451877
C        0.86172950      -0.93637127      -0.17493569
C       -0.46416853      -1.21949303       0.51081916
C       -1.40650570      -0.46693548      -0.43258253
C       -0.59934899       1.57152030      -0.11522573
O        0.69586945       1.75725437      -0.15104757
H        2.84362746       1.52692181       0.57351422
H       -0.22740671      -0.41835935      -1.31718516
H        1.50338784      -1.77007754      -0.42944909
H       -0.51221620      -0.86065098       1.54089682
H       -0.68512021      -2.28679965       0.53607003
H       -1.74859211      -1.12227945      -1.24125857
H       -2.38119032      -0.25277223       0.02292935
H       -1.02461223       1.59415427       0.89575747
H       -1.11993448       2.11900359      -0.90526311
16
Frame=12 idx=008336 GeodesicLength=1.3591687784167596 rxn_smarts="[N:1](=[C:2]1/[C:3]([H:9])([H:10])[C:4]([H:11])([H:12])[C:5]([H:13])([H:14])[C:6]([H:15])([H:16])[O:7]1)\[H:8]>>[C:6](=[O:7])([H:15])[H:16].[N:1](=[C:2]=[C:3]([C:4]([C:5]([H:9])([H:13])[H:14])([H:11])[H:12])[H:10])[H:8]"
N        2.70371213       0.51129022       0.55210951
C        1.56025938       0.24062628       0.14216439
C        0.86179397      -0.93865174      -0.18894381
C       -0.45969487      -1.22174242       0.50793166
C       -1.41242937      -0.46827777      -0.42408036
C       -0.59730537       1.59038239      -0.11929753
O        0.69709491       1.78704039      -0.14189964
H        2.83034839       1.52242081       0.60158736
H       -0.21788786      -0.45477157      -1.33716149
H        1.50007550      -1.77385665      -0.44740514
H       -0.49556823      -0.86313259       1.53822710
H       -0.68168444      -2.28887101       0.53541269
H       -1.76417392      -1.11611550      -1.23443953
H       -2.38350517      -0.28069815       0.05076157
H       -1.03038812       1.62914253       0.88859053
H       -1.11064693       2.12521478      -0.92355730
16
Frame=13 idx=008336 GeodesicLength=1.4724654281592013 rxn_smarts="[N:1](=[C:2]1/[C:3]([H:9])([H:10])[C:4]([H:11])([H:12])[C:5]([H:13])([H:14])[C:6]([H:15])([H:16])[O:7]1)\[H:8]>>[C:6](=[O:7])([H:15])[H:16].[N:1](=[C:2]=[C:3]([C:4]([C:5]([H:9])([H:13])[H:14])([H:11])[H:12])[H:10])[H:8]"
N        2.70002568       0.50616974       0.56141586
C        1.56301242       0.23288972       0.13972253
C        0.86174401      -0.94092704      -0.20272827
C       -0.45538504      -1.22405296       0.50495747
C       -1.41829455      -0.46934486      -0.41537518
C       -0.59521086       1.60982040      -0.12251970
O        0.69806759       1.81787834      -0.13114713
H        2.81710069       1.51779603       0.62728546
H       -0.20821405      -0.49341249      -1.35727697
H        1.49681373      -1.77777189      -0.46424928
H       -0.47921263      -0.86596789       1.53542721
H       -0.67846973      -2.29099481       0.53446825
H       -1.77906262      -1.10903691      -1.22802160
H       -2.38535062      -0.30932383       0.07772805
H       -1.03702641       1.66467677       0.88154624
H       -1.10053761       2.13160170      -0.94123295
16
Frame=14 idx=008336 GeodesicLength=1.5857731655875524 rxn_smarts="[N:1](=[C:2]1/[C:3]([H:9])([H:10])[C:4]([H:11])([H:12])[C:5]([H:13])([H:14])[C:6]([H:15])([H:16])[O:7]1)\[H:8]>>[C:6](=[O:7])([H:15])[H:16].[N:1](=[C:2]=[C:3]([C:4]([C:5]([H:9])([H:13])[H:14])([H:11])[H:12])[H:10])[H:8]"
N        2.69625485       0.50121687       0.56954147
C        1.56569392       0.22510520       0.13663323
C        0.86156640      -0.94323703      -0.21659199
C       -0.45111271      -1.22634069       0.50192246
C       -1.42412595      -0.47012843      -0.40633659
C       -0.59298074       1.62988157      -0.12504778
O        0.69884038       1.84979088      -0.11912538
H        2.80310913       1.51294994       0.65258295
H       -0.19860621      -0.53461829      -1.37755688
H        1.49353949      -1.78193440      -0.48022131
H       -0.46279826      -0.86894759       1.53248608
H       -0.67538271      -2.29307534       0.53344603
H       -1.79339173      -1.10105118      -1.22181137
H       -2.38670867      -0.33864437       0.10401258
H       -1.04432149       1.70091011       0.87448127
H       -1.08957569       2.13812275      -0.95841475
16
Frame=15 idx=008336 GeodesicLength=1.6990820459194609 rxn_smarts="[N:1](=[C:2]1/[C:3]([H:9])([H:10])[C:4]([H:11])([H:12])[C:5]([H:13])([H:14])[C:6]([H:15])([H:16])[O:7]1)\[H:8]>>[C:6](=[O:7])([H:15])[H:16].[N:1](=[C:2]=[C:3]([C:4]([C:5]([H:9])([H:13])[H:14])([H:11])[H:12])[H:10])[H:8]"
N        2.69234003       0.49645131       0.57667440
C        1.56825718       0.21728637       0.13302063
C        0.86123619      -0.94557925      -0.23048828
C       -0.44693304      -1.22861197       0.49882521
C       -1.42991272      -0.47061996      -0.39701178
C       -0.59064746       1.65059818      -0.12672071
O        0.69934577       1.88282393      -0.10550943
H        2.78870026       1.50795680       0.67660947
H       -0.18898936      -0.57857603      -1.39787612
H        1.49027267      -1.78635667      -0.49515656
H       -0.44643674      -0.87208923       1.52940222
H       -0.67248235      -2.29511869       0.53233066
H       -1.80700738      -1.09205749      -1.21598045
H       -2.38764935      -0.36875026       0.12936614
H       -1.05242798       1.73782054       0.86747223
H       -1.07766572       2.14482242      -0.97495765
16
Frame=16 idx=008336 GeodesicLength=1.8123695181428507 rxn_smarts="[N:1](=[C:2]1/[C:3]([H:9])([H:10])[C:4]([H:11])([H:12])[C:5]([H:13])([H:14])[C:6]([H:15])([H:16])[O:7]1)\[H:8]>>[C:6](=[O:7])([H:15])[H:16].[N:1](=[C:2]=[C:3]([C:4]([C:5]([H:9])([H:13])[H:14])([H:11])[H:12])[H:10])[H:8]"
N        2.68841261       0.49191017       0.58221436
C        1.57075414       0.20943790       0.12846982
C        0.86073064      -0.94798127      -0.24464800
C       -0.44275689      -1.23079678       0.49568311
C       -1.43565995      -0.47080547      -0.38731580
C       -0.58815685       1.67202079      -0.12760829
O        0.69960660       1.91700630      -0.09045970
H        2.77328783       1.50269453       0.70065235
H       -0.17951813      -0.62561754      -1.41817551
H        1.48696702      -1.79112154      -0.50919264
H       -0.42988107      -0.87522216       1.52615474
H       -0.66969971      -2.29704578       0.53128712
H       -1.81993990      -1.08201672      -1.21043501
H       -2.38815904      -0.39967090       0.15385009
H       -1.06123235       1.77551862       0.86042829
H       -1.06475497       2.15168985      -0.99090492
