19
Frame=0 idx=006355 GeodesicLength=0.0 rxn_smarts="[C:1]([C:2]([C@@:3]([O:4][H:14])([C:5]([C:6]([O:7][H:19])([H:17])[H:18])([H:15])[H:16])[H:13])([H:11])[H:12])([H:8])([H:9])[H:10]>>[C:1]([C:2](/[C:3](=[C:5](/[C:6]([O:7][H:19])([H:17])[H:18])[H:15])[H:13])([H:11])[H:12])([H:8])([H:9])[H:10].[O:4]([H:14])[H:16]"
C        2.59109674      -0.53934848       0.48438339
C        1.54047839      -0.22606197      -0.56782286
C        0.13717416      -0.16128217      -0.05763523
O        0.23736549       1.22716780       1.17849171
C       -0.90071793       0.46323395      -0.80282084
C       -2.31150508      -0.01683442      -0.61771118
O       -2.62102530       0.01436584       0.77756991
H        3.58147604      -0.61956580       0.03349734
H        2.61338279       0.24662052       1.23904187
H        2.37625259      -1.48646547       0.98551250
H        1.53327799      -1.00624846      -1.33931448
H        1.77090183       0.70989333      -1.08272125
H       -0.13983543      -0.94248116       0.64804927
H       -0.32904920       0.97539094       1.91877145
H       -0.64113782       0.83457039      -1.78961323
H       -0.53429293       1.37574190       0.24312091
H       -2.45737124      -1.04276278      -0.98959095
H       -2.99327707       0.63337755      -1.17794813
H       -3.45319409      -0.43931142       0.91673986
19
Frame=1 idx=006355 GeodesicLength=0.07241229833621816 rxn_smarts="[C:1]([C:2]([C@@:3]([O:4][H:14])([C:5]([C:6]([O:7][H:19])([H:17])[H:18])([H:15])[H:16])[H:13])([H:11])[H:12])([H:8])([H:9])[H:10]>>[C:1]([C:2](/[C:3](=[C:5](/[C:6]([O:7][H:19])([H:17])[H:18])[H:15])[H:13])([H:11])[H:12])([H:8])([H:9])[H:10].[O:4]([H:14])[H:16]"
C        2.59607158      -0.53504583       0.48311460
C        1.54450278      -0.23001864      -0.57092655
C        0.14135662      -0.16536356      -0.05809546
O        0.21863178       1.22170234       1.19907310
C       -0.89548930       0.45942048      -0.80525180
C       -2.30915199      -0.01003708      -0.61155556
O       -2.61061414       0.00963484       0.78521011
H        3.58643373      -0.61778485       0.03252871
H        2.61994738       0.25663615       1.23180766
H        2.38241188      -1.47854474       0.99147163
H        1.54125903      -1.01385024      -1.33856511
H        1.77419771       0.70398204      -1.08987518
H       -0.13629679      -0.95811982       0.63470660
H       -0.37791748       0.95730555       1.91099677
H       -0.63975433       0.81079789      -1.80049714
H       -0.53105875       1.39664504       0.23567849
H       -2.46482911      -1.03042981      -0.99388953
H       -2.98899197       0.65220854      -1.16011931
H       -3.45070863      -0.42913829       0.92418795
19
Frame=2 idx=006355 GeodesicLength=0.14478687390621142 rxn_smarts="[C:1]([C:2]([C@@:3]([O:4][H:14])([C:5]([C:6]([O:7][H:19])([H:17])[H:18])([H:15])[H:16])[H:13])([H:11])[H:12])([H:8])([H:9])[H:10]>>[C:1]([C:2](/[C:3](=[C:5](/[C:6]([O:7][H:19])([H:17])[H:18])[H:15])[H:13])([H:11])[H:12])([H:8])([H:9])[H:10].[O:4]([H:14])[H:16]"
C        2.60093742      -0.53064551       0.48174817
C        1.54828305      -0.23439902      -0.57408252
C        0.14544930      -0.16946851      -0.05820343
O        0.19962556       1.21652545       1.21944722
C       -0.89023861       0.45613239      -0.80709690
C       -2.30660899      -0.00323592      -0.60561983
O       -2.60071595       0.00406886       0.79234605
H        3.59122901      -0.61611024       0.03140027
H        2.62640223       0.26706955       1.22404352
H        2.38851158      -1.47022251       0.99778059
H        1.54869157      -1.02225350      -1.33741962
H        1.77728446       0.69729317      -1.09765972
H       -0.13287901      -0.97331887       0.62181392
H       -0.42475925       0.93981178       1.90256816
H       -0.63848962       0.78777724      -1.81028844
H       -0.52829591       1.41743897       0.22956775
H       -2.47179218      -1.01773868      -0.99886556
H       -2.98418905       0.67106400      -1.14237401
H       -3.44844562      -0.41978865       0.93089440
19
Frame=3 idx=006355 GeodesicLength=0.2171211475254684 rxn_smarts="[C:1]([C:2]([C@@:3]([O:4][H:14])([C:5]([C:6]([O:7][H:19])([H:17])[H:18])([H:15])[H:16])[H:13])([H:11])[H:12])([H:8])([H:9])[H:10]>>[C:1]([C:2](/[C:3](=[C:5](/[C:6]([O:7][H:19])([H:17])[H:18])[H:15])[H:13])([H:11])[H:12])([H:8])([H:9])[H:10].[O:4]([H:14])[H:16]"
C        2.60570311      -0.52615784       0.48027622
C        1.55184045      -0.23918100      -0.57728856
C        0.14946584      -0.17358784      -0.05797974
O        0.18035091       1.21162248       1.23964895
C       -0.88495306       0.45332890      -0.80841173
C       -2.30388408       0.00354451      -0.59989687
O       -2.59131281      -0.00225325       0.79897682
H        3.59587563      -0.61453585       0.03011653
H        2.63274740       0.27787192       1.21576237
H        2.39455879      -1.46151673       1.00438955
H        1.55561883      -1.03140505      -1.33589833
H        1.78018461       0.68986066      -1.10603128
H       -0.12958178      -0.98810265       0.60933316
H       -0.46968376       0.92284564       1.89360627
H       -0.63732612       0.76549389      -1.81905551
H       -0.52603219       1.43818370       0.22470004
H       -2.47827145      -1.00472394      -1.00443977
H       -2.97890305       0.68986499      -1.12471992
H       -3.44639727      -0.41115254       0.93691181
19
Frame=4 idx=006355 GeodesicLength=0.28940620705647874 rxn_smarts="[C:1]([C:2]([C@@:3]([O:4][H:14])([C:5]([C:6]([O:7][H:19])([H:17])[H:18])([H:15])[H:16])[H:13])([H:11])[H:12])([H:8])([H:9])[H:10]>>[C:1]([C:2](/[C:3](=[C:5](/[C:6]([O:7][H:19])([H:17])[H:18])[H:15])[H:13])([H:11])[H:12])([H:8])([H:9])[H:10].[O:4]([H:14])[H:16]"
C        2.61037648      -0.52159495       0.47869245
C        1.55519404      -0.24434552      -0.58054100
C        0.15341823      -0.17771650      -0.05744374
O        0.16080781       1.20697706       1.25970304
C       -0.87962076       0.45097294      -0.80924418
C       -2.30098476       0.01028567      -0.59437986
O       -2.58238543      -0.00925937       0.80510806
H        3.60038637      -0.61305392       0.02868358
H        2.63898002       0.28899355       1.20698066
H        2.40056184      -1.45244908       1.01124926
H        1.56208149      -1.04125476      -1.33402026
H        1.78291713       0.68171530      -1.11494589
H       -0.12640348      -1.00249373       0.59723166
H       -0.51280043       0.90636496       1.88420825
H       -0.63624644       0.74393498      -1.82686140
H       -0.52429128       1.45893443       0.22099475
H       -2.48427868      -0.99141721      -1.01054515
H       -2.97316600       0.70854977      -1.10716684
H       -3.44454613      -0.40314363       0.94229661
19
Frame=5 idx=006355 GeodesicLength=0.3616493424260496 rxn_smarts="[C:1]([C:2]([C@@:3]([O:4][H:14])([C:5]([C:6]([O:7][H:19])([H:17])[H:18])([H:15])[H:16])[H:13])([H:11])[H:12])([H:8])([H:9])[H:10]>>[C:1]([C:2](/[C:3](=[C:5](/[C:6]([O:7][H:19])([H:17])[H:18])[H:15])[H:13])([H:11])[H:12])([H:8])([H:9])[H:10].[O:4]([H:14])[H:16]"
C        2.61496687      -0.51696872       0.47698852
C        1.55836246      -0.24987431      -0.58383369
C        0.15731822      -0.18185308      -0.05661275
O        0.14098611       1.20256950       1.27963862
C       -0.87423044       0.44902758      -0.80963640
C       -2.29791742       0.01696895      -0.58906025
O       -2.57391384      -0.01688425       0.81074182
H        3.60477612      -0.61165325       0.02710149
H        2.64509930       0.30038371       1.19771584
H        2.40653369      -1.44304293       1.01830744
H        1.56812016      -1.05175052      -1.33179885
H        1.78549762       0.67288549      -1.12435469
H       -0.12334043      -1.01651555       0.58547957
H       -0.55422213       0.89033691       1.87444937
H       -0.63523177       0.72308284      -1.83376511
H       -0.52309173       1.47974200       0.21837117
H       -2.48982427      -0.97784643      -1.01711733
H       -2.96700743       0.72706319      -1.08971276
H       -3.44288107      -0.39567114       0.94709801
19
Frame=6 idx=006355 GeodesicLength=0.43384531523138015 rxn_smarts="[C:1]([C:2]([C@@:3]([O:4][H:14])([C:5]([C:6]([O:7][H:19])([H:17])[H:18])([H:15])[H:16])[H:13])([H:11])[H:12])([H:8])([H:9])[H:10]>>[C:1]([C:2](/[C:3](=[C:5](/[C:6]([O:7][H:19])([H:17])[H:18])[H:15])[H:13])([H:11])[H:12])([H:8])([H:9])[H:10].[O:4]([H:14])[H:16]"
C        2.61948242      -0.51229253       0.47515909
C        1.56136052      -0.25575321      -0.58716160
C        0.16117645      -0.18599666      -0.05550124
O        0.12088240       1.19838230       1.29947450
C       -0.86877203       0.44746222      -0.80962201
C       -2.29468743       0.02358312      -0.58393122
O       -2.56587795      -0.02507090       0.81588592
H        3.60905703      -0.61032728       0.02537409
H        2.65110422       0.31199556       1.18798379
H        2.41248415      -1.43332251       1.02551982
H        1.57376728      -1.06284961      -1.32925028
H        1.78793842       0.66339608      -1.13421619
H       -0.12038843      -1.03018695       0.57405319
H       -0.59405599       0.87474939       1.86438738
H       -0.63426507       0.70292954      -1.83981666
H       -0.52245750       1.50065028       0.21676655
H       -2.49491529      -0.96403756      -1.02410322
H       -2.96045590       0.74536321      -1.07236695
H       -3.44137731      -0.38867448       0.95136506
19
Frame=7 idx=006355 GeodesicLength=0.5059921138922233 rxn_smarts="[C:1]([C:2]([C@@:3]([O:4][H:14])([C:5]([C:6]([O:7][H:19])([H:17])[H:18])([H:15])[H:16])[H:13])([H:11])[H:12])([H:8])([H:9])[H:10]>>[C:1]([C:2](/[C:3](=[C:5](/[C:6]([O:7][H:19])([H:17])[H:18])[H:15])[H:13])([H:11])[H:12])([H:8])([H:9])[H:10].[O:4]([H:14])[H:16]"
C        2.62393105      -0.50757787       0.47319883
C        1.56420423      -0.26196671      -0.59051846
C        0.16500249      -0.19015016      -0.05412426
O        0.10047910       1.19439758       1.31922667
C       -0.86323632       0.44624606      -0.80923209
C       -2.29130011       0.03011782      -0.57898432
O       -2.55825496      -0.03376200       0.82054608
H        3.61324220      -0.60906455       0.02350421
H        2.65699086       0.32378335       1.17780464
H        2.41842620      -1.42331173       1.03284056
H        1.57906050      -1.07450677      -1.32638787
H        1.79025040       0.65327434      -1.14448519
H       -0.11754326      -1.04353187       0.56292634
H       -0.63240304       0.85958131       1.85406795
H       -0.63332970       0.68345741      -1.84506408
H       -0.52240382       1.52169701       0.21611395
H       -2.49956328      -0.95001031      -1.03144796
H       -2.95353928       0.76340966      -1.05512909
H       -3.44001325      -0.38208257       0.95514406
19
Frame=8 idx=006355 GeodesicLength=0.5780916629685866 rxn_smarts="[C:1]([C:2]([C@@:3]([O:4][H:14])([C:5]([C:6]([O:7][H:19])([H:17])[H:18])([H:15])[H:16])[H:13])([H:11])[H:12])([H:8])([H:9])[H:10]>>[C:1]([C:2](/[C:3](=[C:5](/[C:6]([O:7][H:19])([H:17])[H:18])[H:15])[H:13])([H:11])[H:12])([H:8])([H:9])[H:10].[O:4]([H:14])[H:16]"
C        2.62832038      -0.50283836       0.47110467
C        1.56690984      -0.26850167      -0.59390003
C        0.16880562      -0.19431833      -0.05249615
O        0.07975566       1.19059909       1.33891077
C       -0.85761590       0.44535127      -0.80849223
C       -2.28776114       0.03656390      -0.57421095
O       -2.55102240      -0.04291046       0.82473558
H        3.61734336      -0.60785390       0.02149693
H        2.66275396       0.33569926       1.16720201
H        2.42437202      -1.41303851       1.04022628
H        1.58403801      -1.08668145      -1.32323098
H        1.79244566       0.64254737      -1.15512067
H       -0.11479938      -1.05657049       0.55207939
H       -0.66935199       0.84483342       1.84351517
H       -0.63241257       0.66465559      -1.84955049
H       -0.52295393       1.54291349       0.21635868
H       -2.50377761      -0.93578530      -1.03910652
H       -2.94628303       0.78117097      -1.03800514
H       -3.43876655      -0.37583588       0.95848367
19
Frame=9 idx=006355 GeodesicLength=0.6501586051834441 rxn_smarts="[C:1]([C:2]([C@@:3]([O:4][H:14])([C:5]([C:6]([O:7][H:19])([H:17])[H:18])([H:15])[H:16])[H:13])([H:11])[H:12])([H:8])([H:9])[H:10]>>[C:1]([C:2](/[C:3](=[C:5](/[C:6]([O:7][H:19])([H:17])[H:18])[H:15])[H:13])([H:11])[H:12])([H:8])([H:9])[H:10].[O:4]([H:14])[H:16]"
C        2.63267643      -0.49809300       0.46883017
C        1.56945846      -0.27537182      -0.59728677
C        0.17259796      -0.19846116      -0.05057063
O        0.05881462       1.18701942       1.35857818
C       -0.85189436       0.44477397      -0.80737735
C       -2.28405068       0.04291696      -0.56962718
O       -2.54419214      -0.05251953       0.82839680
H        3.62136640      -0.60676724       0.01926202
H        2.66849542       0.34774180       1.15609037
H        2.43034009      -1.40248830       1.04766222
H        1.58864324      -1.09937957      -1.31973305
H        1.79449037       0.63116504      -1.16611101
H       -0.11214893      -1.06925309       0.54158150
H       -0.70510600       0.83054540       1.83283108
H       -0.63145820       0.64655796      -1.85326268
H       -0.52419905       1.56435360       0.21752393
H       -2.50749860      -0.92137291      -1.04709192
H       -2.93869107       0.79862275      -1.02102824
H       -3.43764395      -0.36999029       0.96133255
19
Frame=10 idx=006355 GeodesicLength=0.7222008089138187 rxn_smarts="[C:1]([C:2]([C@@:3]([O:4][H:14])([C:5]([C:6]([O:7][H:19])([H:17])[H:18])([H:15])[H:16])[H:13])([H:11])[H:12])([H:8])([H:9])[H:10]>>[C:1]([C:2](/[C:3](=[C:5](/[C:6]([O:7][H:19])([H:17])[H:18])[H:15])[H:13])([H:11])[H:12])([H:8])([H:9])[H:10].[O:4]([H:14])[H:16]"
C        2.63698972      -0.49334250       0.46640990
C        1.57189025      -0.28254500      -0.60068519
C        0.17638335      -0.20262353      -0.04841177
O        0.03752898       1.18360362       1.37820637
C       -0.84607219       0.44447143      -0.80595178
C       -2.28019390       0.04917134      -0.56520512
O       -2.53771385      -0.06248522       0.83159835
H        3.62532524      -0.60572648       0.01688275
H        2.67412345       0.35984684       1.14457093
H        2.43633574      -1.39170841       1.05509945
H        1.59298246      -1.11253232      -1.31595562
H        1.79643002       0.61921054      -1.17739905
H       -0.10959220      -1.08166122       0.53133500
H       -0.73966207       0.81662749       1.82198687
H       -0.63048446       0.62911351      -1.85628686
H       -0.52608693       1.58603551       0.21947501
H       -2.51079234      -0.90679451      -1.05531141
H       -2.93080435       0.81574129      -1.00417352
H       -3.43658693      -0.36440238       0.96381568
19
Frame=11 idx=006355 GeodesicLength=0.7942360404999769 rxn_smarts="[C:1]([C:2]([C@@:3]([O:4][H:14])([C:5]([C:6]([O:7][H:19])([H:17])[H:18])([H:15])[H:16])[H:13])([H:11])[H:12])([H:8])([H:9])[H:10]>>[C:1]([C:2](/[C:3](=[C:5](/[C:6]([O:7][H:19])([H:17])[H:18])[H:15])[H:13])([H:11])[H:12])([H:8])([H:9])[H:10].[O:4]([H:14])[H:16]"
C        2.64126720      -0.48859438       0.46383774
C        1.57421177      -0.29001570      -0.60408700
C        0.18016793      -0.20680950      -0.04602645
O        0.01588620       1.18034634       1.39780081
C       -0.84014074       0.44442486      -0.80422957
C       -2.27619209       0.05532440      -0.56094011
O       -2.53157134      -0.07275817       0.83434410
H        3.62922756      -0.60473174       0.01435292
H        2.67964544       0.37199124       1.13264466
H        2.44237034      -1.38070820       1.06251439
H        1.59707362      -1.12611416      -1.31189880
H        1.79826458       0.60669124      -1.18895315
H       -0.10712622      -1.09380785       0.52132927
H       -0.77310612       0.80303497       1.81101717
H       -0.62946676       0.61232582      -1.85865666
H       -0.52863719       1.60799810       0.22216038
H       -2.51365883      -0.89206840      -1.06373140
H       -2.92264157       0.83250859      -0.98744576
H       -3.43557380      -0.35903746       0.96596746
19
Frame=12 idx=006355 GeodesicLength=0.866271213789641 rxn_smarts="[C:1]([C:2]([C@@:3]([O:4][H:14])([C:5]([C:6]([O:7][H:19])([H:17])[H:18])([H:15])[H:16])[H:13])([H:11])[H:12])([H:8])([H:9])[H:10]>>[C:1]([C:2](/[C:3](=[C:5](/[C:6]([O:7][H:19])([H:17])[H:18])[H:15])[H:13])([H:11])[H:12])([H:8])([H:9])[H:10].[O:4]([H:14])[H:16]"
C        2.64551558      -0.48385931       0.46110790
C        1.57642871      -0.29777944      -0.60748519
C        0.18395792      -0.21101942      -0.04341821
O       -0.00612281       1.17724430       1.41736814
C       -0.83409315       0.44462026      -0.80221987
C       -2.27204555       0.06137612      -0.55682851
O       -2.52574789      -0.08329566       0.83664229
H        3.63307988      -0.60378936       0.01166603
H        2.68507120       0.38414989       1.12031249
H        2.44845204      -1.36950082       1.06988524
H        1.60093047      -1.14010480      -1.30756536
H        1.79999487       0.59361461      -1.20074721
H       -0.10474832      -1.10570072       0.51155994
H       -0.80552116       0.78975456       1.79994654
H       -0.62838572       0.59620036      -1.86039657
H       -0.53187580       1.63027268       0.22553726
H       -2.51609343      -0.87720755      -1.07232488
H       -2.91422166       0.84891260      -0.97085286
H       -3.43457516      -0.35388829       0.96781284
19
Frame=13 idx=006355 GeodesicLength=0.9383225403260236 rxn_smarts="[C:1]([C:2]([C@@:3]([O:4][H:14])([C:5]([C:6]([O:7][H:19])([H:17])[H:18])([H:15])[H:16])[H:13])([H:11])[H:12])([H:8])([H:9])[H:10]>>[C:1]([C:2](/[C:3](=[C:5](/[C:6]([O:7][H:19])([H:17])[H:18])[H:15])[H:13])([H:11])[H:12])([H:8])([H:9])[H:10].[O:4]([H:14])[H:16]"
C        2.64974200      -0.47914659       0.45821344
C        1.57854687      -0.30583231      -0.61087131
C        0.18775862      -0.21525605      -0.04059045
O       -0.02851715       1.17429134       1.43691885
C       -0.82792312       0.44504234      -0.79993072
C       -2.26775532       0.06732594      -0.55286516
O       -2.52022731      -0.09405487       0.83849953
H        3.63688885      -0.60290335       0.00881131
H        2.69041146       0.39629961       1.10757503
H        2.45459234      -1.35809718       1.07719010
H        1.60456889      -1.15448276      -1.30295402
H        1.80162062       0.57998771      -1.21275204
H       -0.10245679      -1.11734948       0.50202325
H       -0.83697808       0.77676470       1.78879159
H       -0.62722052       0.58074237      -1.86153232
H       -0.53582750       1.65289031       0.22956569
H       -2.51809380      -0.86222433      -1.08106469
H       -2.90556239       0.86493919      -0.95440354
H       -3.43356766      -0.34893660       0.96937547
19
Frame=14 idx=006355 GeodesicLength=1.010396512809515 rxn_smarts="[C:1]([C:2]([C@@:3]([O:4][H:14])([C:5]([C:6]([O:7][H:19])([H:17])[H:18])([H:15])[H:16])[H:13])([H:11])[H:12])([H:8])([H:9])[H:10]>>[C:1]([C:2](/[C:3](=[C:5](/[C:6]([O:7][H:19])([H:17])[H:18])[H:15])[H:13])([H:11])[H:12])([H:8])([H:9])[H:10].[O:4]([H:14])[H:16]"
C        2.65395306      -0.47446762       0.45514939
C        1.58057183      -0.31417022      -0.61423886
C        0.19157578      -0.21952071      -0.03754567
O       -0.05130735       1.17148675       1.45645596
C       -0.82162420       0.44567959      -0.79736677
C       -2.26332128       0.07317474      -0.54904632
O       -2.51499307      -0.10499483       0.83992546
H        3.64066042      -0.60207957       0.00578299
H        2.69567516       0.40841466       1.09443536
H        2.46080006      -1.34651284       1.08440699
H        1.60800202      -1.16922888      -1.29806950
H        1.80314247       0.56581907      -1.22494200
H       -0.10024873      -1.12876076       0.49271768
H       -0.86754893       0.76405657       1.77756814
H       -0.62595222       0.56595806      -1.86208784
H       -0.54052164       1.67588012       0.23420928
H       -2.51965484      -0.84713358      -1.08992561
H       -2.89668135       0.88058017      -0.93810638
H       -3.43252719      -0.34418071       0.97067770
19
Frame=15 idx=006355 GeodesicLength=1.0825016068549334 rxn_smarts="[C:1]([C:2]([C@@:3]([O:4][H:14])([C:5]([C:6]([O:7][H:19])([H:17])[H:18])([H:15])[H:16])[H:13])([H:11])[H:12])([H:8])([H:9])[H:10]>>[C:1]([C:2](/[C:3](=[C:5](/[C:6]([O:7][H:19])([H:17])[H:18])[H:15])[H:13])([H:11])[H:12])([H:8])([H:9])[H:10].[O:4]([H:14])[H:16]"
C        2.65815633      -0.46983313       0.45190811
C        1.58250736      -0.32279136      -0.61757919
C        0.19541472      -0.22381400      -0.03428358
O       -0.07450577       1.16882919       1.47598726
C       -0.81519011       0.44652173      -0.79452980
C       -2.25874292       0.07892370      -0.54536903
O       -2.51003087      -0.11608009       0.84092601
H        3.64439991      -0.60132779       0.00256738
H        2.70087799       0.42047416       1.08088986
H        2.46708586      -1.33475902       1.09151741
H        1.61123928      -1.18432703      -1.29290930
H        1.80455850       0.55111215      -1.23729193
H       -0.09812236      -1.13993876       0.48364664
H       -0.89729848       0.75162467       1.76628538
H       -0.62455978       0.55185675      -1.86208240
H       -0.54599027       1.69927101       0.23944014
H       -2.52077001      -0.83194591      -1.09888718
H       -2.88759441       0.89582728      -0.92196846
H       -3.43143498      -0.33962357       0.97173267
19
Frame=16 idx=006355 GeodesicLength=1.1546477324297217 rxn_smarts="[C:1]([C:2]([C@@:3]([O:4][H:14])([C:5]([C:6]([O:7][H:19])([H:17])[H:18])([H:15])[H:16])[H:13])([H:11])[H:12])([H:8])([H:9])[H:10]>>[C:1]([C:2](/[C:3](=[C:5](/[C:6]([O:7][H:19])([H:17])[H:18])[H:15])[H:13])([H:11])[H:12])([H:8])([H:9])[H:10].[O:4]([H:14])[H:16]"
C        2.66235886      -0.46525605       0.44848297
C        1.58435750      -0.33169169      -0.62088410
C        0.19928073      -0.22813572      -0.03080385
O       -0.09812576       1.16631906       1.49551799
C       -0.80861511       0.44755997      -0.79142051
C       -2.25401952       0.08457384      -0.54182898
O       -2.50532601      -0.12727182       0.84151216
H        3.64811323      -0.60065603      -0.00084709
H        2.70603194       0.43245102       1.06694148
H        2.47346014      -1.32285361       1.09849879
H        1.61429007      -1.19975836      -1.28747453
H        1.80586733       0.53587433      -1.24977532
H       -0.09607525      -1.15088624       0.47481462
H       -0.92628367       0.73946756       1.75495211
H       -0.62302395       0.53844606      -1.86153669
H       -0.55226860       1.72309357       0.24522709
H       -2.52143132      -0.81667569      -1.10792762
H       -2.87831866       0.91067236      -0.90600305
H       -3.43027195      -0.33527256       0.97255455
