13
Frame=0 idx=002039 GeodesicLength=0.0 rxn_smarts="[O:1]=[C:2]1[C:3]([H:7])([H:8])[C:4]([H:9])([H:10])[C:5]([H:11])([H:12])[N:6]1[H:13]>>[O:1](/[C:2]([C:3]([C:4](=[C:5]([H:11])[H:12])[H:10])([H:7])[H:8])=[N:6]\[H:13])[H:9]"
O        0.88522963       0.15459435      -1.77466609
C        1.08093678       0.38522858      -0.54793259
C        0.78922300      -0.83352493       0.31702108
C       -0.72328397      -0.78753238       0.05335387
C       -1.32827869       0.33042924       0.64155653
N        1.10325204       1.53835800       0.06109577
H        1.23779221      -1.73307586      -0.09707119
H        1.03997408      -0.71564056       1.36970506
H       -0.62950594      -0.48082653      -1.09472876
H       -1.35207889      -1.68038558      -0.01771068
H       -2.36786967       0.57027817       0.43775405
H       -0.77129348       0.98497471       1.30154171
H        1.03590286       2.26712276      -0.64991875
13
Frame=1 idx=002039 GeodesicLength=0.08062200162961645 rxn_smarts="[O:1]=[C:2]1[C:3]([H:7])([H:8])[C:4]([H:9])([H:10])[C:5]([H:11])([H:12])[N:6]1[H:13]>>[O:1](/[C:2]([C:3]([C:4](=[C:5]([H:11])[H:12])[H:10])([H:7])[H:8])=[N:6]\[H:13])[H:9]"
O        0.89144035       0.16207390      -1.77749140
C        1.08846329       0.38383714      -0.54734809
C        0.78938683      -0.83754766       0.31166216
C       -0.72420142      -0.78849958       0.05821596
C       -1.31968547       0.34607373       0.62716043
N        1.07607276       1.53509337       0.06645584
H        1.23243734      -1.73608054      -0.11163819
H        1.05555694      -0.73185583       1.36151453
H       -0.62602735      -0.49366249      -1.11260681
H       -1.34854178      -1.68594189       0.03160365
H       -2.35446583       0.59337781       0.40754867
H       -0.78531568       0.98210655       1.32255968
H        1.02488003       2.27102550      -0.63763643
13
Frame=2 idx=002039 GeodesicLength=0.16120746214452233 rxn_smarts="[O:1]=[C:2]1[C:3]([H:7])([H:8])[C:4]([H:9])([H:10])[C:5]([H:11])([H:12])[N:6]1[H:13]>>[O:1](/[C:2]([C:3]([C:4](=[C:5]([H:11])[H:12])[H:10])([H:7])[H:8])=[N:6]\[H:13])[H:9]"
O        0.89740391       0.16988470      -1.78018090
C        1.09589655       0.38257155      -0.54665978
C        0.78940599      -0.84156262       0.30617611
C       -0.72528612      -0.78959197       0.06321843
C       -1.31108740       0.36098820       0.61325751
N        1.04989487       1.53115689       0.07162071
H        1.22675497      -1.73895787      -0.12653884
H        1.07119811      -0.74826998       1.35280450
H       -0.62263984      -0.50601795      -1.13057058
H       -1.34425840      -1.69002963       0.08221479
H       -2.34105899       0.61474989       0.37805230
H       -0.80109967       0.98024581       1.34104840
H        1.01487601       2.27483299      -0.62444264
13
Frame=3 idx=002039 GeodesicLength=0.2417735557264466 rxn_smarts="[O:1]=[C:2]1[C:3]([H:7])([H:8])[C:4]([H:9])([H:10])[C:5]([H:11])([H:12])[N:6]1[H:13]>>[O:1](/[C:2]([C:3]([C:4](=[C:5]([H:11])[H:12])[H:10])([H:7])[H:8])=[N:6]\[H:13])[H:9]"
O        0.90312864       0.17800640      -1.78273204
C        1.10321771       0.38140625      -0.54586828
C        0.78927775      -0.84559073       0.30055616
C       -0.72654254      -0.79083627       0.06839952
C       -1.30253599       0.37517906       0.59981493
N        1.02469370       1.52658718       0.07661518
H        1.22072388      -1.74171457      -0.14178407
H        1.08691710      -0.76493601       1.34353814
H       -0.61933931      -0.51790264      -1.14865533
H       -1.33911727      -1.69261462       0.13413880
H       -2.32767968       0.63448571       0.34912695
H       -0.81851465       0.97940944       1.35716027
H        1.00577066       2.27852078      -0.61031023
13
Frame=4 idx=002039 GeodesicLength=0.3223152965567548 rxn_smarts="[O:1]=[C:2]1[C:3]([H:7])([H:8])[C:4]([H:9])([H:10])[C:5]([H:11])([H:12])[N:6]1[H:13]>>[O:1](/[C:2]([C:3]([C:4](=[C:5]([H:11])[H:12])[H:10])([H:7])[H:8])=[N:6]\[H:13])[H:9]"
O        0.90862678       0.18641349      -1.78514114
C        1.11041155       0.38031553      -0.54497300
C        0.78900163      -0.84965194       0.29480407
C       -0.72797391      -0.79226324       0.07380201
C       -1.29407256       0.38866084       0.58680537
N        1.00043492       1.52142122       0.08145836
H        1.21432804      -1.74436105      -0.15737407
H        1.10272741      -0.78189347       1.33368778
H       -0.61611785      -0.52933670      -1.16688511
H       -1.33301653      -1.69362379       0.18733454
H       -2.31435069       0.65266600       0.32066867
H       -0.83744688       0.97959106       1.37104521
H        0.99744808       2.28206205      -0.59523268
13
Frame=5 idx=002039 GeodesicLength=0.4028562684505227 rxn_smarts="[O:1]=[C:2]1[C:3]([H:7])([H:8])[C:4]([H:9])([H:10])[C:5]([H:11])([H:12])[N:6]1[H:13]>>[O:1](/[C:2]([C:3]([C:4](=[C:5]([H:11])[H:12])[H:10])([H:7])[H:8])=[N:6]\[H:13])[H:9]"
O        0.91388738       0.19508294      -1.78739759
C        1.11745789       0.37927344      -0.54396819
C        0.78857695      -0.85376527       0.28892577
C       -0.72957773      -0.79389612       0.07950148
C       -1.28573248       0.40144129       0.57421937
N        0.97707996       1.51569628       0.08617706
H        1.20753176      -1.74690682      -0.17331639
H        1.11866610      -0.79918550       1.32322051
H       -0.61297846      -0.54034346      -1.18527365
H       -1.32584993      -1.69297690       0.24174437
H       -2.30106282       0.66935390       0.29255375
H       -0.85781211       0.98079104       1.38280393
H        0.98981348       2.28543518      -0.57919043
13
Frame=6 idx=002039 GeodesicLength=0.48339031346718847 rxn_smarts="[O:1]=[C:2]1[C:3]([H:7])([H:8])[C:4]([H:9])([H:10])[C:5]([H:11])([H:12])[N:6]1[H:13]>>[O:1](/[C:2]([C:3]([C:4](=[C:5]([H:11])[H:12])[H:10])([H:7])[H:8])=[N:6]\[H:13])[H:9]"
O        0.91892203       0.20398735      -1.78949154
C        1.12434938       0.37825642      -0.54285029
C        0.78800740      -0.85794593       0.28293084
C       -0.73135059      -0.79575232       0.08555643
C       -1.27753622       0.41354305       0.56203606
N        0.95458341       1.50943885       0.09078773
H        1.20032010      -1.74936075      -0.18960060
H        1.13474716      -0.81683713       1.31211080
H       -0.60990620      -0.55095181      -1.20383389
H       -1.31754318      -1.69058878       0.29725290
H       -2.28783208       0.68460381       0.26471988
H       -0.87952006       0.98300997       1.39256972
H        0.98275885       2.28859729      -0.56218804
13
Frame=7 idx=002039 GeodesicLength=0.5639333817300839 rxn_smarts="[O:1]=[C:2]1[C:3]([H:7])([H:8])[C:4]([H:9])([H:10])[C:5]([H:11])([H:12])[N:6]1[H:13]>>[O:1](/[C:2]([C:3]([C:4](=[C:5]([H:11])[H:12])[H:10])([H:7])[H:8])=[N:6]\[H:13])[H:9]"
O        0.92371965       0.21310203      -1.79140733
C        1.13107003       0.37724352      -0.54161033
C        0.78729695      -0.86220917       0.27683390
C       -0.73328468      -0.79785231       0.09205621
C       -1.26950556       0.42498242       0.55025453
N        0.93289603       1.50267401       0.09531670
H        1.19266519      -1.75172943      -0.20622331
H        1.15099965      -0.83487617       1.30033199
H       -0.60690065      -0.56119406      -1.22256327
H       -1.30801090      -1.68635759       0.35371983
H       -2.27464383       0.69845776       0.23708304
H       -0.90249730       0.98624834       1.40043475
H        0.97619541       2.29151065      -0.54422672
13
Frame=8 idx=002039 GeodesicLength=0.644495362089724 rxn_smarts="[O:1]=[C:2]1[C:3]([H:7])([H:8])[C:4]([H:9])([H:10])[C:5]([H:11])([H:12])[N:6]1[H:13]>>[O:1](/[C:2]([C:3]([C:4](=[C:5]([H:11])[H:12])[H:10])([H:7])[H:8])=[N:6]\[H:13])[H:9]"
O        0.92826503       0.22240135      -1.79313257
C        1.13760838       0.37621209      -0.54024277
C        0.78645148      -0.86656534       0.27065903
C       -0.73536978      -0.80021302       0.09909966
C       -1.26165382       0.43578438       0.53888785
N        0.91197337       1.49542656       0.09977880
H        1.18454558      -1.75402177      -0.22316544
H        1.16744830      -0.85331811       1.28786750
H       -0.60396574      -0.57110245      -1.24144923
H       -1.29718727      -1.68022129       0.41093886
H       -2.26149372       0.71094853       0.20959559
H       -0.92666779       0.99052756       1.40646833
H        0.97004599       2.29414151      -0.52530560
13
Frame=9 idx=002039 GeodesicLength=0.7250765229899486 rxn_smarts="[O:1]=[C:2]1[C:3]([H:7])([H:8])[C:4]([H:9])([H:10])[C:5]([H:11])([H:12])[N:6]1[H:13]>>[O:1](/[C:2]([C:3]([C:4](=[C:5]([H:11])[H:12])[H:10])([H:7])[H:8])=[N:6]\[H:13])[H:9]"
O        0.93248049       0.23187800      -1.79465113
C        1.14395444       0.37514574      -0.53873386
C        0.78548548      -0.87100589       0.26446285
C       -0.73755202      -0.80276324       0.10689956
C       -1.25399997       0.44601603       0.52798346
N        0.89181625       1.48779590       0.10422367
H        1.17586728      -1.75626554      -0.24039979
H        1.18415338      -0.87214271       1.27472910
H       -0.60112919      -0.58070414      -1.26044475
H       -1.28509239      -1.67230088       0.46856034
H       -2.24841403       0.72197536       0.18234424
H       -0.95193942       0.99588098       1.41043998
H        0.96436968       2.29649039      -0.50541367
13
Frame=10 idx=002039 GeodesicLength=0.8056795599677979 rxn_smarts="[O:1]=[C:2]1[C:3]([H:7])([H:8])[C:4]([H:9])([H:10])[C:5]([H:11])([H:12])[N:6]1[H:13]>>[O:1](/[C:2]([C:3]([C:4](=[C:5]([H:11])[H:12])[H:10])([H:7])[H:8])=[N:6]\[H:13])[H:9]"
O        0.93642376       0.24150243      -1.79594635
C        1.15011123       0.37402978      -0.53708094
C        0.78438630      -0.87555383       0.25822530
C       -0.73983910      -0.80552959       0.11543388
C       -1.24655506       0.45566734       0.51748064
N        0.87234087       1.47974343       0.10865334
H        1.16662925      -1.75843758      -0.25792876
H        1.20107373      -0.89141918       1.26083573
H       -0.59835161      -0.59003523      -1.27959429
H       -1.27156656      -1.66237589       0.52663228
H       -2.23535574       0.73164455       0.15518110
H       -0.97831686       1.00226742       1.41267531
H        0.95901980       2.29849636      -0.48456723
13
Frame=11 idx=002039 GeodesicLength=0.8862812316348152 rxn_smarts="[O:1]=[C:2]1[C:3]([H:7])([H:8])[C:4]([H:9])([H:10])[C:5]([H:11])([H:12])[N:6]1[H:13]>>[O:1](/[C:2]([C:3]([C:4](=[C:5]([H:11])[H:12])[H:10])([H:7])[H:8])=[N:6]\[H:13])[H:9]"
O        0.94008229       0.25125974      -1.79700769
C        1.15607632       0.37285366      -0.53528085
C        0.78316458      -0.88021028       0.25196611
C       -0.74220574      -0.80849159       0.12479443
C       -1.23932154       0.46476629       0.50739693
N        0.85351668       1.47130158       0.11309232
H        1.15681040      -1.76053198      -0.27573337
H        1.21821921      -0.91115296       1.24616299
H       -0.59563245      -0.59911448      -1.29888960
H       -1.25661425      -1.65048418       0.58499781
H       -2.22228723       0.73998731       0.12807321
H       -1.00574783       1.00968568       1.41319201
H        0.95393956       2.30013120      -0.46276431
13
Frame=12 idx=002039 GeodesicLength=0.9668908921134164 rxn_smarts="[O:1]=[C:2]1[C:3]([H:7])([H:8])[C:4]([H:9])([H:10])[C:5]([H:11])([H:12])[N:6]1[H:13]>>[O:1](/[C:2]([C:3]([C:4](=[C:5]([H:11])[H:12])[H:10])([H:7])[H:8])=[N:6]\[H:13])[H:9]"
O        0.94344458       0.26114589      -1.79782192
C        1.16184553       0.37160856      -0.53332442
C        0.78181969      -0.88497984       0.24569695
C       -0.74462450      -0.81162286       0.13507474
C       -1.23231084       0.47333815       0.49773252
N        0.83530534       1.46249490       0.11757182
H        1.14636114      -1.76254282      -0.29381058
H        1.23559321      -0.93136533       1.23066943
H       -0.59296847      -0.60795575      -1.31833885
H       -1.24019482      -1.63661360       0.64357620
H       -2.20918032       0.74699129       0.10098018
H       -1.03420001       1.01812232       1.41197591
H        0.94910949       2.30137907      -0.43998198
13
Frame=13 idx=002039 GeodesicLength=1.047505163998717 rxn_smarts="[O:1]=[C:2]1[C:3]([H:7])([H:8])[C:4]([H:9])([H:10])[C:5]([H:11])([H:12])[N:6]1[H:13]>>[O:1](/[C:2]([C:3]([C:4](=[C:5]([H:11])[H:12])[H:10])([H:7])[H:8])=[N:6]\[H:13])[H:9]"
O        0.94651164       0.27115269      -1.79837982
C        1.16742011       0.37028834      -0.53120643
C        0.78035872      -0.88986110       0.23943852
C       -0.74706950      -0.81490105       0.14637036
C       -1.22552192       0.48141821       0.48849673
N        0.81767480       1.45334894       0.12211601
H        1.13525715      -1.76446069      -0.31213776
H        1.25318606      -0.95206250       1.21433044
H       -0.59035556      -0.61656712      -1.33794700
H       -1.22231029      -1.62080737       0.70222342
H       -2.19601863       0.75266864       0.07389864
H       -1.06362015       1.02756867       1.40902340
H        0.94448757       2.30221434      -0.41622651
13
Frame=14 idx=002039 GeodesicLength=1.128136780509861 rxn_smarts="[O:1]=[C:2]1[C:3]([H:7])([H:8])[C:4]([H:9])([H:10])[C:5]([H:11])([H:12])[N:6]1[H:13]>>[O:1](/[C:2]([C:3]([C:4](=[C:5]([H:11])[H:12])[H:10])([H:7])[H:8])=[N:6]\[H:13])[H:9]"
O        0.94928169       0.28128697      -1.79866604
C        1.17279880       0.36888727      -0.52891647
C        0.77877143      -0.89485709       0.23319564
C       -0.74951141      -0.81829347       0.15876791
C       -1.21897003       0.48902845       0.47967810
N        0.80059572       1.44388498       0.12675737
H        1.12342931      -1.76627659      -0.33071653
H        1.27097828      -0.97326974       1.19708575
H       -0.58778557      -0.62494752      -1.35774151
H       -1.20288411      -1.60303655       0.76092689
H       -2.18277782       0.75698531       0.04678314
H       -1.09399325       1.03799843       1.40430337
H        0.94006697       2.30260954      -0.39145763
13
Frame=15 idx=002039 GeodesicLength=1.2087835885428946 rxn_smarts="[O:1]=[C:2]1[C:3]([H:7])([H:8])[C:4]([H:9])([H:10])[C:5]([H:11])([H:12])[N:6]1[H:13]>>[O:1](/[C:2]([C:3]([C:4](=[C:5]([H:11])[H:12])[H:10])([H:7])[H:8])=[N:6]\[H:13])[H:9]"
O        0.95176579       0.29154624      -1.79866713
C        1.17798570       0.36740025      -0.52644445
C        0.77705295      -0.89996471       0.22698403
C       -0.75192080      -0.82176822       0.17236220
C       -1.21265887       0.49620413       0.47127404
N        0.78404168       1.43412478       0.13151958
H        1.11082915      -1.76797527      -0.34952616
H        1.28893769      -0.99499787       1.17889836
H       -0.58524862      -0.63308990      -1.37774366
H       -1.18188359      -1.58332104       0.81959155
H       -2.16944573       0.75992336       0.01963725
H       -1.12527258       1.04938246       1.39778523
H        0.93581722       2.30253577      -0.36567085
13
Frame=16 idx=002039 GeodesicLength=1.2894547503426919 rxn_smarts="[O:1]=[C:2]1[C:3]([H:7])([H:8])[C:4]([H:9])([H:10])[C:5]([H:11])([H:12])[N:6]1[H:13]>>[O:1](/[C:2]([C:3]([C:4](=[C:5]([H:11])[H:12])[H:10])([H:7])[H:8])=[N:6]\[H:13])[H:9]"
O        0.95396828       0.30194357      -1.79836824
C        1.18298088       0.36582147      -0.52377677
C        0.77518853      -0.90518879       0.22080991
C       -0.75426723      -0.82529252       0.18724966
C       -1.20660227       0.50296386       0.46327093
N        0.76798752       1.42409100       0.13643830
H        1.09737931      -1.76954814      -0.36856746
H        1.30702408      -1.01727851       1.15970789
H       -0.58273357      -0.64098301      -1.39798735
H       -1.15921458      -1.56159823       0.87821200
H       -2.15600774       0.76142497      -0.00756501
H       -1.15744115       1.06167337       1.38939805
H        0.93173795       2.30197097      -0.33882191
