12
Frame=0 idx=003698 GeodesicLength=0.0 rxn_smarts="[C:1]([C:2](=[O:3])[N:4](/[C:5](=[N:6]/[H:12])[H:11])[H:10])([H:7])([H:8])[H:9]>>[C:1](/[C:2]([O:3][H:12])=[N:4]\[H:10])([H:7])([H:8])[H:9].[C:5](#[N:6])[H:11]"
C       -1.78561302       0.51949394       0.21980633
C       -0.31877841       0.22637759       0.21691686
O        0.35829828       0.78027850       1.16955591
N        0.26670599      -0.52392754      -0.65772591
C        2.05662640      -0.75909505      -0.47093080
N        2.56670964      -0.20049733       0.44291766
H       -1.93240635       1.59868595       0.16976895
H       -2.29617242       0.04168421      -0.61431484
H       -2.21393428       0.16942582       1.15950583
H       -0.32462043      -0.92296406      -1.37186832
H        2.25457701      -1.41350296      -1.30920945
H        1.36860756       0.48404097       1.04557783
12
Frame=1 idx=003698 GeodesicLength=0.11211554806784624 rxn_smarts="[C:1]([C:2](=[O:3])[N:4](/[C:5](=[N:6]/[H:12])[H:11])[H:10])([H:7])([H:8])[H:9]>>[C:1](/[C:2]([O:3][H:12])=[N:4]\[H:10])([H:7])([H:8])[H:9].[C:5](#[N:6])[H:11]"
C       -1.79074797       0.52150417       0.21418468
C       -0.31904425       0.25227763       0.20342660
O        0.36146948       0.81278779       1.14854489
N        0.26502085      -0.52705557      -0.64994023
C        2.05250808      -0.81655856      -0.43073776
N        2.58258778      -0.25336925       0.47073050
H       -1.95502312       1.59830999       0.16864098
H       -2.29879257       0.03986602      -0.61967643
H       -2.21129955       0.15898338       1.15279242
H       -0.33131820      -0.95641463      -1.34234132
H        2.24708456      -1.32782748      -1.36435261
H        1.39755491       0.49749653       1.04872828
12
Frame=2 idx=003698 GeodesicLength=0.22290317587892944 rxn_smarts="[C:1]([C:2](=[O:3])[N:4](/[C:5](=[N:6]/[H:12])[H:11])[H:10])([H:7])([H:8])[H:9]>>[C:1](/[C:2]([O:3][H:12])=[N:4]\[H:10])([H:7])([H:8])[H:9].[C:5](#[N:6])[H:11]"
C       -1.79445055       0.52631211       0.20617194
C       -0.32123169       0.26598368       0.19606267
O        0.36301154       0.82843425       1.13576632
N        0.25890689      -0.54663332      -0.63155788
C        2.05331042      -0.84997993      -0.41296581
N        2.59310984      -0.31838745       0.50358097
H       -1.96510484       1.60190595       0.16170342
H       -2.30001471       0.04416159      -0.62892604
H       -2.21560004       0.15779142       1.14220870
H       -0.34261527      -1.00526586      -1.30023430
H        2.23976515      -1.22194160      -1.41223222
H        1.43091325       0.51761915       1.04042223
12
Frame=3 idx=003698 GeodesicLength=0.33423841892708783 rxn_smarts="[C:1]([C:2](=[O:3])[N:4](/[C:5](=[N:6]/[H:12])[H:11])[H:10])([H:7])([H:8])[H:9]>>[C:1](/[C:2]([O:3][H:12])=[N:4]\[H:10])([H:7])([H:8])[H:9].[C:5](#[N:6])[H:11]"
C       -1.79778015       0.53013867       0.19871861
C       -0.32220125       0.28407650       0.18258424
O        0.36872141       0.85648799       1.10982418
N        0.25320637      -0.56081748      -0.61886205
C        2.05512411      -0.87798829      -0.40345893
N        2.59926495      -0.39018653       0.53654122
H       -1.97917011       1.60365273       0.15063261
H       -2.30340289       0.04090477      -0.63226672
H       -2.21297922       0.15897845       1.13636201
H       -0.35435213      -1.05249831      -1.25785423
H        2.23166582      -1.11017773      -1.44631863
H        1.46190309       0.51742924       1.04409770
12
Frame=4 idx=003698 GeodesicLength=0.44678072885363784 rxn_smarts="[C:1]([C:2](=[O:3])[N:4](/[C:5](=[N:6]/[H:12])[H:11])[H:10])([H:7])([H:8])[H:9]>>[C:1](/[C:2]([O:3][H:12])=[N:4]\[H:10])([H:7])([H:8])[H:9].[C:5](#[N:6])[H:11]"
C       -1.80113234       0.53248735       0.19266970
C       -0.32257715       0.30510778       0.16403346
O        0.37708884       0.88975193       1.07570061
N        0.24823495      -0.56839164      -0.61327253
C        2.05677462      -0.90486223      -0.39779906
N        2.60034680      -0.46631047       0.56857211
H       -1.99672006       1.60312764       0.14108890
H       -2.30877475       0.03379226      -0.63160927
H       -2.20518630       0.15828220       1.13406170
H       -0.36533725      -1.09353662      -1.21897071
H        2.22440512      -1.00111660      -1.46390215
H        1.49287752       0.51166839       1.04942724
12
Frame=5 idx=003698 GeodesicLength=0.5591140835565614 rxn_smarts="[C:1]([C:2](=[O:3])[N:4](/[C:5](=[N:6]/[H:12])[H:11])[H:10])([H:7])([H:8])[H:9]>>[C:1](/[C:2]([O:3][H:12])=[N:4]\[H:10])([H:7])([H:8])[H:9].[C:5](#[N:6])[H:11]"
C       -1.80407286       0.53638264       0.18462980
C       -0.32407489       0.31983748       0.14977571
O        0.38338076       0.91186395       1.04916768
N        0.24234574      -0.57966450      -0.60435776
C        2.06077930      -0.92438056      -0.39931865
N        2.60519119      -0.52934911       0.58709350
H       -2.00808049       1.60510807       0.13019765
H       -2.31233513       0.03184860      -0.63573351
H       -2.20294161       0.15992683       1.12731926
H       -0.37673221      -1.13818216      -1.17333441
H        2.21242716      -0.89562009      -1.47241107
H        1.52411305       0.50222884       1.05697179
12
Frame=6 idx=003698 GeodesicLength=0.672549604578699 rxn_smarts="[C:1]([C:2](=[O:3])[N:4](/[C:5](=[N:6]/[H:12])[H:11])[H:10])([H:7])([H:8])[H:9]>>[C:1](/[C:2]([O:3][H:12])=[N:4]\[H:10])([H:7])([H:8])[H:9].[C:5](#[N:6])[H:11]"
C       -1.80721579       0.54095508       0.17532167
C       -0.32617620       0.33172491       0.13755982
O        0.38867389       0.92885157       1.02644061
N        0.23628668      -0.59141221      -0.59462788
C        2.06653055      -0.93898221      -0.40624878
N        2.61322333      -0.58593299       0.59679688
H       -2.01706372       1.60820726       0.11785131
H       -2.31527124       0.03169383      -0.64241835
H       -2.20388842       0.16299078       1.11839949
H       -0.38747694      -1.18349762      -1.12289839
H        2.19660073      -0.79362186      -1.47337492
H        1.55577713       0.48902347       1.06719854
12
Frame=7 idx=003698 GeodesicLength=0.7864495668540873 rxn_smarts="[C:1]([C:2](=[O:3])[N:4](/[C:5](=[N:6]/[H:12])[H:11])[H:10])([H:7])([H:8])[H:9]>>[C:1](/[C:2]([O:3][H:12])=[N:4]\[H:10])([H:7])([H:8])[H:9].[C:5](#[N:6])[H:11]"
C       -1.81075633       0.54482442       0.16640541
C       -0.32852956       0.34453949       0.12420581
O        0.39383332       0.94616771       1.00268464
N        0.23076662      -0.59892724      -0.58844792
C        2.07226025      -0.95219101      -0.41523038
N        2.62072001      -0.64134362       0.60277079
H       -2.02772509       1.61037548       0.10713352
H       -2.31860204       0.03091233      -0.64871620
H       -2.20394162       0.16400201       1.10983770
H       -0.39650635      -1.22389656      -1.07273270
H        2.18044528      -0.69938060      -1.46529604
H        1.58803551       0.47491759       1.07738537
12
Frame=8 idx=003698 GeodesicLength=0.9006671584070267 rxn_smarts="[C:1]([C:2](=[O:3])[N:4](/[C:5](=[N:6]/[H:12])[H:11])[H:10])([H:7])([H:8])[H:9]>>[C:1](/[C:2]([O:3][H:12])=[N:4]\[H:10])([H:7])([H:8])[H:9].[C:5](#[N:6])[H:11]"
C       -1.81471610       0.54848930       0.15729892
C       -0.33135161       0.35703332       0.11116952
O        0.39829841       0.96230163       0.97988093
N        0.22533493      -0.60474743      -0.58322792
C        2.07837867      -0.96312598      -0.42673928
N        2.62909617      -0.69426439       0.60398152
H       -2.03867467       1.61230913       0.09658380
H       -2.32194823       0.03015963      -0.65559632
H       -2.20483897       0.16443854       1.10075839
H       -0.40396388      -1.26085534      -1.02143971
H        2.16326141      -0.61126429      -1.45080801
H        1.62112388       0.45952587       1.08813816
12
Frame=9 idx=003698 GeodesicLength=1.0153091921132444 rxn_smarts="[C:1]([C:2](=[O:3])[N:4](/[C:5](=[N:6]/[H:12])[H:11])[H:10])([H:7])([H:8])[H:9]>>[C:1](/[C:2]([O:3][H:12])=[N:4]\[H:10])([H:7])([H:8])[H:9].[C:5](#[N:6])[H:11]"
C       -1.81913576       0.55178641       0.14829003
C       -0.33460048       0.37016994       0.09753372
O        0.40219908       0.97873597       0.95660844
N        0.22011336      -0.60798894      -0.58004736
C        2.08457619      -0.97243051      -0.44018580
N        2.63712405      -0.74667567       0.60185049
H       -2.05091928       1.61368315       0.08648741
H       -2.32558311       0.02874146      -0.66222552
H       -2.20547943       0.16402069       1.09181409
H       -0.40952554      -1.29414348      -0.96900870
H        2.14632916      -0.52868102      -1.43037120
H        1.65490176       0.44278200       1.09925441
12
Frame=10 idx=003698 GeodesicLength=1.1301596714096407 rxn_smarts="[C:1]([C:2](=[O:3])[N:4](/[C:5](=[N:6]/[H:12])[H:11])[H:10])([H:7])([H:8])[H:9]>>[C:1](/[C:2]([O:3][H:12])=[N:4]\[H:10])([H:7])([H:8])[H:9].[C:5](#[N:6])[H:11]"
C       -1.82401267       0.55529748       0.13844827
C       -0.33846072       0.38226397       0.08546637
O        0.40483826       0.99312981       0.93606729
N        0.21464420      -0.61136040      -0.57556979
C        2.09130183      -0.97888787      -0.45644022
N        2.64733879      -0.79628052       0.59419402
H       -2.06256256       1.61539517       0.07510844
H       -2.32873955       0.02778725      -0.67043515
H       -2.20842788       0.16418125       1.08142525
H       -0.41348027      -1.32541072      -0.91345848
H        2.12745867      -0.45032621      -1.40617121
H        1.69010189       0.42421081       1.11136520
12
Frame=11 idx=003698 GeodesicLength=1.2454075025075662 rxn_smarts="[C:1]([C:2](=[O:3])[N:4](/[C:5](=[N:6]/[H:12])[H:11])[H:10])([H:7])([H:8])[H:9]>>[C:1](/[C:2]([O:3][H:12])=[N:4]\[H:10])([H:7])([H:8])[H:9].[C:5](#[N:6])[H:11]"
C       -1.82946398       0.55861979       0.12837833
C       -0.34285616       0.39477927       0.07347087
O        0.40649397       1.00772490       0.91599453
N        0.20919859      -0.61319611      -0.57165774
C        2.09810084      -0.98356879      -0.47452484
N        2.65797251      -0.84531470       0.58282979
H       -2.07525984       1.61676296       0.06335419
H       -2.33197005       0.02625292      -0.67888553
H       -2.21196774       0.16407200       1.07074084
H       -0.41535038      -1.35331646      -0.85602500
H        2.10855247      -0.37674196      -1.37774558
H        1.72654976       0.40392618       1.12407013
12
Frame=12 idx=003698 GeodesicLength=1.360919247060882 rxn_smarts="[C:1]([C:2](=[O:3])[N:4](/[C:5](=[N:6]/[H:12])[H:11])[H:10])([H:7])([H:8])[H:9]>>[C:1](/[C:2]([O:3][H:12])=[N:4]\[H:10])([H:7])([H:8])[H:9].[C:5](#[N:6])[H:11]"
C       -1.83553163       0.56186027       0.11786161
C       -0.34785726       0.40736592       0.06215777
O        0.40693813       1.02225740       0.89713710
N        0.20366493      -0.61423998      -0.56715878
C        2.10496960      -0.98628238      -0.49441432
N        2.66977504      -0.89324208       0.56725078
H       -2.08863845       1.61794165       0.05065196
H       -2.33509514       0.02427216      -0.68796291
H       -2.21677510       0.16409333       1.05942725
H       -0.41519535      -1.37794119      -0.79664519
H        2.08910307      -0.30776655      -1.34588226
H        1.76464216       0.38168146       1.13757700
12
Frame=13 idx=003698 GeodesicLength=1.476664819018326 rxn_smarts="[C:1]([C:2](=[O:3])[N:4](/[C:5](=[N:6]/[H:12])[H:11])[H:10])([H:7])([H:8])[H:9]>>[C:1](/[C:2]([O:3][H:12])=[N:4]\[H:10])([H:7])([H:8])[H:9].[C:5](#[N:6])[H:11]"
C       -1.84226719       0.56494445       0.10696894
C       -0.35349337       0.42028346       0.05137031
O        0.40610573       1.03733011       0.87912653
N        0.19808387      -0.61436798      -0.56199456
C        2.11175933      -0.98725151      -0.51576649
N        2.68254298      -0.94045220       0.54773338
H       -2.10300968       1.61879069       0.03702149
H       -2.33817188       0.02162484      -0.69747379
H       -2.22266181       0.16415589       1.04764612
H       -0.41295544      -1.39896383      -0.73570396
H        2.06945883      -0.24342679      -1.31077583
H        1.80460863       0.35733286       1.15184786
12
Frame=14 idx=003698 GeodesicLength=1.5926016588354661 rxn_smarts="[C:1]([C:2](=[O:3])[N:4](/[C:5](=[N:6]/[H:12])[H:11])[H:10])([H:7])([H:8])[H:9]>>[C:1](/[C:2]([O:3][H:12])=[N:4]\[H:10])([H:7])([H:8])[H:9].[C:5](#[N:6])[H:11]"
C       -1.84971979       0.56784411       0.09569633
C       -0.35980919       0.43361294       0.04114943
O        0.40392894       1.05339923       0.86176770
N        0.19248310      -0.61367036      -0.55574859
C        2.11838550      -0.98651980      -0.53834717
N        2.69637107      -0.98704754       0.52427904
H       -2.11849624       1.61923467       0.02225688
H       -2.34121346       0.01814206      -0.70733156
H       -2.22964743       0.16435994       1.03546429
H       -0.40870476      -1.41623644      -0.67355370
H        2.04971304      -0.18363310      -1.27266328
H        1.84670922       0.33051430       1.16703061
12
Frame=15 idx=003698 GeodesicLength=1.708669042221206 rxn_smarts="[C:1]([C:2](=[O:3])[N:4](/[C:5](=[N:6]/[H:12])[H:11])[H:10])([H:7])([H:8])[H:9]>>[C:1](/[C:2]([O:3][H:12])=[N:4]\[H:10])([H:7])([H:8])[H:9].[C:5](#[N:6])[H:11]"
C       -1.85791626       0.57039789       0.08423873
C       -0.36682073       0.44791627       0.03080961
O        0.40039245       1.07144970       0.84402229
N        0.18697182      -0.61156243      -0.54902802
C        2.12468994      -0.98434256      -0.56181740
N        2.71033293      -1.03392183       0.49741520
H       -2.13568382       1.61894650       0.00658033
H       -2.34442207       0.01334132      -0.71696639
H       -2.23703936       0.16449440       1.02333764
H       -0.40225048      -1.42936725      -0.61042982
H        2.03080812      -0.12817792      -1.23125851
H        1.89093746       0.30082591       1.18309634
12
Frame=16 idx=003698 GeodesicLength=1.8248437589607005 rxn_smarts="[C:1]([C:2](=[O:3])[N:4](/[C:5](=[N:6]/[H:12])[H:11])[H:10])([H:7])([H:8])[H:9]>>[C:1](/[C:2]([O:3][H:12])=[N:4]\[H:10])([H:7])([H:8])[H:9].[C:5](#[N:6])[H:11]"
C       -1.86691132       0.57269869       0.07237428
C       -0.37461741       0.46292391       0.02085643
O        0.39530098       1.09153561       0.82625306
N        0.18154919      -0.60852285      -0.54074643
C        2.13068901      -0.98040621      -0.58622418
N        2.72518672      -1.08062271       0.46643281
H       -2.15432740       1.61803070      -0.01066174
H       -2.34761774       0.00725452      -0.72667182
H       -2.24538995       0.16499391       1.01100083
H       -0.39382595      -1.43860055      -0.54612563
H        2.01222194      -0.07676508      -1.18686663
H        1.93774195       0.26748008       1.20037902
