14
Frame=0 idx=007789 GeodesicLength=0.0 rxn_smarts="[C:1]([C:2]1=[C:3]([H:11])[N:4]([H:12])[C:5](=[O:6])[C:7]1([H:13])[H:14])([H:8])([H:9])[H:10]>>[C:1]([c:2]1[c:3]([H:11])[n:4]([H:12])[c:5]([O:6][H:14])[c:7]1[H:13])([H:8])([H:9])[H:10]"
C       -1.92701660       0.69204871      -0.29203280
C       -0.50967447       0.30049202      -0.04775826
C        0.48983777       1.09711311       0.38006174
N        1.66652557       0.33380784       0.58024870
C        1.39579985      -0.92946114       0.22279155
O        2.18832935      -1.87285927      -0.15891949
C        0.02400995      -1.06215569      -0.12915528
H       -2.21918778       0.46745236      -1.32018570
H       -2.08163245       1.75690538      -0.11605511
H       -2.60366273       0.13857200       0.36396598
H        0.49107257       2.15481560       0.59065987
H        2.59765847       0.71234670       0.56544203
H       -0.53972027      -1.92554355       0.20737311
H        1.02766081      -1.86353408      -0.84643639
14
Frame=1 idx=007789 GeodesicLength=0.043501087086940796 rxn_smarts="[C:1]([C:2]1=[C:3]([H:11])[N:4]([H:12])[C:5](=[O:6])[C:7]1([H:13])[H:14])([H:8])([H:9])[H:10]>>[C:1]([c:2]1[c:3]([H:11])[n:4]([H:12])[c:5]([O:6][H:14])[c:7]1[H:13])([H:8])([H:9])[H:10]"
C       -1.92587315       0.69149547      -0.29361176
C       -0.50925840       0.29995936      -0.04481581
C        0.48894413       1.09637329       0.38639014
N        1.66693427       0.33577533       0.57838552
C        1.39608857      -0.93228566       0.23391680
O        2.19056977      -1.86533625      -0.16816220
C        0.02409984      -1.06297864      -0.12594688
H       -2.21590843       0.46513423      -1.32203786
H       -2.08029046       1.75688879      -0.12054181
H       -2.60490316       0.14054030       0.36207268
H        0.49063226       2.15488628       0.59301482
H        2.59817531       0.71361967       0.56362674
H       -0.54191776      -1.92369056       0.21397536
H        1.02270722      -1.87038161      -0.85626574
14
Frame=2 idx=007789 GeodesicLength=0.08702209891732529 rxn_smarts="[C:1]([C:2]1=[C:3]([H:11])[N:4]([H:12])[C:5](=[O:6])[C:7]1([H:13])[H:14])([H:8])([H:9])[H:10]>>[C:1]([c:2]1[c:3]([H:11])[n:4]([H:12])[c:5]([O:6][H:14])[c:7]1[H:13])([H:8])([H:9])[H:10]"
C       -1.92466907       0.69089985      -0.29523440
C       -0.50876667       0.29943891      -0.04200429
C        0.48812230       1.09567861       0.39252525
N        1.66728608       0.33771967       0.57660333
C        1.39653935      -0.93499136       0.24484679
O        2.19256826      -1.85744963      -0.17783020
C        0.02428434      -1.06380257      -0.12267367
H       -2.21264493       0.46265850      -1.32387929
H       -2.07887278       1.75683956      -0.12516968
H       -2.60602421       0.14253253       0.36023390
H        0.49016938       2.15493462       0.59545490
H        2.59864127       0.71488548       0.56240088
H       -0.54399761      -1.92172290       0.22091471
H        1.01736431      -1.87762128      -0.86618824
14
Frame=3 idx=007789 GeodesicLength=0.130548572119769 rxn_smarts="[C:1]([C:2]1=[C:3]([H:11])[N:4]([H:12])[C:5](=[O:6])[C:7]1([H:13])[H:14])([H:8])([H:9])[H:10]>>[C:1]([c:2]1[c:3]([H:11])[n:4]([H:12])[c:5]([O:6][H:14])[c:7]1[H:13])([H:8])([H:9])[H:10]"
C       -1.92341063       0.69025846      -0.29687743
C       -0.50819030       0.29893713      -0.03936200
C        0.48738522       1.09504450       0.39840282
N        1.66757939       0.33964743       0.57493070
C        1.39714980      -0.93757977       0.25561228
O        2.19429093      -1.84921912      -0.18785291
C        0.02457728      -1.06461734      -0.11939038
H       -2.20944011       0.46003720      -1.32567968
H       -2.07739244       1.75674811      -0.12988856
H       -2.60700377       0.14452845       0.35848834
H        0.48969548       2.15497936       0.59791357
H        2.59905925       0.71613866       0.56180922
H       -0.54596474      -1.91963326       0.22808786
H        1.01166464      -1.88526981      -0.87619383
14
Frame=4 idx=007789 GeodesicLength=0.17406618936535623 rxn_smarts="[C:1]([C:2]1=[C:3]([H:11])[N:4]([H:12])[C:5](=[O:6])[C:7]1([H:13])[H:14])([H:8])([H:9])[H:10]>>[C:1]([c:2]1[c:3]([H:11])[n:4]([H:12])[c:5]([O:6][H:14])[c:7]1[H:13])([H:8])([H:9])[H:10]"
C       -1.92210496       0.68956921      -0.29851912
C       -0.50752351       0.29845948      -0.03691562
C        0.48673915       1.09448189       0.40398516
N        1.66781534       0.34156439       0.57339285
C        1.39791568      -0.94005319       0.26624594
O        2.19570042      -1.84066584      -0.19815468
C        0.02499172      -1.06541457      -0.11614518
H       -2.20632608       0.45729007      -1.32741556
H       -2.07586605       1.75660617      -0.13464518
H       -2.60782792       0.14650473       0.35686330
H        0.48922500       2.15504053       0.60031824
H        2.59943621       0.71737489       0.56187091
H       -0.54782242      -1.91741990       0.23539558
H        1.00564740      -1.89333784      -0.88627665
14
Frame=5 idx=007789 GeodesicLength=0.21754538969047887 rxn_smarts="[C:1]([C:2]1=[C:3]([H:11])[N:4]([H:12])[C:5](=[O:6])[C:7]1([H:13])[H:14])([H:8])([H:9])[H:10]>>[C:1]([c:2]1[c:3]([H:11])[n:4]([H:12])[c:5]([O:6][H:14])[c:7]1[H:13])([H:8])([H:9])[H:10]"
C       -1.92075526       0.68882830      -0.30013892
C       -0.50676086       0.29800663      -0.03467440
C        0.48618255       1.09399292       0.40927582
N        1.66799811       0.34347701       0.57200820
C        1.39882737      -0.94241412       0.27678890
O        2.19678006      -1.83183717      -0.20865356
C        0.02553650      -1.06618319      -0.11298081
H       -2.20331652       0.45444799      -1.32907065
H       -2.07430667       1.75639948      -0.13937737
H       -2.60848884       0.14842988       0.35536586
H        0.48877762       2.15513831       0.60258522
H        2.59976231       0.71860060       0.56256089
H       -0.54957947      -1.91507644       0.24273618
H        0.99934309      -1.90181021      -0.89642535
14
Frame=6 idx=007789 GeodesicLength=0.26098033853625435 rxn_smarts="[C:1]([C:2]1=[C:3]([H:11])[N:4]([H:12])[C:5](=[O:6])[C:7]1([H:13])[H:14])([H:8])([H:9])[H:10]>>[C:1]([c:2]1[c:3]([H:11])[n:4]([H:12])[c:5]([O:6][H:14])[c:7]1[H:13])([H:8])([H:9])[H:10]"
C       -1.91937902       0.68803389      -0.30168994
C       -0.50590307       0.29758412      -0.03265401
C        0.48570972       1.09358062       0.41427620
N        1.66811742       0.34537870       0.57084080
C        1.39986897      -0.94467170       0.28729335
O        2.19748318      -1.82276085      -0.21922411
C        0.02622810      -1.06691408      -0.10996708
H       -2.20045425       0.45155431      -1.33060295
H       -2.07274927       1.75611761      -0.14397981
H       -2.60897852       0.15026018       0.35403942
H        0.48841590       2.15532398       0.60445773
H        2.60004397       0.71979471       0.56393814
H       -0.55124119      -1.91262062       0.24994280
H        0.99283807      -1.91066086      -0.90667055
14
Frame=7 idx=007789 GeodesicLength=0.30437474034753426 rxn_smarts="[C:1]([C:2]1=[C:3]([H:11])[N:4]([H:12])[C:5](=[O:6])[C:7]1([H:13])[H:14])([H:8])([H:9])[H:10]>>[C:1]([c:2]1[c:3]([H:11])[n:4]([H:12])[c:5]([O:6][H:14])[c:7]1[H:13])([H:8])([H:9])[H:10]"
C       -1.91798218       0.68718639      -0.30315161
C       -0.50494443       0.29719693      -0.03087255
C        0.48532028       1.09325114       0.41897795
N        1.66818063       0.34727907       0.56989336
C        1.40102331      -0.94682775       0.29781154
O        2.19779534      -1.81351094      -0.22971617
C        0.02707721      -1.06759500      -0.10715376
H       -2.19776191       0.44864101      -1.33199561
H       -2.07121107       1.75575304      -0.14839186
H       -2.60928751       0.15196905       0.35289970
H        0.48814637       2.15560689       0.60590385
H        2.60027805       0.72096690       0.56591922
H       -0.55282099      -1.91005318       0.25689477
H        0.98618691      -1.91986356      -0.91701881
14
Frame=8 idx=007789 GeodesicLength=0.34783791299100925 rxn_smarts="[C:1]([C:2]1=[C:3]([H:11])[N:4]([H:12])[C:5](=[O:6])[C:7]1([H:13])[H:14])([H:8])([H:9])[H:10]>>[C:1]([c:2]1[c:3]([H:11])[n:4]([H:12])[c:5]([O:6][H:14])[c:7]1[H:13])([H:8])([H:9])[H:10]"
C       -1.91657059       0.68628341      -0.30449083
C       -0.50388008       0.29684433      -0.02934268
C        0.48500894       1.09299745       0.42340421
N        1.66818442       0.34916836       0.56922072
C        1.40228664      -0.94889679       0.30837997
O        2.19772096      -1.80399556      -0.24015456
C        0.02809490      -1.06822770      -0.10457756
H       -2.19526357       0.44573649      -1.33321786
H       -2.06970962       1.75529843      -0.15254119
H       -2.60940525       0.15352870       0.35197874
H        0.48804195       2.15602899       0.60664893
H        2.60042968       0.72208288       0.56866807
H       -0.55433467      -1.90738189       0.26351551
H        0.97939628      -1.92946712      -0.92749147
14
Frame=9 idx=007789 GeodesicLength=0.39126226191255087 rxn_smarts="[C:1]([C:2]1=[C:3]([H:11])[N:4]([H:12])[C:5](=[O:6])[C:7]1([H:13])[H:14])([H:8])([H:9])[H:10]>>[C:1]([c:2]1[c:3]([H:11])[n:4]([H:12])[c:5]([O:6][H:14])[c:7]1[H:13])([H:8])([H:9])[H:10]"
C       -1.91513598       0.68533317      -0.30575969
C       -0.50270701       0.29653360      -0.02807374
C        0.48478450       1.09284073       0.42751213
N        1.66816701       0.35108598       0.56869641
C        1.40365530      -0.95085359       0.31899037
O        2.19722569      -1.79441495      -0.25038260
C        0.02927912      -1.06879984      -0.10221460
H       -2.19294875       0.44278145      -1.33430656
H       -2.06822249       1.75477358      -0.15655849
H       -2.60933132       0.15499894       0.35125619
H        0.48795666       2.15650488       0.60723478
H        2.60055370       0.72321602       0.57182999
H       -0.55576599      -1.90459019       0.26984849
H        0.97248956      -1.93940976      -0.93807267
14
Frame=10 idx=007789 GeodesicLength=0.43465881204268136 rxn_smarts="[C:1]([C:2]1=[C:3]([H:11])[N:4]([H:12])[C:5](=[O:6])[C:7]1([H:13])[H:14])([H:8])([H:9])[H:10]>>[C:1]([c:2]1[c:3]([H:11])[n:4]([H:12])[c:5]([O:6][H:14])[c:7]1[H:13])([H:8])([H:9])[H:10]"
C       -1.91366392       0.68434057      -0.30699922
C       -0.50144188       0.29625298      -0.02695763
C        0.48461209       1.09274486       0.43147991
N        1.66814019       0.35303608       0.56833749
C        1.40515306      -0.95269379       0.32961239
O        2.19623161      -1.78464544      -0.26054070
C        0.03062429      -1.06933809      -0.09997554
H       -2.19069078       0.43980505      -1.33534498
H       -2.06674349       1.75418791      -0.16047959
H       -2.60912520       0.15637142       0.35061360
H        0.48788324       2.15702788       0.60771430
H        2.60068039       0.72437102       0.57524537
H       -0.55708197      -1.90171410       0.27604498
H        0.96542238      -1.94974635      -0.94875038
14
Frame=11 idx=007789 GeodesicLength=0.4779502432599564 rxn_smarts="[C:1]([C:2]1=[C:3]([H:11])[N:4]([H:12])[C:5](=[O:6])[C:7]1([H:13])[H:14])([H:8])([H:9])[H:10]>>[C:1]([c:2]1[c:3]([H:11])[n:4]([H:12])[c:5]([O:6][H:14])[c:7]1[H:13])([H:8])([H:9])[H:10]"
C       -1.91214395       0.68329939      -0.30821699
C       -0.50007309       0.29599951      -0.02601603
C        0.48449094       1.09272094       0.43529371
N        1.66811929       0.35503110       0.56808392
C        1.40676653      -0.95441857       0.34027919
O        2.19487607      -1.77494383      -0.27050547
C        0.03211956      -1.06981765      -0.09788726
H       -2.18850090       0.43678036      -1.33632222
H       -2.06524913       1.75353131      -0.16433760
H       -2.60876640       0.15766158       0.35005896
H        0.48776106       2.15757053       0.60829335
H        2.60077081       0.72564305       0.57873626
H       -0.55831698      -1.89869732       0.28203112
H        0.95814618      -1.96036040      -0.95949095
14
Frame=12 idx=007789 GeodesicLength=0.5212539162611741 rxn_smarts="[C:1]([C:2]1=[C:3]([H:11])[N:4]([H:12])[C:5](=[O:6])[C:7]1([H:13])[H:14])([H:8])([H:9])[H:10]>>[C:1]([c:2]1[c:3]([H:11])[n:4]([H:12])[c:5]([O:6][H:14])[c:7]1[H:13])([H:8])([H:9])[H:10]"
C       -1.91056302       0.68222222      -0.30944709
C       -0.49861409       0.29577238      -0.02518911
C        0.48441150       1.09274416       0.43904453
N        1.66813201       0.35709788       0.56787282
C        1.40849999      -0.95600153       0.35099807
O        2.19291874      -1.76505716      -0.28024688
C        0.03377652      -1.07026616      -0.09588128
H       -2.18626567       0.43381034      -1.33732318
H       -2.06375440       1.75280854      -0.16808198
H       -2.60830344       0.15881741       0.34945020
H        0.48756937       2.15810304       0.60911552
H        2.60088506       0.72696452       0.58205458
H       -0.55943428      -1.89560687       0.28792305
H        0.95074170      -1.97140877      -0.97028927
14
Frame=13 idx=007789 GeodesicLength=0.5645401319250666 rxn_smarts="[C:1]([C:2]1=[C:3]([H:11])[N:4]([H:12])[C:5](=[O:6])[C:7]1([H:13])[H:14])([H:8])([H:9])[H:10]>>[C:1]([c:2]1[c:3]([H:11])[n:4]([H:12])[c:5]([O:6][H:14])[c:7]1[H:13])([H:8])([H:9])[H:10]"
C       -1.90893664       0.68111294      -0.31067688
C       -0.49706378       0.29557521      -0.02450052
C        0.48437269       1.09283635       0.44268347
N        1.66817680       0.35923726       0.56769484
C        1.41034467      -0.95745598       0.36179988
O        2.19053912      -1.75529557      -0.28962546
C        0.03558973      -1.07066454      -0.09399967
H       -2.18403811       0.43087681      -1.33832417
H       -2.06227067       1.75202580      -0.17171756
H       -2.60772981       0.15985661       0.34883449
H        0.48728040       2.15862711       0.61024468
H        2.60100534       0.72843053       0.58513525
H       -0.56045679      -1.89241169       0.29362342
H        0.94318704      -1.98275084      -0.98117178
14
Frame=14 idx=007789 GeodesicLength=0.6078454068704077 rxn_smarts="[C:1]([C:2]1=[C:3]([H:11])[N:4]([H:12])[C:5](=[O:6])[C:7]1([H:13])[H:14])([H:8])([H:9])[H:10]>>[C:1]([c:2]1[c:3]([H:11])[n:4]([H:12])[c:5]([O:6][H:14])[c:7]1[H:13])([H:8])([H:9])[H:10]"
C       -1.90725456       0.67996697      -0.31191781
C       -0.49543542       0.29539551      -0.02387519
C        0.48435757       1.09297239       0.44630817
N        1.66825015       0.36144251       0.56758000
C        1.41231182      -0.95877463       0.37265043
O        2.18769284      -1.74555278      -0.29873974
C        0.03755011      -1.07102752      -0.09218856
H       -2.18175537       0.42796312      -1.33934649
H       -2.06078089       1.75118476      -0.17528774
H       -2.60707201       0.16079163       0.34817619
H        0.48691609       2.15915185       0.61161074
H        2.60113553       0.73001361       0.58799255
H       -0.56136500      -1.88914266       0.29921336
H        0.93544915      -1.99438477      -0.99217591
14
Frame=15 idx=007789 GeodesicLength=0.6511560754742575 rxn_smarts="[C:1]([C:2]1=[C:3]([H:11])[N:4]([H:12])[C:5](=[O:6])[C:7]1([H:13])[H:14])([H:8])([H:9])[H:10]>>[C:1]([c:2]1[c:3]([H:11])[n:4]([H:12])[c:5]([O:6][H:14])[c:7]1[H:13])([H:8])([H:9])[H:10]"
C       -1.90551110       0.67878408      -0.31318517
C       -0.49373763       0.29522683      -0.02326878
C        0.48435553       1.09314276       0.44997542
N        1.66835679       0.36371684       0.56751944
C        1.41440740      -0.95995537       0.38353841
O        2.18438058      -1.73585008      -0.30761984
C        0.03964989      -1.07135913      -0.09041183
H       -2.17937795       0.42505520      -1.34041112
H       -2.05927588       1.75028837      -0.17883036
H       -2.60634958       0.16163199       0.34744108
H        0.48646712       2.15966827       0.61326310
H        2.60128202       0.73173065       0.59056200
H       -0.56214952      -1.88580514       0.30473979
H        0.92750234      -2.00627528      -1.00331215
14
Frame=16 idx=007789 GeodesicLength=0.6944866890788647 rxn_smarts="[C:1]([C:2]1=[C:3]([H:11])[N:4]([H:12])[C:5](=[O:6])[C:7]1([H:13])[H:14])([H:8])([H:9])[H:10]>>[C:1]([c:2]1[c:3]([H:11])[n:4]([H:12])[c:5]([O:6][H:14])[c:7]1[H:13])([H:8])([H:9])[H:10]"
C       -1.90370367       0.67756357      -0.31448108
C       -0.49197681       0.29506413      -0.02264872
C        0.48435817       1.09333878       0.45372396
N        1.66849338       0.36605664       0.56753032
C        1.41663607      -0.96099914       0.39445386
O        2.18060902      -1.72618739      -0.31627955
C        0.04188289      -1.07166316      -0.08865309
H       -2.17689289       0.42212369      -1.34151581
H       -2.05774233       1.74934242      -0.18238558
H       -2.60557007       0.16240121       0.34663594
H        0.48593750       2.16017793       0.61518385
H        2.60144118       0.73358233       0.59283554
H       -0.56280942      -1.88241395       0.31021057
H        0.91933698      -2.01838706      -1.01461022
