15
Frame=0 idx=009917 GeodesicLength=0.0 rxn_smarts="[N:1]([C@@:2]([C:3]([C:4]([O:5][H:15])([H:13])[H:14])([H:11])[H:12])([C:6]#[N:7])[H:10])([H:8])[H:9]>>[N:1]([C@@:2]1([H:10])[C:3]([H:11])([H:12])[C:4]([H:13])([H:14])[O:5][N:7]([H:15])[C:6]1)([H:8])[H:9]"
N       -1.93987056      -0.17277835      -0.38485777
C       -0.84093167      -0.37957808       0.54010109
C        0.41925785      -0.88603047      -0.16174235
C        1.31570089       0.20683620      -0.82369915
O        2.02341250       0.95216040       0.07855146
C       -0.49781289       0.95875040       1.15996039
N        0.46139136       1.60760251       1.23347809
H       -2.08500688      -1.00792366      -0.93438069
H       -2.80049124       0.04993295       0.09644612
H       -1.09180962      -1.03261288       1.38551603
H        0.09783295      -1.60046789      -0.92519905
H        1.03872684      -1.42347227       0.55914191
H        0.66133845       0.82018238      -1.47712854
H        1.99869590      -0.33319502      -1.49756472
H        1.23956613       2.24059383       1.15137714
15
Frame=1 idx=009917 GeodesicLength=0.12156055067897133 rxn_smarts="[N:1]([C@@:2]([C:3]([C:4]([O:5][H:15])([H:13])[H:14])([H:11])[H:12])([C:6]#[N:7])[H:10])([H:8])[H:9]>>[N:1]([C@@:2]1([H:10])[C:3]([H:11])([H:12])[C:4]([H:13])([H:14])[O:5][N:7]([H:15])[C:6]1)([H:8])[H:9]"
N       -1.95053752      -0.19083147      -0.38220538
C       -0.84010265      -0.37464479       0.53455041
C        0.41519082      -0.88169896      -0.17402856
C        1.32338580       0.20904290      -0.81501754
O        2.02079735       0.94456360       0.10778472
C       -0.51718547       0.97206409       1.14299773
N        0.43894856       1.62877556       1.22405004
H       -2.10885153      -1.04252889      -0.90215089
H       -2.80428400       0.04909138       0.10322948
H       -1.07674330      -1.02324931       1.38776637
H        0.09522850      -1.58242493      -0.95063712
H        1.02615017      -1.43874169       0.53944565
H        0.68125284       0.83192022      -1.47019000
H        2.01777691      -0.32302140      -1.48266923
H        1.27897352       2.22168369       1.13707431
15
Frame=2 idx=009917 GeodesicLength=0.24276246694567316 rxn_smarts="[N:1]([C@@:2]([C:3]([C:4]([O:5][H:15])([H:13])[H:14])([H:11])[H:12])([C:6]#[N:7])[H:10])([H:8])[H:9]>>[N:1]([C@@:2]1([H:10])[C:3]([H:11])([H:12])[C:4]([H:13])([H:14])[O:5][N:7]([H:15])[C:6]1)([H:8])[H:9]"
N       -1.96122157      -0.20926203      -0.37878659
C       -0.83903355      -0.36921899       0.52882129
C        0.41100257      -0.87723774      -0.18688263
C        1.33127123       0.21085359      -0.80652933
O        2.01772631       0.93628301       0.13695090
C       -0.53628297       0.98583185       1.12500804
N        0.41637006       1.65118779       1.21189408
H       -2.13163075      -1.07670241      -0.86827272
H       -2.80809504       0.04742993       0.11028451
H       -1.06076139      -1.01269256       1.39022366
H        0.09202341      -1.56344515      -0.97669863
H        1.01314825      -1.45422741       0.51845669
H        0.70190347       0.84327230      -1.46358434
H        2.03715998      -0.31363638      -1.46719590
H        1.31642000       2.20156420       1.12631097
15
Frame=3 idx=009917 GeodesicLength=0.36364449183664027 rxn_smarts="[N:1]([C@@:2]([C:3]([C:4]([O:5][H:15])([H:13])[H:14])([H:11])[H:12])([C:6]#[N:7])[H:10])([H:8])[H:9]>>[N:1]([C@@:2]1([H:10])[C:3]([H:11])([H:12])[C:4]([H:13])([H:14])[O:5][N:7]([H:15])[C:6]1)([H:8])[H:9]"
N       -1.97185792      -0.22799460      -0.37454940
C       -0.83773643      -0.36336883       0.52291142
C        0.40665328      -0.87266473      -0.20033518
C        1.33937567       0.21225435      -0.79808759
O        2.01408903       0.92723454       0.16624152
C       -0.55509584       0.99993207       1.10607769
N        0.39400102       1.67417722       1.19772569
H       -2.15325526      -1.11028692      -0.83283242
H       -2.81189527       0.04498862       0.11767835
H       -1.04386837      -1.00106352       1.39278223
H        0.08818245      -1.54341513      -1.00348666
H        0.99958572      -1.46999106       0.49610308
H        0.72336796       0.85428625      -1.45712388
H        2.05687806      -0.30503491      -1.45099038
H        1.35157589       2.18094664       1.11788554
15
Frame=4 idx=009917 GeodesicLength=0.4846178277075525 rxn_smarts="[N:1]([C@@:2]([C:3]([C:4]([O:5][H:15])([H:13])[H:14])([H:11])[H:12])([C:6]#[N:7])[H:10])([H:8])[H:9]>>[N:1]([C@@:2]1([H:10])[C:3]([H:11])([H:12])[C:4]([H:13])([H:14])[O:5][N:7]([H:15])[C:6]1)([H:8])[H:9]"
N       -1.98243091      -0.24701271      -0.36947417
C       -0.83625864      -0.35716206       0.51680742
C        0.40210615      -0.86798576      -0.21440654
C        1.34768999       0.21324611      -0.78955947
O        2.00974217       0.91737872       0.19582248
C       -0.57367632       1.01426563       1.08625793
N        0.37202135       1.69726576       1.18211566
H       -2.17365975      -1.14322937      -0.79593119
H       -2.81570506       0.04174522       0.12544938
H       -1.02609539      -0.98846787       1.39533751
H        0.08371158      -1.52222807      -1.03106600
H        0.98534442      -1.48604657       0.47231997
H        0.74568637       0.86500599      -1.45063421
H        2.07693455      -0.29720824      -1.43389439
H        1.38458947       2.16043324       1.11085562
15
Frame=5 idx=009917 GeodesicLength=0.6054060107724951 rxn_smarts="[N:1]([C@@:2]([C:3]([C:4]([O:5][H:15])([H:13])[H:14])([H:11])[H:12])([C:6]#[N:7])[H:10])([H:8])[H:9]>>[N:1]([C@@:2]1([H:10])[C:3]([H:11])([H:12])[C:4]([H:13])([H:14])[O:5][N:7]([H:15])[C:6]1)([H:8])[H:9]"
N       -1.99293011      -0.26630653      -0.36355134
C       -0.83464193      -0.35065772       0.51049324
C        0.39733999      -0.86320084      -0.22911771
C        1.35619952       0.21381843      -0.78085190
O        2.00454761       0.90671846       0.22579452
C       -0.59205909       1.02874385       1.06558798
N        0.35051198       1.72011807       1.16541258
H       -2.19280397      -1.17553197      -0.75762372
H       -2.81953496       0.03772517       0.13363351
H       -1.00747471      -0.97500085       1.39778523
H        0.07862956      -1.49978110      -1.05947149
H        0.97034650      -1.50238348       0.44704426
H        0.76889106       0.87543938      -1.44400013
H        2.09732243      -0.29017719      -1.41576034
H        1.41565614       2.14047634       1.10462531
15
Frame=6 idx=009917 GeodesicLength=0.7266149241912518 rxn_smarts="[N:1]([C@@:2]([C:3]([C:4]([O:5][H:15])([H:13])[H:14])([H:11])[H:12])([C:6]#[N:7])[H:10])([H:8])[H:9]>>[N:1]([C@@:2]1([H:10])[C:3]([H:11])([H:12])[C:4]([H:13])([H:14])[O:5][N:7]([H:15])[C:6]1)([H:8])[H:9]"
N       -2.00335786      -0.28590165      -0.35677942
C       -0.83295829      -0.34392360       0.50395794
C        0.39233246      -0.85829789      -0.24445508
C        1.36485675       0.21398084      -0.77187822
O        1.99837886       0.89527152       0.25621386
C       -0.61034251       1.04325349       1.04413670
N        0.32936906       1.74262648       1.14783337
H       -2.21061356      -1.20719320      -0.71804052
H       -2.82341099       0.03285285       0.14223291
H       -0.98807212      -0.96076212       1.40003502
H        0.07295822      -1.47598274      -1.08867667
H        0.95453866      -1.51895056       0.42025702
H        0.79296056       0.88561139      -1.43710109
H        2.11798604      -0.28393557      -1.39646474
H        1.44537473       2.12135077       1.09872894
15
Frame=7 idx=009917 GeodesicLength=0.8482260341601983 rxn_smarts="[N:1]([C@@:2]([C:3]([C:4]([O:5][H:15])([H:13])[H:14])([H:11])[H:12])([C:6]#[N:7])[H:10])([H:8])[H:9]>>[N:1]([C@@:2]1([H:10])[C:3]([H:11])([H:12])[C:4]([H:13])([H:14])[O:5][N:7]([H:15])[C:6]1)([H:8])[H:9]"
N       -2.01369397      -0.30582948      -0.34916493
C       -0.83125659      -0.33699769       0.49718769
C        0.38707268      -0.85324757      -0.26040744
C        1.37359801       0.21373696      -0.76260467
O        1.99108169       0.88311734       0.28704611
C       -0.62859434       1.05772994       1.02192275
N        0.30847180       1.76478377       1.12937387
H       -2.22700685      -1.23825160      -0.67725943
H       -2.82733772       0.02709350       0.15126272
H       -0.96792871      -0.94579550       1.40200560
H        0.06673137      -1.45076026      -1.11862171
H        0.93790189      -1.53563596       0.39196120
H        0.81785262       0.89550112      -1.42989200
H        2.13885058      -0.27850985      -1.37592058
H        1.47425755       2.10306525       1.09311083
15
Frame=8 idx=009917 GeodesicLength=0.9702258568593907 rxn_smarts="[N:1]([C@@:2]([C:3]([C:4]([O:5][H:15])([H:13])[H:14])([H:11])[H:12])([C:6]#[N:7])[H:10])([H:8])[H:9]>>[N:1]([C@@:2]1([H:10])[C:3]([H:11])([H:12])[C:4]([H:13])([H:14])[O:5][N:7]([H:15])[C:6]1)([H:8])[H:9]"
N       -2.02390447      -0.32612669      -0.34071921
C       -0.82958017      -0.32991048       0.49017025
C        0.38155694      -0.84800765      -0.27695626
C        1.38234485       0.21309722      -0.75302929
O        1.98249345       0.87036630       0.31822544
C       -0.64687812       1.07211819       0.99896112
N        0.28769587       1.78662965       1.10995044
H       -2.24188825      -1.26876399      -0.63533968
H       -2.83129760       0.02043380       0.16070293
H       -0.94706473      -0.93011772       1.40362051
H        0.05998429      -1.42405612      -1.14920548
H        0.92043480      -1.55228646       0.36217875
H        0.84350064       0.90508617      -1.42234569
H        2.15980485      -0.27393432      -1.35406642
H        1.50279764       2.08547212       1.08785257
15
Frame=9 idx=009917 GeodesicLength=1.091005302693465 rxn_smarts="[N:1]([C@@:2]([C:3]([C:4]([O:5][H:15])([H:13])[H:14])([H:11])[H:12])([C:6]#[N:7])[H:10])([H:8])[H:9]>>[N:1]([C@@:2]1([H:10])[C:3]([H:11])([H:12])[C:4]([H:13])([H:14])[O:5][N:7]([H:15])[C:6]1)([H:8])[H:9]"
N       -2.03389291      -0.34676611      -0.33149017
C       -0.82792478      -0.32268509       0.48291529
C        0.37585668      -0.84258105      -0.29401754
C        1.39106682       0.21202071      -0.74322093
O        1.97278271       0.85723283       0.34954957
C       -0.66515700       1.08636914       0.97531284
N        0.26706093       1.80811291       1.08967271
H       -2.25526766      -1.29859202      -0.59246781
H       -2.83522567       0.01292424       0.17051655
H       -0.92567776      -0.91383771       1.40482931
H        0.05272922      -1.39597136      -1.18019285
H        0.90230110      -1.56873030       0.33108472
H        0.86984079       0.91439228      -1.41438221
H        2.18065769      -0.27031420      -1.33109566
H        1.53084984       2.06842574       1.08298617
15
Frame=10 idx=009917 GeodesicLength=1.2121932650130334 rxn_smarts="[N:1]([C@@:2]([C:3]([C:4]([O:5][H:15])([H:13])[H:14])([H:11])[H:12])([C:6]#[N:7])[H:10])([H:8])[H:9]>>[N:1]([C@@:2]1([H:10])[C:3]([H:11])([H:12])[C:4]([H:13])([H:14])[O:5][N:7]([H:15])[C:6]1)([H:8])[H:9]"
N       -2.04363080      -0.36779112      -0.32148515
C       -0.82635796      -0.31536310       0.47541513
C        0.36992195      -0.83690433      -0.31159183
C        1.39962601       0.21058100      -0.73313994
O        1.96151375       0.84376043       0.38097336
C       -0.68355931       1.10040670       0.95100705
N        0.24632535       1.82937892       1.06823932
H       -2.26698395      -1.32789511      -0.54864139
H       -2.83912196       0.00452938       0.18067472
H       -0.90366275      -0.89691103       1.40556817
H        0.04506616      -1.36639093      -1.21154788
H        0.88339658      -1.58481785       0.29865024
H        0.89672461       0.92332339      -1.40606604
H        2.20136068      -0.26758083      -1.30679532
H        1.55938163       2.05167447       1.07873956
15
Frame=11 idx=009917 GeodesicLength=1.333840839838475 rxn_smarts="[N:1]([C@@:2]([C:3]([C:4]([O:5][H:15])([H:13])[H:14])([H:11])[H:12])([C:6]#[N:7])[H:10])([H:8])[H:9]>>[N:1]([C@@:2]1([H:10])[C:3]([H:11])([H:12])[C:4]([H:13])([H:14])[O:5][N:7]([H:15])[C:6]1)([H:8])[H:9]"
N       -2.05304008      -0.38918680      -0.31076211
C       -0.82491091      -0.30797598       0.46768141
C        0.36377705      -0.83095049      -0.32961335
C        1.40792465       0.20881284      -0.72281547
O        1.94855885       0.83012533       0.41230609
C       -0.70212912       1.11416240       0.92611882
N        0.22540036       1.85044066       1.04556679
H       -2.27696825      -1.35666626      -0.50397143
H       -2.84294897      -0.00471338       0.19111290
H       -0.88108278      -0.87936157       1.40577475
H        0.03707082      -1.33535842      -1.24309131
H        0.86380427      -1.60037272       0.26501176
H        0.92399673       0.93183760      -1.39741274
H        2.22175905      -0.26571661      -1.28116810
H        1.58878833       2.03492340       1.07526199
15
Frame=12 idx=009917 GeodesicLength=1.4558641227919125 rxn_smarts="[N:1]([C@@:2]([C:3]([C:4]([O:5][H:15])([H:13])[H:14])([H:11])[H:12])([C:6]#[N:7])[H:10])([H:8])[H:9]>>[N:1]([C@@:2]1([H:10])[C:3]([H:11])([H:12])[C:4]([H:13])([H:14])[O:5][N:7]([H:15])[C:6]1)([H:8])[H:9]"
N       -2.06203644      -0.41090430      -0.29939081
C       -0.82360898      -0.30056803       0.45975458
C        0.35745697      -0.82471950      -0.34798371
C        1.41586584       0.20675107      -0.71229315
O        1.93395261       0.81646914       0.44339866
C       -0.72089094       1.12755262       0.90078343
N        0.20418353       1.87132648       1.02163009
H       -2.28518525      -1.38484182      -0.45863697
H       -2.84667389      -0.01475393       0.20169811
H       -0.85807503      -0.86129290       1.40544429
H        0.02882185      -1.30300425      -1.27461627
H        0.84364493      -1.61525605       0.23035712
H        0.95146835       0.93993413      -1.38840045
H        2.24167231      -0.26467163      -1.25433953
H        1.61940413       2.01797896       1.07259462
15
Frame=13 idx=009917 GeodesicLength=1.5781166733169567 rxn_smarts="[N:1]([C@@:2]([C:3]([C:4]([O:5][H:15])([H:13])[H:14])([H:11])[H:12])([C:6]#[N:7])[H:10])([H:8])[H:9]>>[N:1]([C@@:2]1([H:10])[C:3]([H:11])([H:12])[C:4]([H:13])([H:14])[O:5][N:7]([H:15])[C:6]1)([H:8])[H:9]"
N       -2.07053219      -0.43292584      -0.28746042
C       -0.82247684      -0.29317681       0.45164168
C        0.35099607      -0.81819056      -0.36662788
C        1.42334907       0.20443570      -0.70161602
O        1.91755403       0.80299932       0.47404419
C       -0.73987720       1.14049042       0.87511230
N        0.18264378       1.89197963       0.99639599
H       -2.29158765      -1.41241760      -0.41270135
H       -2.85023479      -0.02549152       0.21232088
H       -0.83472847      -0.84274275       1.40449710
H        0.02040165      -1.26938083      -1.30591793
H        0.82303584      -1.62927860       0.19484935
H        0.97896855       0.94758881      -1.37904532
H        2.26093972      -0.26442779      -1.22632181
H        1.65154843       2.00053842       1.07082923
15
Frame=14 idx=009917 GeodesicLength=1.7005111762552 rxn_smarts="[N:1]([C@@:2]([C:3]([C:4]([O:5][H:15])([H:13])[H:14])([H:11])[H:12])([C:6]#[N:7])[H:10])([H:8])[H:9]>>[N:1]([C@@:2]1([H:10])[C:3]([H:11])([H:12])[C:4]([H:13])([H:14])[O:5][N:7]([H:15])[C:6]1)([H:8])[H:9]"
N       -2.07844696      -0.45519409      -0.27506622
C       -0.82153855      -0.28584495       0.44340056
C        0.34443960      -0.81138011      -0.38542082
C        1.43028031       0.20193320      -0.69084656
O        1.89947187       0.78989153       0.50408556
C       -0.75912122       1.15290692       0.84925876
N        0.16066725       1.91244432       0.96984698
H       -2.29619034      -1.43930864      -0.36635443
H       -2.85362102      -0.03686334       0.22279835
H       -0.81121137      -0.82381486       1.40296659
H        0.01190378      -1.23472217      -1.33677945
H        0.80214560      -1.64233417       0.15873908
H        1.00626011       0.95482653      -1.36934212
H        2.27938575      -0.26486941      -1.19731933
H        1.68557521       1.98232924       1.07003304
15
Frame=15 idx=009917 GeodesicLength=1.822832364174366 rxn_smarts="[N:1]([C@@:2]([C:3]([C:4]([O:5][H:15])([H:13])[H:14])([H:11])[H:12])([C:6]#[N:7])[H:10])([H:8])[H:9]>>[N:1]([C@@:2]1([H:10])[C:3]([H:11])([H:12])[C:4]([H:13])([H:14])[O:5][N:7]([H:15])[C:6]1)([H:8])[H:9]"
N       -2.08571287      -0.47769760      -0.26230065
C       -0.82081537      -0.27860479       0.43505446
C        0.33782471      -0.80428292      -0.40427470
C        1.43658149       0.19930792      -0.68003233
O        1.87967694       0.77734802       0.53336198
C       -0.77866675       1.16473684       0.82333740
N        0.13818698       1.93268717       0.94196041
H       -2.29899383      -1.46548379      -0.31964984
H       -2.85679178      -0.04878770       0.23296830
H       -0.78764644      -0.80455924       1.40082526
H        0.00339950      -1.19914848      -1.36700982
H        0.78111736      -1.65429436       0.12221297
H        1.03316124       0.96167096      -1.35929870
H        2.29686215      -0.26593119      -1.16742477
H        1.72181667       1.96303915       1.07027002
15
Frame=16 idx=009917 GeodesicLength=1.9447798148363205 rxn_smarts="[N:1]([C@@:2]([C:3]([C:4]([O:5][H:15])([H:13])[H:14])([H:11])[H:12])([C:6]#[N:7])[H:10])([H:8])[H:9]>>[N:1]([C@@:2]1([H:10])[C:3]([H:11])([H:12])[C:4]([H:13])([H:14])[O:5][N:7]([H:15])[C:6]1)([H:8])[H:9]"
N       -2.09226450      -0.50039415      -0.24925693
C       -0.82032203      -0.27148406       0.42665327
C        0.33119594      -0.79691418      -0.42306777
C        1.44217264       0.19664486      -0.66924956
O        1.85826673       0.76557936       0.56171268
C       -0.79855325       1.17593394       0.79748026
N        0.11510790       1.95273491       0.91271228
H       -2.30004055      -1.49085652      -0.27275101
H       -2.85974299      -0.06120247       0.24265468
H       -0.76418759      -0.78504976       1.39811063
H       -0.00502265      -1.16291467      -1.39639378
H        0.76013457      -1.66505938       0.08553992
H        1.05943663       0.96816644      -1.34893891
H        2.31322838      -0.26747452      -1.13684621
H        1.76059077       1.94229019       1.07164047
