13
Frame=0 idx=008803 GeodesicLength=0.0 rxn_smarts="[N:1]([c:2]1[c:3]([O:4][H:10])[n:5]([H:11])[c:6]([H:12])[c:7]1[H:13])([H:8])[H:9]>>[N:1]([C:2]1=[C:3]([O:4][H:10])[N+:5]([H:11])([H:12])[C-:6]=[C:7]1[H:13])([H:8])[H:9]"
N       -1.84610479       0.57984614      -0.03033423
C       -0.44193094       0.36890048       0.05549449
C        0.06594684      -0.88603704       0.01636367
O       -0.54825247      -2.07460094      -0.10668082
N        1.43867326      -0.80366208       0.06336019
C        1.88812543       0.68214076       0.24029994
C        0.65791503       1.28383225       0.12872751
H       -2.08355430       1.23139629      -0.76540726
H       -2.22224955       0.94119804       0.83597368
H       -1.49036263      -1.87784114      -0.19750976
H        2.01974758      -1.53978090       0.43475699
H        2.01420393      -0.26584142      -0.78793984
H        0.54784266       2.36044954       0.11289545
13
Frame=1 idx=008803 GeodesicLength=0.045862594602696545 rxn_smarts="[N:1]([c:2]1[c:3]([O:4][H:10])[n:5]([H:11])[c:6]([H:12])[c:7]1[H:13])([H:8])[H:9]>>[N:1]([C:2]1=[C:3]([O:4][H:10])[N+:5]([H:11])([H:12])[C-:6]=[C:7]1[H:13])([H:8])[H:9]"
N       -1.84846928       0.57996859      -0.02757736
C       -0.44410507       0.36857619       0.05313889
C        0.06485018      -0.88521503       0.00494658
O       -0.54872402      -2.07480598      -0.11263382
N        1.43838453      -0.80332196       0.05831772
C        1.88247723       0.67676044       0.24742325
C        0.65639045       1.28390514       0.13346563
H       -2.08878444       1.22709488      -0.76566793
H       -2.22066253       0.94705394       0.83801705
H       -1.49281612      -1.87996340      -0.18464837
H        2.01384102      -1.54068158       0.43607188
H        2.03839283      -0.25988540      -0.78884505
H        0.54922524       2.36051418       0.10799153
13
Frame=2 idx=008803 GeodesicLength=0.09172842534445219 rxn_smarts="[N:1]([c:2]1[c:3]([O:4][H:10])[n:5]([H:11])[c:6]([H:12])[c:7]1[H:13])([H:8])[H:9]>>[N:1]([C:2]1=[C:3]([O:4][H:10])[N+:5]([H:11])([H:12])[C-:6]=[C:7]1[H:13])([H:8])[H:9]"
N       -1.85089702       0.58008338      -0.02461396
C       -0.44634390       0.36827097       0.05078426
C        0.06366946      -0.88432152      -0.00654167
O       -0.54929706      -2.07491950      -0.11865873
N        1.43799890      -0.80299109       0.05327278
C        1.87674898       0.67134184       0.25413470
C        0.65482043       1.28395931       0.13790479
H       -2.09423680       1.22273575      -0.76566384
H       -2.21901837       0.95291658       0.84025579
H       -1.49497638      -1.88201094      -0.17211908
H        2.00771436      -1.54158109       0.43740441
H        2.06315809      -0.25396625      -0.78901275
H        0.55065931       2.36048256       0.10285329
13
Frame=3 idx=008803 GeodesicLength=0.13759727246243034 rxn_smarts="[N:1]([c:2]1[c:3]([O:4][H:10])[n:5]([H:11])[c:6]([H:12])[c:7]1[H:13])([H:8])[H:9]>>[N:1]([C:2]1=[C:3]([O:4][H:10])[N+:5]([H:11])([H:12])[C-:6]=[C:7]1[H:13])([H:8])[H:9]"
N       -1.85337927       0.58019495      -0.02153736
C       -0.44864615       0.36798324       0.04840607
C        0.06240540      -0.88335519      -0.01814360
O       -0.54995982      -2.07493128      -0.12495613
N        1.43751666      -0.80266991       0.04816355
C        1.87094119       0.66587934       0.26046234
C        0.65320519       1.28399160       0.14209946
H       -2.09986343       1.21834849      -0.76547773
H       -2.21735423       0.95876020       0.84258812
H       -1.49688321      -1.88401395      -0.15945265
H        2.00136755      -1.54249858       0.43865199
H        2.08851419      -0.24804306      -0.78841621
H        0.55213592       2.36035414       0.09761216
13
Frame=4 idx=008803 GeodesicLength=0.18346151870053137 rxn_smarts="[N:1]([c:2]1[c:3]([O:4][H:10])[n:5]([H:11])[c:6]([H:12])[c:7]1[H:13])([H:8])[H:9]>>[N:1]([C:2]1=[C:3]([O:4][H:10])[N+:5]([H:11])([H:12])[C-:6]=[C:7]1[H:13])([H:8])[H:9]"
N       -1.85590494       0.58030361      -0.01834144
C       -0.45101232       0.36770458       0.04619301
C        0.06104596      -0.88233776      -0.02948198
O       -0.55072570      -2.07486358      -0.13115099
N        1.43694459      -0.80235999       0.04297727
C        1.86510070       0.66039722       0.26618465
C        0.65155455       1.28400243       0.14608688
H       -2.10556957       1.21383581      -0.76521261
H       -2.21574097       0.96470878       0.84493007
H       -1.49850128      -1.88594477      -0.14715072
H        1.99490899      -1.54339928       0.43972081
H        2.11427399      -0.24218293      -0.78721384
H        0.55362601       2.36013588       0.09245890
13
Frame=5 idx=008803 GeodesicLength=0.22932481530391793 rxn_smarts="[N:1]([c:2]1[c:3]([O:4][H:10])[n:5]([H:11])[c:6]([H:12])[c:7]1[H:13])([H:8])[H:9]>>[N:1]([C:2]1=[C:3]([O:4][H:10])[N+:5]([H:11])([H:12])[C-:6]=[C:7]1[H:13])([H:8])[H:9]"
N       -1.85847809       0.58040680      -0.01494938
C       -0.45344302       0.36743096       0.04419868
C        0.05958625      -0.88128311      -0.04042248
O       -0.55159410      -2.07473434      -0.13711836
N        1.43628969      -0.80206255       0.03774004
C        1.85924877       0.65491662       0.27124266
C        0.64987542       1.28399872       0.14983325
H       -2.11137884       1.20914265      -0.76482665
H       -2.21415933       0.97082020       0.84733990
H       -1.49985451      -1.88778423      -0.13559147
H        1.98837597      -1.54425914       0.44064952
H        2.14041385      -0.23643007      -0.78540175
H        0.55511794       2.35983749       0.08730604
13
Frame=6 idx=008803 GeodesicLength=0.27517229368461693 rxn_smarts="[N:1]([c:2]1[c:3]([O:4][H:10])[n:5]([H:11])[c:6]([H:12])[c:7]1[H:13])([H:8])[H:9]>>[N:1]([C:2]1=[C:3]([O:4][H:10])[N+:5]([H:11])([H:12])[C-:6]=[C:7]1[H:13])([H:8])[H:9]"
N       -1.86108975       0.58051491      -0.01152804
C       -0.45593445       0.36716566       0.04231553
C        0.05802620      -0.88018419      -0.05115978
O       -0.55256295      -2.07451868      -0.14329232
N        1.43554652      -0.80177831       0.03235528
C        1.85337311       0.64941713       0.27574764
C        0.64816665       1.28397168       0.15342348
H       -2.11723544       1.20436466      -0.76442708
H       -2.21265144       0.97700670       0.84966918
H       -1.50098114      -1.88960296      -0.12383173
H        1.98173331      -1.54512378       0.44130257
H        2.16700359      -0.23069388      -0.78290609
H        0.55660580       2.35946105       0.08233136
13
Frame=7 idx=008803 GeodesicLength=0.32102045166575305 rxn_smarts="[N:1]([c:2]1[c:3]([O:4][H:10])[n:5]([H:11])[c:6]([H:12])[c:7]1[H:13])([H:8])[H:9]>>[N:1]([C:2]1=[C:3]([O:4][H:10])[N+:5]([H:11])([H:12])[C-:6]=[C:7]1[H:13])([H:8])[H:9]"
N       -1.86372884       0.58063096      -0.00802621
C       -0.45848628       0.36689257       0.04077540
C        0.05635548      -0.87907848      -0.06126308
O       -0.55364042      -2.07426811      -0.14909439
N        1.43473350      -0.80150797       0.02682131
C        1.84753021       0.64393020       0.27947474
C        0.64643644       1.28391850       0.15690853
H       -2.12304647       1.19938583      -0.76408435
H       -2.21128095       0.98341683       0.85186779
H       -1.50190736      -1.89135251      -0.11269723
H        1.97512869      -1.54594250       0.44160853
H        2.19385320      -0.22503707      -0.77993202
H        0.55805281       2.35901174       0.07764098
13
Frame=8 idx=008803 GeodesicLength=0.36686426534088107 rxn_smarts="[N:1]([c:2]1[c:3]([O:4][H:10])[n:5]([H:11])[c:6]([H:12])[c:7]1[H:13])([H:8])[H:9]>>[N:1]([C:2]1=[C:3]([O:4][H:10])[N+:5]([H:11])([H:12])[C-:6]=[C:7]1[H:13])([H:8])[H:9]"
N       -1.86640331       0.58075224      -0.00437369
C       -0.46109688       0.36660704       0.03958661
C        0.05457000      -0.87798167      -0.07068569
O       -0.55482324      -2.07400893      -0.15442085
N        1.43385947      -0.80125023       0.02116130
C        1.84174204       0.63848080       0.28239361
C        0.64469608       1.28384787       0.16023754
H       -2.12885429       1.19417365      -0.76373747
H       -2.21001504       0.99007844       0.85400854
H       -1.50269638      -1.89301994      -0.10249267
H        1.96858855      -1.54668847       0.44162746
H        2.22098327      -0.21949330      -0.77644912
H        0.55944974       2.35850252       0.07314442
13
Frame=9 idx=008803 GeodesicLength=0.4127159862846693 rxn_smarts="[N:1]([c:2]1[c:3]([O:4][H:10])[n:5]([H:11])[c:6]([H:12])[c:7]1[H:13])([H:8])[H:9]>>[N:1]([C:2]1=[C:3]([O:4][H:10])[N+:5]([H:11])([H:12])[C-:6]=[C:7]1[H:13])([H:8])[H:9]"
N       -1.86910652       0.58088181      -0.00058232
C       -0.46376129       0.36630909       0.03869231
C        0.05267207      -0.87689551      -0.07951293
O       -0.55610291      -2.07374233      -0.15936153
N        1.43291880      -0.80100662       0.01536308
C        1.83600053       0.63307095       0.28452693
C        0.64294393       1.28375842       0.16339021
H       -2.13467261       1.18875987      -0.76336146
H       -2.20882451       0.99695545       0.85609620
H       -1.50339273      -1.89461889      -0.09306338
H        1.96209711      -1.54736479       0.44136869
H        2.24844615      -0.21404641      -0.77238957
H        0.56078199       2.35793897       0.06883377
13
Frame=10 idx=008803 GeodesicLength=0.45844886078369856 rxn_smarts="[N:1]([c:2]1[c:3]([O:4][H:10])[n:5]([H:11])[c:6]([H:12])[c:7]1[H:13])([H:8])[H:9]>>[N:1]([C:2]1=[C:3]([O:4][H:10])[N+:5]([H:11])([H:12])[C-:6]=[C:7]1[H:13])([H:8])[H:9]"
N       -1.87182395       0.58102973       0.00331113
C       -0.46647355       0.36597198       0.03834045
C        0.05065381      -0.87587300      -0.08734391
O       -0.55746711      -2.07354012      -0.16334953
N        1.43194418      -0.80077267       0.00934764
C        1.83037843       0.62772680       0.28569613
C        0.64119613       1.28363858       0.16651287
H       -2.14034325       1.18303993      -0.76312769
H       -2.20782750       1.00419788       0.85797154
H       -1.50411045      -1.89611387      -0.08494760
H        1.95584225      -1.54792993       0.44064309
H        2.27601728      -0.20869830      -0.76799837
H        0.56201373       2.35732298       0.06494423
13
Frame=11 idx=008803 GeodesicLength=0.5042177768502054 rxn_smarts="[N:1]([c:2]1[c:3]([O:4][H:10])[n:5]([H:11])[c:6]([H:12])[c:7]1[H:13])([H:8])[H:9]>>[N:1]([C:2]1=[C:3]([O:4][H:10])[N+:5]([H:11])([H:12])[C-:6]=[C:7]1[H:13])([H:8])[H:9]"
N       -1.87457092       0.58118834       0.00740819
C       -0.46923676       0.36560824       0.03833828
C        0.04852062      -0.87489130      -0.09450680
O       -0.55891003      -2.07338078      -0.16676385
N        1.43091756      -0.80054954       0.00317523
C        1.82482886       0.62245092       0.28604695
C        0.63944549       1.28350347       0.16946276
H       -2.14603087       1.17707229      -0.76282146
H       -2.20689094       1.01170515       0.85983065
H       -1.50488420      -1.89752454      -0.07794659
H        1.94969817      -1.54839253       0.43964255
H        2.30395681      -0.20345082      -0.76300936
H        0.56315622       2.35666109       0.06114346
13
Frame=12 idx=008803 GeodesicLength=0.549999900432178 rxn_smarts="[N:1]([c:2]1[c:3]([O:4][H:10])[n:5]([H:11])[c:6]([H:12])[c:7]1[H:13])([H:8])[H:9]>>[N:1]([C:2]1=[C:3]([O:4][H:10])[N+:5]([H:11])([H:12])[C-:6]=[C:7]1[H:13])([H:8])[H:9]"
N       -1.87735859       0.58136657       0.01158118
C       -0.47205582       0.36523485       0.03847689
C        0.04627381      -0.87392067      -0.10142188
O       -0.56045843      -2.07322302      -0.17007829
N        1.42982541      -0.80034280      -0.00326928
C        1.81931025       0.61720337       0.28576554
C        0.63768377       1.28334960       0.17226661
H       -2.15176868       1.17098725      -0.76246458
H       -2.20601196       1.01934502       0.86162051
H       -1.50566668      -1.89892572      -0.07104733
H        1.94355418      -1.54882501       0.43826674
H        2.33244679      -0.19821221      -0.75717707
H        0.56422594       2.35596276       0.05748095
13
Frame=13 idx=008803 GeodesicLength=0.5957725272906237 rxn_smarts="[N:1]([c:2]1[c:3]([O:4][H:10])[n:5]([H:11])[c:6]([H:12])[c:7]1[H:13])([H:8])[H:9]>>[N:1]([C:2]1=[C:3]([O:4][H:10])[N+:5]([H:11])([H:12])[C-:6]=[C:7]1[H:13])([H:8])[H:9]"
N       -1.88018674       0.58156043       0.01580641
C       -0.47493400       0.36484753       0.03871086
C        0.04390737      -0.87293751      -0.10825003
O       -0.56212852      -2.07302680      -0.17344756
N        1.42865373      -0.80013713      -0.01006563
C        1.81379388       0.61195089       0.28496451
C        0.63590360       1.28315263       0.17498268
H       -2.15756838       1.16480106      -0.76205315
H       -2.20517256       1.02708572       0.86332436
H       -1.50642762      -1.90032191      -0.06390817
H        1.93736573      -1.54924842       0.43641157
H        2.36155011      -0.19291158      -0.75033077
H        0.56524339       2.35518509       0.05385492
13
Frame=14 idx=008803 GeodesicLength=0.6415317121517822 rxn_smarts="[N:1]([c:2]1[c:3]([O:4][H:10])[n:5]([H:11])[c:6]([H:12])[c:7]1[H:13])([H:8])[H:9]>>[N:1]([C:2]1=[C:3]([O:4][H:10])[N+:5]([H:11])([H:12])[C-:6]=[C:7]1[H:13])([H:8])[H:9]"
N       -1.88305057       0.58176140       0.02028611
C       -0.47786329       0.36444396       0.03912395
C        0.04142841      -0.87197522      -0.11473287
O       -0.56388106      -2.07284583      -0.17660348
N        1.42741757      -0.79994116      -0.01708016
C        1.80832112       0.60677082       0.28338852
C        0.63411977       1.28294974       0.17738104
H       -2.16351073       1.15841734      -0.76141774
H       -2.20428780       1.03500546       0.86512857
H       -1.50725491      -1.90166135      -0.05750502
H        1.93118523      -1.54956486       0.43435282
H        2.39121769      -0.18774036      -0.74247514
H        0.56615858       2.35438006       0.05015340
13
Frame=15 idx=008803 GeodesicLength=0.6873041274226618 rxn_smarts="[N:1]([c:2]1[c:3]([O:4][H:10])[n:5]([H:11])[c:6]([H:12])[c:7]1[H:13])([H:8])[H:9]>>[N:1]([C:2]1=[C:3]([O:4][H:10])[N+:5]([H:11])([H:12])[C-:6]=[C:7]1[H:13])([H:8])[H:9]"
N       -1.88596724       0.58196227       0.02505232
C       -0.48085200       0.36404149       0.03954741
C        0.03883659      -0.87099806      -0.12121396
O       -0.56574033      -2.07263656      -0.17998992
N        1.42610280      -0.79975241      -0.02435529
C        1.80284454       0.60164327       0.28121506
C        0.63232672       1.28275761       0.17939643
H       -2.16971252       1.15190875      -0.76042754
H       -2.20329016       1.04300033       0.86714940
H       -1.50809462      -1.90299586      -0.05132588
H        1.92488256      -1.54982213       0.43210098
H        2.42164972      -0.18265758      -0.73324277
H        0.56701393       2.35354887       0.04609374
13
Frame=16 idx=008803 GeodesicLength=0.7330883376571146 rxn_smarts="[N:1]([c:2]1[c:3]([O:4][H:10])[n:5]([H:11])[c:6]([H:12])[c:7]1[H:13])([H:8])[H:9]>>[N:1]([C:2]1=[C:3]([O:4][H:10])[N+:5]([H:11])([H:12])[C-:6]=[C:7]1[H:13])([H:8])[H:9]"
N       -1.88893673       0.58215239       0.03018642
C       -0.48390267       0.36364936       0.03990379
C        0.03613224      -0.86997922      -0.12786023
O       -0.56771268      -2.07236318      -0.18383203
N        1.42469760      -0.79956425      -0.03190385
C        1.79733448       0.59656452       0.27849299
C        0.63051900       1.28258487       0.18093700
H       -2.17626837       1.14527657      -0.75895198
H       -2.20209932       1.05103159       0.86950337
H       -1.50890886      -1.90433013      -0.04527221
H        1.91837882      -1.55002146       0.42969632
H        2.45294431      -0.17768090      -0.72233608
H        0.56782216       2.35267984       0.04143648
