20
Frame=0 idx=005515 GeodesicLength=0.0 rxn_smarts="[C:1]([C:2]([C:3]([C:4]([C:5]([H:15])([H:16])[H:17])([C:6]([H:18])([H:19])[H:20])[H:14])([H:12])[H:13])([H:10])[H:11])([H:7])([H:8])[H:9]>>[C:1]([C:2]([C:3]([C:4](=[C:6]([H:18])[H:19])[H:14])([H:12])[H:13])([H:10])[H:11])([H:7])([H:8])[H:9].[C:5]([H:15])([H:16])([H:17])[H:20]"
C        2.82027336       0.48547739      -0.18516914
C        1.57583487      -0.36195290      -0.41203668
C        0.32224073       0.29578035       0.16519182
C       -0.87576442      -0.59256346      -0.03174205
C       -2.18999043       0.39173481       1.29558455
C       -1.48027301      -0.70040933      -1.32337283
H        2.72191187       1.46437776      -0.66080816
H        3.70809965       0.00464465      -0.59879125
H        2.99800235       0.65250973       0.88006883
H        1.42879050      -0.54143763      -1.47954219
H        1.71174212      -1.34665858       0.04745770
H        0.14519644       1.25142245      -0.33681654
H        0.47028743       0.50855530       1.22560769
H       -0.89576218      -1.48939922       0.57819090
H       -3.24990485       0.13537594       1.18572733
H       -1.81359670      -0.00405282       2.23712110
H       -2.04345089       1.47049393       1.23016274
H       -1.26517703       0.04877765      -2.07200584
H       -2.02840857      -1.58874306      -1.59653284
H       -2.06005122      -0.08393295      -0.14829514
20
Frame=1 idx=005515 GeodesicLength=0.1064665895572083 rxn_smarts="[C:1]([C:2]([C:3]([C:4]([C:5]([H:15])([H:16])[H:17])([C:6]([H:18])([H:19])[H:20])[H:14])([H:12])[H:13])([H:10])[H:11])([H:7])([H:8])[H:9]>>[C:1]([C:2]([C:3]([C:4](=[C:6]([H:18])[H:19])[H:14])([H:12])[H:13])([H:10])[H:11])([H:7])([H:8])[H:9].[C:5]([H:15])([H:16])([H:17])[H:20]"
C        2.82635561       0.48032716      -0.18378160
C        1.58065640      -0.36536223      -0.41041192
C        0.32609297       0.29606358       0.16013717
C       -0.87577454      -0.58764007      -0.03413563
C       -2.19616956       0.39536038       1.29994079
C       -1.47811066      -0.69511753      -1.32598368
H        2.73136327       1.45707313      -0.66452166
H        3.71444677      -0.00473425      -0.59196528
H        3.00113639       0.65177072       0.88127563
H        1.43777960      -0.55009760      -1.47765676
H        1.71395827      -1.34838024       0.05365786
H        0.15162996       1.25207413      -0.34214526
H        0.47412443       0.51103406       1.22048898
H       -0.88189999      -1.48974570       0.56990666
H       -3.26006561       0.14493184       1.22140442
H       -1.81068308       0.01736487       2.24545542
H       -2.05455800       1.47416559       1.22053484
H       -1.32821440       0.08741129      -2.05692194
H       -1.96180770      -1.60885983      -1.63542278
H       -2.11026014      -0.11763932      -0.14985524
20
Frame=2 idx=005515 GeodesicLength=0.21269683231017925 rxn_smarts="[C:1]([C:2]([C:3]([C:4]([C:5]([H:15])([H:16])[H:17])([C:6]([H:18])([H:19])[H:20])[H:14])([H:12])[H:13])([H:10])[H:11])([H:7])([H:8])[H:9]>>[C:1]([C:2]([C:3]([C:4](=[C:6]([H:18])[H:19])[H:14])([H:12])[H:13])([H:10])[H:11])([H:7])([H:8])[H:9].[C:5]([H:15])([H:16])([H:17])[H:20]"
C        2.83272833       0.47516569      -0.18264475
C        1.58580766      -0.36891343      -0.40875281
C        0.33038510       0.29620207       0.15524092
C       -0.87510645      -0.58321098      -0.03611134
C       -2.20299487       0.39881927       1.30315627
C       -1.47737659      -0.68825387      -1.32740740
H        2.74098773       1.44963119      -0.66861760
H        3.72104423      -0.01409498      -0.58539842
H        3.00468983       0.65120918       0.88214870
H        1.44689189      -0.55911313      -1.47562409
H        1.71673349      -1.35012121       0.06002902
H        0.15830525       1.25239853      -0.34758063
H        0.47820331       0.51352916       1.21550452
H       -0.86753215      -1.49065397       0.56146786
H       -3.27014467       0.15522423       1.25618746
H       -1.80858821       0.04026256       2.25294166
H       -2.06653985       1.47744344       1.20909111
H       -1.39337710       0.12276219      -2.03847559
H       -1.89321125      -1.62137135      -1.67588161
H       -2.16090569      -0.15691459      -0.14927330
20
Frame=3 idx=005515 GeodesicLength=0.31883772886041806 rxn_smarts="[C:1]([C:2]([C:3]([C:4]([C:5]([H:15])([H:16])[H:17])([C:6]([H:18])([H:19])[H:20])[H:14])([H:12])[H:13])([H:10])[H:11])([H:7])([H:8])[H:9]>>[C:1]([C:2]([C:3]([C:4](=[C:6]([H:18])[H:19])[H:14])([H:12])[H:13])([H:10])[H:11])([H:7])([H:8])[H:9].[C:5]([H:15])([H:16])([H:17])[H:20]"
C        2.83943701       0.47003826      -0.18181828
C        1.59136105      -0.37259337      -0.40704075
C        0.33520400       0.29619879       0.15056979
C       -0.87359967      -0.57934096      -0.03754780
C       -2.21058021       0.40195950       1.30507644
C       -1.47820841      -0.68012470      -1.32735472
H        2.75078395       1.44207237      -0.67317637
H        3.72793851      -0.02337845      -0.57916798
H        3.00873785       0.65090785       0.88260810
H        1.45614545      -0.56851343      -1.47340060
H        1.72019906      -1.35182982       0.06660129
H        0.16524993       1.25235696      -0.35310035
H        0.48258807       0.51606693       1.21070851
H       -0.85253242      -1.49211578       0.55306794
H       -3.28025754       0.16620400       1.28939775
H       -1.80766749       0.06437792       2.25939216
H       -2.07935354       1.48018636       1.19599053
H       -1.46007424       0.15447019      -2.01668297
H       -1.82399561      -1.62553435      -1.71744495
H       -2.21137577      -0.20140827      -0.14667774
20
Frame=4 idx=005515 GeodesicLength=0.4250136429001574 rxn_smarts="[C:1]([C:2]([C:3]([C:4]([C:5]([H:15])([H:16])[H:17])([C:6]([H:18])([H:19])[H:20])[H:14])([H:12])[H:13])([H:10])[H:11])([H:7])([H:8])[H:9]>>[C:1]([C:2]([C:3]([C:4](=[C:6]([H:18])[H:19])[H:14])([H:12])[H:13])([H:10])[H:11])([H:7])([H:8])[H:9].[C:5]([H:15])([H:16])([H:17])[H:20]"
C        2.84652314       0.46502099      -0.18136053
C        1.59738838      -0.37638457      -0.40523101
C        0.34061912       0.29606726       0.14619205
C       -0.87112278      -0.57607412      -0.03833088
C       -2.21899702       0.40460651       1.30564359
C       -1.48070266      -0.67111140      -1.32558909
H        2.76073458       1.43442693      -0.67831861
H        3.73518398      -0.03249979      -0.57332940
H        3.01334412       0.65102694       0.88257469
H        1.46556903      -0.57836656      -1.47092403
H        1.72448510      -1.35343269       0.07347400
H        0.17247775       1.25191998      -0.35868732
H        0.48733280       0.51869005       1.20616027
H       -0.83682730      -1.49412501       0.54489706
H       -3.29051834       0.17777263       1.32035874
H       -1.80824884       0.08922648       2.26469101
H       -2.09284426       1.48228725       1.18161613
H       -1.52750800       0.18209311      -1.99174673
H       -1.75583294      -1.62092623      -1.75962441
H       -2.26105586      -0.25021775      -0.14246553
20
Frame=5 idx=005515 GeodesicLength=0.5309835812633561 rxn_smarts="[C:1]([C:2]([C:3]([C:4]([C:5]([H:15])([H:16])[H:17])([C:6]([H:18])([H:19])[H:20])[H:14])([H:12])[H:13])([H:10])[H:11])([H:7])([H:8])[H:9]>>[C:1]([C:2]([C:3]([C:4](=[C:6]([H:18])[H:19])[H:14])([H:12])[H:13])([H:10])[H:11])([H:7])([H:8])[H:9].[C:5]([H:15])([H:16])([H:17])[H:20]"
C        2.85399610       0.46021874      -0.18121220
C        1.60385145      -0.38031223      -0.40334978
C        0.34652827       0.29570122       0.14197491
C       -0.86790391      -0.57355814      -0.03880235
C       -2.22824723       0.40681219       1.30504337
C       -1.48468815      -0.66156419      -1.32219731
H        2.77085407       1.42685907      -0.68406416
H        3.74281437      -0.04133939      -0.56774206
H        3.01851828       0.65168600       0.88216206
H        1.47514783      -0.58865468      -1.46825828
H        1.72954691      -1.35511177       0.08068953
H        0.17988652       1.25108875      -0.36446641
H        0.49241106       0.52125038       1.20180710
H       -0.82068562      -1.49695006       0.53661473
H       -3.30090614       0.19011612       1.34902217
H       -1.81033200       0.11460321       2.26879762
H       -2.10694036       1.48363968       1.16644976
H       -1.59530222       0.20529398      -1.96408077
H       -1.68905555      -1.60775927      -1.80171572
H       -2.30949368      -0.30201960      -0.13667220
20
Frame=6 idx=005515 GeodesicLength=0.6370514536155321 rxn_smarts="[C:1]([C:2]([C:3]([C:4]([C:5]([H:15])([H:16])[H:17])([C:6]([H:18])([H:19])[H:20])[H:14])([H:12])[H:13])([H:10])[H:11])([H:7])([H:8])[H:9]>>[C:1]([C:2]([C:3]([C:4](=[C:6]([H:18])[H:19])[H:14])([H:12])[H:13])([H:10])[H:11])([H:7])([H:8])[H:9].[C:5]([H:15])([H:16])([H:17])[H:20]"
C        2.86183216       0.45558440      -0.18144303
C        1.61080184      -0.38428739      -0.40135935
C        0.35302333       0.29529519       0.13798912
C       -0.86367849      -0.57153411      -0.03866001
C       -2.23832122       0.40826782       1.30330432
C       -1.49015511      -0.65195724      -1.31700007
H        2.78111222       1.41921855      -0.69043104
H        3.75079585      -0.04996716      -0.56251658
H        3.02419790       0.65286263       0.88122257
H        1.48496351      -0.59941378      -1.46529822
H        1.73542021      -1.35655671       0.08825813
H        0.18752218       1.24987435      -0.37045429
H        0.49783456       0.52403946       1.19760968
H       -0.80391021      -1.50009924       0.52868388
H       -3.31158295       0.20280900       1.37483283
H       -1.81419251       0.13962879       2.27171758
H       -2.12130568       1.48417599       1.15100818
H       -1.66239345       0.22388232      -1.93408714
H       -1.62538739      -1.58624926      -1.84304545
H       -2.35657675      -0.35557360      -0.13033111
20
Frame=7 idx=005515 GeodesicLength=0.7431864499975467 rxn_smarts="[C:1]([C:2]([C:3]([C:4]([C:5]([H:15])([H:16])[H:17])([C:6]([H:18])([H:19])[H:20])[H:14])([H:12])[H:13])([H:10])[H:11])([H:7])([H:8])[H:9]>>[C:1]([C:2]([C:3]([C:4](=[C:6]([H:18])[H:19])[H:14])([H:12])[H:13])([H:10])[H:11])([H:7])([H:8])[H:9].[C:5]([H:15])([H:16])([H:17])[H:20]"
C        2.87002704       0.45117218      -0.18203072
C        1.61822932      -0.38828993      -0.39925263
C        0.36006823       0.29484108       0.13418599
C       -0.85850294      -0.57001737      -0.03799326
C       -2.24915470       0.40890708       1.30061727
C       -1.49693467      -0.64266699      -1.31004376
H        2.79150850       1.41156106      -0.69742324
H        3.75913447      -0.05831829      -0.55759968
H        3.03036943       0.65461877       0.87979194
H        1.49502837      -0.61063662      -1.46204530
H        1.74207820      -1.35776804       0.09622453
H        0.19534092       1.24828078      -0.37671072
H        0.50359761       0.52705881       1.19353062
H       -0.78658875      -1.50358538       0.52108537
H       -3.32256135       0.21573143       1.39786250
H       -1.81976465       0.16395569       2.27352902
H       -2.13578964       1.48384594       1.13567106
H       -1.72808261       0.23783390      -1.90231198
H       -1.56556697      -1.55695942      -1.88303089
H       -2.40243582      -0.40956468      -0.12405610
20
Frame=8 idx=005515 GeodesicLength=0.8492915647263014 rxn_smarts="[C:1]([C:2]([C:3]([C:4]([C:5]([H:15])([H:16])[H:17])([C:6]([H:18])([H:19])[H:20])[H:14])([H:12])[H:13])([H:10])[H:11])([H:7])([H:8])[H:9]>>[C:1]([C:2]([C:3]([C:4](=[C:6]([H:18])[H:19])[H:14])([H:12])[H:13])([H:10])[H:11])([H:7])([H:8])[H:9].[C:5]([H:15])([H:16])([H:17])[H:20]"
C        2.87856784       0.44698857      -0.18296180
C        1.62612868      -0.39229074      -0.39699461
C        0.36762555       0.29439523       0.13053817
C       -0.85243003      -0.56890137      -0.03680050
C       -2.26064394       0.40865231       1.29720087
C       -1.50483575      -0.63400904      -1.30144764
H        2.80204203       1.40385300      -0.70505131
H        3.76783593      -0.06639091      -0.55294321
H        3.03698588       0.65699579       0.87786495
H        1.50538696      -0.62235004      -1.45845209
H        1.74947986      -1.35865764       0.10466820
H        0.20331314       1.24632247      -0.38329530
H        0.50967030       0.53040935       1.18951093
H       -0.76879501      -1.50725616       0.51389315
H       -3.33381991       0.22868013       1.41827758
H       -1.82688024       0.18720248       2.27438650
H       -2.15023059       1.48268199       1.12075343
H       -1.79170197       0.24722578      -1.86928005
H       -1.51028235      -1.52048959      -1.92129875
H       -2.44741638      -0.46306163      -0.11856850
20
Frame=9 idx=005515 GeodesicLength=0.9550562193904651 rxn_smarts="[C:1]([C:2]([C:3]([C:4]([C:5]([H:15])([H:16])[H:17])([C:6]([H:18])([H:19])[H:20])[H:14])([H:12])[H:13])([H:10])[H:11])([H:7])([H:8])[H:9]>>[C:1]([C:2]([C:3]([C:4](=[C:6]([H:18])[H:19])[H:14])([H:12])[H:13])([H:10])[H:11])([H:7])([H:8])[H:9].[C:5]([H:15])([H:16])([H:17])[H:20]"
C        2.88742782       0.44308188      -0.18412814
C        1.63441995      -0.39637142      -0.39466032
C        0.37556403       0.29384183       0.12681279
C       -0.84575243      -0.56830342      -0.03559056
C       -2.27277208       0.40764160       1.29329958
C       -1.51353766      -0.62611487      -1.29154034
H        2.81270329       1.39625375      -0.71326413
H        3.77688687      -0.07416812      -0.54832505
H        3.04401501       0.66004982       0.87560886
H        1.51600604      -0.63456254      -1.45461572
H        1.75753707      -1.35953112       0.11353611
H        0.21132387       1.24405679      -0.39039109
H        0.51603023       0.53393435       1.18542077
H       -0.75080786      -1.51142638       0.50655816
H       -3.34529659       0.24183631       1.43680941
H       -1.83527879       0.20955245       2.27432320
H       -2.16470083       1.48053700       1.10631832
H       -1.85336020       0.25239126      -1.83531196
H       -1.45842870      -1.47758769      -1.95727853
H       -2.49197904      -0.51511147      -0.11358135
20
Frame=10 idx=005515 GeodesicLength=1.0607357869242482 rxn_smarts="[C:1]([C:2]([C:3]([C:4]([C:5]([H:15])([H:16])[H:17])([C:6]([H:18])([H:19])[H:20])[H:14])([H:12])[H:13])([H:10])[H:11])([H:7])([H:8])[H:9]>>[C:1]([C:2]([C:3]([C:4](=[C:6]([H:18])[H:19])[H:14])([H:12])[H:13])([H:10])[H:11])([H:7])([H:8])[H:9].[C:5]([H:15])([H:16])([H:17])[H:20]"
C        2.89660073       0.43938955      -0.18560010
C        1.64314791      -0.40042382      -0.39216167
C        0.38395261       0.29335587       0.12315023
C       -0.83828326      -0.56794419      -0.03396006
C       -2.28539525       0.40567140       1.28900306
C       -1.52294727      -0.61930815      -1.28025183
H        2.82350934       1.38855823      -0.72208687
H        3.78627723      -0.08169434      -0.54387882
H        3.05140665       0.66372525       0.87288236
H        1.52696334      -0.64727578      -1.45040956
H        1.76622550      -1.36001644       0.12292540
H        0.21946126       1.24145937      -0.39792448
H        0.52266134       0.53789550       1.18127201
H       -0.73245841      -1.51557899       0.49965399
H       -3.35698439       0.25476839       1.45336010
H       -1.84483813       0.23048699       2.27354409
H       -2.17898001       1.47754761       1.09252297
H       -1.91212038       0.25362303      -1.80086395
H       -1.41142125      -1.42875531      -1.99082172
H       -2.53677756      -0.56548416      -0.11035514
20
Frame=11 idx=005515 GeodesicLength=1.1661959692638293 rxn_smarts="[C:1]([C:2]([C:3]([C:4]([C:5]([H:15])([H:16])[H:17])([C:6]([H:18])([H:19])[H:20])[H:14])([H:12])[H:13])([H:10])[H:11])([H:7])([H:8])[H:9]>>[C:1]([C:2]([C:3]([C:4](=[C:6]([H:18])[H:19])[H:14])([H:12])[H:13])([H:10])[H:11])([H:7])([H:8])[H:9].[C:5]([H:15])([H:16])([H:17])[H:20]"
C        2.90610349       0.43593114      -0.18736918
C        1.65230946      -0.40444075      -0.38951694
C        0.39277135       0.29291525       0.11950724
C       -0.83009265      -0.56783102      -0.03201222
C       -2.29849201       0.40273593       1.28442837
C       -1.53284504      -0.61371602      -1.26768930
H        2.83448039       1.38081117      -0.73149930
H        3.79602284      -0.08893942      -0.53958965
H        3.05918826       0.66800976       0.86969439
H        1.53826034      -0.66044372      -1.44584191
H        1.77553240      -1.36015250       0.13280512
H        0.22771450       1.23854179      -0.40590447
H        0.52957795       0.54225077       1.17702820
H       -0.71378166      -1.51973597       0.49312110
H       -3.36888147       0.26742955       1.46824026
H       -1.85544054       0.24997565       2.27213046
H       -2.19307297       1.47365732       1.07939174
H       -1.96771276       0.25126504      -1.76624589
H       -1.36924890      -1.37462698      -2.02140327
H       -2.58239297      -0.61363699      -0.10927475
20
Frame=12 idx=005515 GeodesicLength=1.2713607057414114 rxn_smarts="[C:1]([C:2]([C:3]([C:4]([C:5]([H:15])([H:16])[H:17])([C:6]([H:18])([H:19])[H:20])[H:14])([H:12])[H:13])([H:10])[H:11])([H:7])([H:8])[H:9]>>[C:1]([C:2]([C:3]([C:4](=[C:6]([H:18])[H:19])[H:14])([H:12])[H:13])([H:10])[H:11])([H:7])([H:8])[H:9].[C:5]([H:15])([H:16])([H:17])[H:20]"
C        2.91594405       0.43271577      -0.18945486
C        1.66190948      -0.40841491      -0.38671672
C        0.40201580       0.29252370       0.11588617
C       -0.82120732      -0.56793561      -0.02974227
C       -2.31203060       0.39880971       1.27967287
C       -1.54307839      -0.60946935      -1.25393168
H        2.84561484       1.37300150      -0.74153201
H        3.80613551      -0.09589030      -0.53547279
H        3.06737507       0.67293235       0.86601178
H        1.54989002      -0.67407418      -1.44088838
H        1.78546357      -1.35991621       0.14320053
H        0.23608280       1.23530262      -0.41432244
H        0.53679506       0.54701332       1.17268420
H       -0.69476981      -1.52386841       0.48700436
H       -3.38096736       0.27974102       1.48167170
H       -1.86696690       0.26793923       2.27018916
H       -2.20697152       1.46886471       1.06693008
H       -2.01981358       0.24580524      -1.73172427
H       -1.33203483      -1.31579637      -2.04863184
H       -2.62938590      -0.65928384      -0.11083358
20
Frame=13 idx=005515 GeodesicLength=1.3758999400538388 rxn_smarts="[C:1]([C:2]([C:3]([C:4]([C:5]([H:15])([H:16])[H:17])([C:6]([H:18])([H:19])[H:20])[H:14])([H:12])[H:13])([H:10])[H:11])([H:7])([H:8])[H:9]>>[C:1]([C:2]([C:3]([C:4](=[C:6]([H:18])[H:19])[H:14])([H:12])[H:13])([H:10])[H:11])([H:7])([H:8])[H:9].[C:5]([H:15])([H:16])([H:17])[H:20]"
C        2.92610707       0.42977225      -0.19183401
C        1.67192442      -0.41238346      -0.38381576
C        0.41165668       0.29215681       0.11219191
C       -0.81172687      -0.56826582      -0.02740685
C       -2.32603556       0.39388678       1.27481227
C       -1.55346504      -0.60645475      -1.23918874
H        2.85688431       1.36521387      -0.75220123
H        3.81660231      -0.10255831      -0.53144961
H        3.07596358       0.67856489       0.86188479
H        1.56181370      -0.68818349      -1.43560632
H        1.79602246      -1.35945604       0.15404966
H        0.24453736       1.23183615      -0.42320987
H        0.54433514       0.55210866       1.16821273
H       -0.67548248      -1.52811020       0.48099692
H       -3.39324490       0.29170632       1.49396223
H       -1.87932724       0.28438973       2.26772122
H       -2.22071859       1.46302531       1.05512220
H       -2.06848585       0.23788002      -1.69738699
H       -1.29913134      -1.25334284      -2.07192248
H       -2.67822916      -0.70178587      -0.11493204
20
Frame=14 idx=005515 GeodesicLength=1.4803430475565282 rxn_smarts="[C:1]([C:2]([C:3]([C:4]([C:5]([H:15])([H:16])[H:17])([C:6]([H:18])([H:19])[H:20])[H:14])([H:12])[H:13])([H:10])[H:11])([H:7])([H:8])[H:9]>>[C:1]([C:2]([C:3]([C:4](=[C:6]([H:18])[H:19])[H:14])([H:12])[H:13])([H:10])[H:11])([H:7])([H:8])[H:9].[C:5]([H:15])([H:16])([H:17])[H:20]"
C        2.93663072       0.42708953      -0.19457963
C        1.68238621      -0.41626486      -0.38075619
C        0.42174720       0.29187442       0.10855143
C       -0.80156850      -0.56870397      -0.02472783
C       -2.34041513       0.38790522       1.26990121
C       -1.56385747      -0.60491322      -1.22338735
H        2.86834198       1.35735025      -0.76354726
H        3.82744413      -0.10890930      -0.52766834
H        3.08500099       0.68486027       0.85719182
H        1.57404419      -0.70269678      -1.42991370
H        1.80719230      -1.35855478       0.16541150
H        0.25316346       1.22808977      -0.43245539
H        0.55222320       0.55761772       1.16366381
H       -0.65582964      -1.53219945       0.47552904
H       -3.40566138       0.30315993       1.50514010
H       -1.89240122       0.29916744       2.26487186
H       -2.23425136       1.45623420       1.04396534
H       -2.11319852       0.22802694      -1.66350471
H       -1.27131607      -1.18777729      -2.09109578
H       -2.72967509      -0.74135604      -0.12258993
20
Frame=15 idx=005515 GeodesicLength=1.5847577733686637 rxn_smarts="[C:1]([C:2]([C:3]([C:4]([C:5]([H:15])([H:16])[H:17])([C:6]([H:18])([H:19])[H:20])[H:14])([H:12])[H:13])([H:10])[H:11])([H:7])([H:8])[H:9]>>[C:1]([C:2]([C:3]([C:4](=[C:6]([H:18])[H:19])[H:14])([H:12])[H:13])([H:10])[H:11])([H:7])([H:8])[H:9].[C:5]([H:15])([H:16])([H:17])[H:20]"
C        2.94752459       0.42469912      -0.19773189
C        1.69329680      -0.42003809      -0.37757158
C        0.43229987       0.29168187       0.10497807
C       -0.79075412      -0.56923142      -0.02173587
C       -2.35519399       0.38082852       1.26500392
C       -1.57409318      -0.60479928      -1.20658637
H        2.87997301       1.34946613      -0.77559706
H        3.83866198      -0.11491169      -0.52419295
H        3.09454066       0.69183933       0.85189305
H        1.58653286      -0.71754559      -1.42383919
H        1.81900440      -1.35723936       0.17721529
H        0.26196608       1.22412480      -0.44197814
H        0.56051575       0.56349456       1.15907405
H       -0.63579190      -1.53614869       0.47058423
H       -3.41824317       0.31404747       1.51534457
H       -1.90617458       0.31219038       2.26171588
H       -2.24757160       1.44842747       1.03351175
H       -2.15378343       0.21698901      -1.63024454
H       -1.24840325      -1.12033568      -2.10562887
H       -2.78430680      -0.77753886      -0.13421436
20
Frame=16 idx=005515 GeodesicLength=1.689335151231938 rxn_smarts="[C:1]([C:2]([C:3]([C:4]([C:5]([H:15])([H:16])[H:17])([C:6]([H:18])([H:19])[H:20])[H:14])([H:12])[H:13])([H:10])[H:11])([H:7])([H:8])[H:9]>>[C:1]([C:2]([C:3]([C:4](=[C:6]([H:18])[H:19])[H:14])([H:12])[H:13])([H:10])[H:11])([H:7])([H:8])[H:9].[C:5]([H:15])([H:16])([H:17])[H:20]"
C        2.95879973       0.42262467      -0.20132525
C        1.70465043      -0.42365596      -0.37429252
C        0.44332736       0.29161721       0.10150622
C       -0.77930568      -0.56976828      -0.01840089
C       -2.37035901       0.37263725       1.26020190
C       -1.58403215      -0.60599192      -1.18884712
H        2.89177713       1.34160732      -0.78834850
H        3.85025238      -0.12053584      -0.52110397
H        3.10463035       0.69948692       0.84595278
H        1.59923173      -0.73261590      -1.41741512
H        1.83145842      -1.35549206       0.18937786
H        0.27096416       1.22002144      -0.45167587
H        0.56926550       0.56972258       1.15448664
H       -0.61536761      -1.53989345       0.46619537
H       -3.43097411       0.32432403       1.52469607
H       -1.92060783       0.32331781       2.25837287
H       -2.26063909       1.43961061       1.02387812
H       -2.19013007       0.20547727      -1.59776652
H       -1.23026182      -1.05246809      -2.11510989
H       -2.84267983      -0.81002559      -0.15038217
