14
Frame=0 idx=001386 GeodesicLength=0.0 rxn_smarts="[C:1]([C:2](=[O:3])[C:4]1([H:10])[C:5]([H:11])([H:12])[C:6]1([H:13])[H:14])([H:7])([H:8])[H:9]>>[C:1]([C:2]1=[C:4]([H:10])[C:6]([H:13])([H:14])[C:5]([H:11])([H:12])[O:3]1)([H:7])([H:8])[H:9]"
C       -2.18405970       0.10119117       0.34983302
C       -0.71113893       0.34094958       0.11879446
O       -0.24989159       1.48734551       0.31300940
C        0.11829920      -0.71614007      -0.24926297
C        1.73617783       0.66084422      -0.48484099
C        1.59040148      -0.62513901       0.13146862
H       -2.50481695      -0.88372908       0.01340905
H       -2.38414608       0.18772878       1.41958335
H       -2.76516140       0.87041538      -0.15850386
H       -0.24107626      -1.61593667      -0.73048033
H        1.96732195       1.56372530       0.05706569
H        1.71227892       0.71771905      -1.56485524
H        2.10317798      -1.41922976      -0.41195843
H        1.81263352      -0.66974437       1.19673822
14
Frame=1 idx=001386 GeodesicLength=0.04738971644145977 rxn_smarts="[C:1]([C:2](=[O:3])[C:4]1([H:10])[C:5]([H:11])([H:12])[C:6]1([H:13])[H:14])([H:7])([H:8])[H:9]>>[C:1]([C:2]1=[C:4]([H:10])[C:6]([H:13])([H:14])[C:5]([H:11])([H:12])[O:3]1)([H:7])([H:8])[H:9]"
C       -2.18416586       0.10264931       0.34939168
C       -0.71011082       0.33570106       0.12958156
O       -0.24157963       1.48274102       0.31475563
C        0.12246939      -0.71562136      -0.24991020
C        1.71387456       0.66068395      -0.49277459
C        1.59123336      -0.62524507       0.13754665
H       -2.51157996      -0.87005965      -0.01523646
H       -2.38533711       0.16008425       1.42095115
H       -2.75984444       0.88853927      -0.13918726
H       -0.23848043      -1.61529761      -0.72977872
H        1.96963466       1.56107248       0.04263618
H        1.71062862       0.70841731      -1.57365417
H        2.11418170      -1.41742259      -0.39831068
H        1.80907595      -0.65624238       1.20398922
14
Frame=2 idx=001386 GeodesicLength=0.0947624546736801 rxn_smarts="[C:1]([C:2](=[O:3])[C:4]1([H:10])[C:5]([H:11])([H:12])[C:6]1([H:13])[H:14])([H:7])([H:8])[H:9]>>[C:1]([C:2]1=[C:4]([H:10])[C:6]([H:13])([H:14])[C:5]([H:11])([H:12])[O:3]1)([H:7])([H:8])[H:9]"
C       -2.18424061       0.10417968       0.34891203
C       -0.70906164       0.33038477       0.14059180
O       -0.23339576       1.47807347       0.31655901
C        0.12658289      -0.71518238      -0.25014252
C        1.69180171       0.66030008      -0.50063693
C        1.59211889      -0.62519313       0.14352356
H       -2.51798648      -0.85544725      -0.04380394
H       -2.38710451       0.13228167       1.42137712
H       -2.75433761       0.90618965      -0.11954239
H       -0.23594223      -1.61477731      -0.72858389
H        1.97169106       1.55799027       0.02773410
H        1.70885708       0.69926496      -1.58194123
H        2.12515279      -1.41519767      -0.38493907
H        1.80586444      -0.64286682       1.21089236
14
Frame=3 idx=001386 GeodesicLength=0.14210790150191005 rxn_smarts="[C:1]([C:2](=[O:3])[C:4]1([H:10])[C:5]([H:11])([H:12])[C:6]1([H:13])[H:14])([H:7])([H:8])[H:9]>>[C:1]([C:2]1=[C:4]([H:10])[C:6]([H:13])([H:14])[C:5]([H:11])([H:12])[O:3]1)([H:7])([H:8])[H:9]"
C       -2.18423576       0.10573792       0.34852114
C       -0.70804585       0.32510974       0.15140035
O       -0.22541501       1.47345715       0.31797906
C        0.13060718      -0.71473770      -0.25029890
C        1.67005082       0.65969897      -0.50831181
C        1.59293611      -0.62501823       0.14942051
H       -2.52395111      -0.84011127      -0.07177719
H       -2.38905749       0.10453657       1.42103855
H       -2.74884516       0.92313027      -0.09949214
H       -0.23347941      -1.61427124      -0.72728006
H        1.97347769       1.55445529       0.01262463
H        1.70729931       0.69031153      -1.58961938
H        2.13604480      -1.41260516      -0.37173534
H        1.80261388      -0.62969386       1.21753059
14
Frame=4 idx=001386 GeodesicLength=0.18943757507072906 rxn_smarts="[C:1]([C:2](=[O:3])[C:4]1([H:10])[C:5]([H:11])([H:12])[C:6]1([H:13])[H:14])([H:7])([H:8])[H:9]>>[C:1]([C:2]1=[C:4]([H:10])[C:6]([H:13])([H:14])[C:5]([H:11])([H:12])[O:3]1)([H:7])([H:8])[H:9]"
C       -2.18416961       0.10734915       0.34813983
C       -0.70703145       0.31982771       0.16219685
O       -0.21757569       1.46882726       0.31928032
C        0.13456510      -0.71435114      -0.25019079
C        1.64856600       0.65887883      -0.51588742
C        1.59375834      -0.62471418       0.15524626
H       -2.52952266      -0.82390652      -0.09950363
H       -2.39136150       0.07668141       1.41982387
H       -2.74326944       0.93953406      -0.07901826
H       -0.23107646      -1.61385641      -0.72565619
H        1.97498586       1.55051169      -0.00282152
H        1.70569675       0.68150152      -1.59680639
H        2.14690184      -1.40964756      -0.35870935
H        1.79953291      -0.61663583       1.22390643
14
Frame=5 idx=001386 GeodesicLength=0.23677630969649455 rxn_smarts="[C:1]([C:2](=[O:3])[C:4]1([H:10])[C:5]([H:11])([H:12])[C:6]1([H:13])[H:14])([H:7])([H:8])[H:9]>>[C:1]([C:2]1=[C:4]([H:10])[C:6]([H:13])([H:14])[C:5]([H:11])([H:12])[O:3]1)([H:7])([H:8])[H:9]"
C       -2.18403879       0.10902984       0.34772817
C       -0.70601047       0.31452712       0.17300082
O       -0.20985410       1.46415146       0.32053612
C        0.13847057      -0.71405301      -0.24974302
C        1.62730990       0.65782358      -0.52341784
C        1.59460663      -0.62426074       0.16103176
H       -2.53471695      -0.80663611      -0.12729910
H       -2.39401284       0.04845215       1.41764944
H       -2.73758193       0.95554694      -0.05789447
H       -0.22871434      -1.61359853      -0.72356184
H        1.97618010       1.54618410      -0.01870575
H        1.70393869       0.67273506      -1.60358197
H        2.15775496      -1.40631974      -0.34578847
H        1.79666858      -0.60358213       1.23004616
14
Frame=6 idx=001386 GeodesicLength=0.28410726504631295 rxn_smarts="[C:1]([C:2](=[O:3])[C:4]1([H:10])[C:5]([H:11])([H:12])[C:6]1([H:13])[H:14])([H:7])([H:8])[H:9]>>[C:1]([C:2]1=[C:4]([H:10])[C:6]([H:13])([H:14])[C:5]([H:11])([H:12])[O:3]1)([H:7])([H:8])[H:9]"
C       -2.18382661       0.11075401       0.34734758
C       -0.70500201       0.30925829       0.18364523
O       -0.20227390       1.45949084       0.32157214
C        0.14230981      -0.71380752      -0.24911482
C        1.60633097       0.65655024      -0.53084247
C        1.59543324      -0.62369346       0.16677447
H       -2.53949027      -0.78847429      -0.15479337
H       -2.39686686       0.02009046       1.41458698
H       -2.73187008       0.97099032      -0.03621895
H       -0.22641059      -1.61343536      -0.72121687
H        1.97707243       1.54147333      -0.03484719
H        1.70215021       0.66407004      -1.60991026
H        2.16857562      -1.40265649      -0.33296548
H        1.79386803      -0.59061043       1.23598302
14
Frame=7 idx=001386 GeodesicLength=0.331410011555839 rxn_smarts="[C:1]([C:2](=[O:3])[C:4]1([H:10])[C:5]([H:11])([H:12])[C:6]1([H:13])[H:14])([H:7])([H:8])[H:9]>>[C:1]([C:2]1=[C:4]([H:10])[C:6]([H:13])([H:14])[C:5]([H:11])([H:12])[O:3]1)([H:7])([H:8])[H:9]"
C       -2.18352148       0.11249628       0.34705295
C       -0.70401991       0.30406380       0.19399159
O       -0.19485570       1.45488318       0.32225693
C        0.14607430      -0.71357530      -0.24844685
C        1.58567636       0.65507435      -0.53810838
C        1.59619493      -0.62304418       0.17246202
H       -2.54381843      -0.76962727      -0.18161030
H       -2.39980802      -0.00813024       1.41072227
H       -2.72619995       0.98569308      -0.01414807
H       -0.22417300      -1.61328578      -0.71883126
H        1.97767939       1.53636699      -0.05107118
H        1.70044290       0.65556688      -1.61575076
H        2.17933550      -1.39868093      -0.32024782
H        1.79099310      -0.57780087       1.24172887
14
Frame=8 idx=001386 GeodesicLength=0.37866012207552185 rxn_smarts="[C:1]([C:2](=[O:3])[C:4]1([H:10])[C:5]([H:11])([H:12])[C:6]1([H:13])[H:14])([H:7])([H:8])[H:9]>>[C:1]([C:2]1=[C:4]([H:10])[C:6]([H:13])([H:14])[C:5]([H:11])([H:12])[O:3]1)([H:7])([H:8])[H:9]"
C       -2.18311937       0.11422331       0.34690989
C       -0.70308752       0.29899946       0.20386450
O       -0.18763055       1.45037022       0.32243687
C        0.14975042      -0.71330699      -0.24790606
C        1.56540064       0.65341422      -0.54516804
C        1.59683663      -0.62234062       0.17808480
H       -2.54770937      -0.75035313      -0.20738148
H       -2.40266198      -0.03593519       1.40620653
H       -2.72064052       0.99950067       0.00816191
H       -0.22201098      -1.61305274      -0.71664850
H        1.97802773       1.53085035      -0.06719863
H        1.69897205       0.64727973      -1.62104286
H        2.18999678      -1.39442005      -0.30761348
H        1.78787602      -0.56522923       1.24729453
14
Frame=9 idx=001386 GeodesicLength=0.42587884541253707 rxn_smarts="[C:1]([C:2](=[O:3])[C:4]1([H:10])[C:5]([H:11])([H:12])[C:6]1([H:13])[H:14])([H:7])([H:8])[H:9]>>[C:1]([C:2]1=[C:4]([H:10])[C:6]([H:13])([H:14])[C:5]([H:11])([H:12])[O:3]1)([H:7])([H:8])[H:9]"
C       -2.18262755       0.11594789       0.34688217
C       -0.70218900       0.29402558       0.21333255
O       -0.18056974       1.44592884       0.32219887
C        0.15335513      -0.71304283      -0.24741247
C        1.54547949       0.65157837      -0.55206647
C        1.59739022      -0.62158090       0.18366239
H       -2.55120566      -0.73055651      -0.23228774
H       -2.40548806      -0.06344405       1.40098571
H       -2.71515945       1.01252092       0.03077835
H       -0.21991029      -1.61279536      -0.71458309
H        1.97812388       1.52496524      -0.08327870
H        1.69761703       0.63916515      -1.62587909
H        2.20058782      -1.38987534      -0.29504225
H        1.78459619      -0.55283699       1.25270978
14
Frame=10 idx=001386 GeodesicLength=0.4730928745802226 rxn_smarts="[C:1]([C:2](=[O:3])[C:4]1([H:10])[C:5]([H:11])([H:12])[C:6]1([H:13])[H:14])([H:7])([H:8])[H:9]>>[C:1]([C:2]1=[C:4]([H:10])[C:6]([H:13])([H:14])[C:5]([H:11])([H:12])[O:3]1)([H:7])([H:8])[H:9]"
C       -2.18205708       0.11769149       0.34690785
C       -0.70130046       0.28913031       0.22252206
O       -0.17363480       1.44153106       0.32167363
C        0.15691042      -0.71282430      -0.24682225
C        1.52585712       0.64954691      -0.55887947
C        1.59790293      -0.62073901       0.18922779
H       -2.55434581      -0.70998521      -0.25675706
H       -2.40836625      -0.09100050       1.39492409
H       -2.70968889       1.02493244       0.05394112
H       -0.21785161      -1.61258603      -0.71241420
H        1.97794088       1.51874774      -0.09947330
H        1.69620379       0.63109352      -1.63036717
H        2.21114909      -1.38504032      -0.28246946
H        1.78128069      -0.54049810       1.25798638
14
Frame=11 idx=001386 GeodesicLength=0.5202822954269922 rxn_smarts="[C:1]([C:2](=[O:3])[C:4]1([H:10])[C:5]([H:11])([H:12])[C:6]1([H:13])[H:14])([H:7])([H:8])[H:9]>>[C:1]([C:2]1=[C:4]([H:10])[C:6]([H:13])([H:14])[C:5]([H:11])([H:12])[O:3]1)([H:7])([H:8])[H:9]"
C       -2.18140280       0.11942823       0.34704154
C       -0.70043771       0.28434000       0.23130914
O       -0.16684984       1.43720399       0.32075605
C        0.16040367      -0.71260843      -0.24628951
C        1.50657852       0.64734481      -0.56555103
C        1.59833081      -0.61985378       0.19475081
H       -2.55712118      -0.68894551      -0.28035652
H       -2.41117867      -0.11822690       1.38817492
H       -2.70428556       1.03656679       0.07735941
H       -0.21585029      -1.61235012      -0.71035437
H        1.97751762       1.51218654      -0.11557046
H        1.69485552       0.62317671      -1.63444701
H        2.22164061      -1.37993492      -0.26994461
H        1.77779932      -0.52832740       1.26312165
14
Frame=12 idx=001386 GeodesicLength=0.5674566966302432 rxn_smarts="[C:1]([C:2](=[O:3])[C:4]1([H:10])[C:5]([H:11])([H:12])[C:6]1([H:13])[H:14])([H:7])([H:8])[H:9]>>[C:1]([C:2]1=[C:4]([H:10])[C:6]([H:13])([H:14])[C:5]([H:11])([H:12])[O:3]1)([H:7])([H:8])[H:9]"
C       -2.18067431       0.12118857       0.34720329
C       -0.69957632       0.27960904       0.23989958
O       -0.16017113       1.43289804       0.31965677
C        0.16385843      -0.71245367      -0.24563247
C        1.48757041       0.64496403      -0.57214574
C        1.59874785      -0.61890518       0.20024426
H       -2.55953006      -0.66719917      -0.30347212
H       -2.41410450      -0.14536368       1.38055373
H       -2.69885335       1.04757819       0.10116399
H       -0.21389130      -1.61218411      -0.70814666
H        1.97682777       1.50531736      -0.13171859
H        1.69332868       0.61531510      -1.63823485
H        2.23212005      -1.37453759      -0.25747875
H        1.77434780      -0.51622693       1.26810756
14
Frame=13 idx=001386 GeodesicLength=0.6146106079487264 rxn_smarts="[C:1]([C:2](=[O:3])[C:4]1([H:10])[C:5]([H:11])([H:12])[C:6]1([H:13])[H:14])([H:7])([H:8])[H:9]>>[C:1]([C:2]1=[C:4]([H:10])[C:6]([H:13])([H:14])[C:5]([H:11])([H:12])[O:3]1)([H:7])([H:8])[H:9]"
C       -2.17986894       0.12292640       0.34748462
C       -0.69873376       0.27498763       0.24804676
O       -0.15363216       1.42866971       0.31815672
C        0.16725914      -0.71229574      -0.24508806
C        1.46891665       0.64244662      -0.57858605
C        1.59906887      -0.61793542       0.20569412
H       -2.56163514      -0.64512817      -0.32558291
H       -2.41690821      -0.17202492       1.37232361
H       -2.69348429       1.05778099       0.12509349
H       -0.21198325      -1.61197410      -0.70612944
H        1.97592831       1.49813214      -0.14767157
H        1.69186715       0.60761957      -1.64165047
H        2.24251922      -1.36888305      -0.24505398
H        1.77068641      -0.50432167       1.27296317
14
Frame=14 idx=001386 GeodesicLength=0.661750834392467 rxn_smarts="[C:1]([C:2](=[O:3])[C:4]1([H:10])[C:5]([H:11])([H:12])[C:6]1([H:13])[H:14])([H:7])([H:8])[H:9]>>[C:1]([C:2]1=[C:4]([H:10])[C:6]([H:13])([H:14])[C:5]([H:11])([H:12])[O:3]1)([H:7])([H:8])[H:9]"
C       -2.17899642       0.12466964       0.34782007
C       -0.69789441       0.27044621       0.25592554
O       -0.14720454       1.42447818       0.31640605
C        0.17062683      -0.71217770      -0.24449790
C        1.45055312       0.63976152      -0.58493873
C        1.59935495      -0.61692036       0.21111975
H       -2.56341859      -0.62248613      -0.34706069
H       -2.41973223      -0.19847622       1.36331416
H       -2.68811857       1.06731451       0.14933414
H       -0.21010811      -1.61178677      -0.70408299
H        1.97479434       1.49065565      -0.16357855
H        1.69028173       0.59997870      -1.64479399
H        2.25289175      -1.36295270      -0.23265609
H        1.76697014      -0.49250453       1.27768923
14
Frame=15 idx=001386 GeodesicLength=0.7089051116712523 rxn_smarts="[C:1]([C:2](=[O:3])[C:4]1([H:10])[C:5]([H:11])([H:12])[C:6]1([H:13])[H:14])([H:7])([H:8])[H:9]>>[C:1]([C:2]1=[C:4]([H:10])[C:6]([H:13])([H:14])[C:5]([H:11])([H:12])[O:3]1)([H:7])([H:8])[H:9]"
C       -2.17805714       0.12644083       0.34814758
C       -0.69703521       0.26594203       0.26368833
O       -0.14085411       1.42028898       0.31453866
C        0.17397472      -0.71214746      -0.24372455
C        1.43240957       0.63690088      -0.59124639
C        1.59965820      -0.61584138       0.21653674
H       -2.56485866      -0.59902953      -0.36821248
H       -2.42270127      -0.22493479       1.35334106
H       -2.68268110       1.07627910       0.17403438
H       -0.20826267      -1.61171685      -0.70178561
H        1.97339700       1.48291892      -0.17956074
H        1.68838425       0.59231112      -1.64775735
H        2.26327801      -1.35672170      -0.22028474
H        1.76334841      -0.48069014       1.28228512
14
Frame=16 idx=001386 GeodesicLength=0.7560498341838703 rxn_smarts="[C:1]([C:2](=[O:3])[C:4]1([H:10])[C:5]([H:11])([H:12])[C:6]1([H:13])[H:14])([H:7])([H:8])[H:9]>>[C:1]([C:2]1=[C:4]([H:10])[C:6]([H:13])([H:14])[C:5]([H:11])([H:12])[O:3]1)([H:7])([H:8])[H:9]"
C       -2.17705403       0.12820851       0.34853287
C       -0.69617684       0.26150826       0.27117976
O       -0.13460787       1.41613320       0.31244190
C        0.17729313      -0.71215605      -0.24294120
C        1.41454612       0.63389872      -0.59744891
C        1.59992526      -0.61473808       0.22192151
H       -2.56599167      -0.57512520      -0.38859428
H       -2.42567120      -0.25101317       1.34263278
H       -2.67724023       1.08452951       0.19888974
H       -0.20645049      -1.61166184      -0.69951457
H        1.97178731       1.47491439      -0.19541263
H        1.68634709       0.58471841      -1.65047790
H        2.27363345      -1.35021779      -0.20796397
H        1.75965995      -0.46899886       1.28675490
