14
Frame=0 idx=004032 GeodesicLength=0.0 rxn_smarts="[C:1]([C:2]([C:3]([H:10])([H:11])[H:12])([O:4][H:13])[C:5]#[C:6][H:14])([H:7])([H:8])[H:9]>>[C:1](=[C:2]([C:3]([H:10])([H:11])[H:12])[C:5]#[C:6][H:14])([H:7])[H:8].[O:4]([H:9])[H:13]"
C       -0.92123849       1.12628966      -0.46745999
C        0.02731688       0.10208169      -0.19026172
C        0.35830068      -0.93759543      -1.21807898
O       -1.32212228      -0.89320617       0.80371806
C        1.00988455       0.32471938       0.83514047
C        1.85236953       0.53548022       1.66009298
H       -0.79636289       2.07670185       0.03596571
H       -1.31928878       1.16145684      -1.47521127
H       -1.62075411       0.25238715       0.31376330
H        0.77025438      -1.83516880      -0.76382986
H        1.09825379      -0.51277288      -1.90209607
H       -0.53426741      -1.19546933      -1.78530012
H       -1.20174937      -0.93116945       1.75948854
H        2.59940355       0.72626522       2.39406893
14
Frame=1 idx=004032 GeodesicLength=0.0690295998097965 rxn_smarts="[C:1]([C:2]([C:3]([H:10])([H:11])[H:12])([O:4][H:13])[C:5]#[C:6][H:14])([H:7])([H:8])[H:9]>>[C:1](=[C:2]([C:3]([H:10])([H:11])[H:12])[C:5]#[C:6][H:14])([H:7])[H:8].[O:4]([H:9])[H:13]"
C       -0.92501682       1.12515304      -0.46925332
C        0.02402351       0.10078817      -0.19169040
C        0.35687527      -0.93800382      -1.22062150
O       -1.32138606      -0.90208167       0.81484024
C        1.01323841       0.33095707       0.82649249
C        1.84666081       0.53400345       1.66250818
H       -0.80251993       2.07423181       0.03818027
H       -1.29991851       1.17741137      -1.48528140
H       -1.64679270       0.24382236       0.31862328
H        0.75613600      -1.83947464      -0.76219894
H        1.10653554      -0.51905076      -1.89729547
H       -0.53174973      -1.18960053      -1.79696206
H       -1.17034536      -0.92269181       1.76665600
H        2.59425957       0.72453595       2.39600263
14
Frame=2 idx=004032 GeodesicLength=0.13805510446330507 rxn_smarts="[C:1]([C:2]([C:3]([H:10])([H:11])[H:12])([O:4][H:13])[C:5]#[C:6][H:14])([H:7])([H:8])[H:9]>>[C:1](=[C:2]([C:3]([H:10])([H:11])[H:12])[C:5]#[C:6][H:14])([H:7])[H:8].[O:4]([H:9])[H:13]"
C       -0.92885743       1.12384523      -0.47109479
C        0.02090769       0.09951738      -0.19313707
C        0.35550457      -0.93847524      -1.22313101
O       -1.32033508      -0.91087889       0.82626621
C        1.01669378       0.33724570       0.81777970
C        1.84114051       0.53295834       1.66440564
H       -0.80903319       2.07142634       0.04071025
H       -1.27986468       1.19369189      -1.49476449
H       -1.67314640       0.23473877       0.32374292
H        0.74198255      -1.84371167      -0.76061861
H        1.11476098      -0.52558479      -1.89243719
H       -0.52907116      -1.18374631      -1.80853483
H       -1.13977267      -0.91369394       1.77301142
H        2.58909054       0.72266719       2.39780184
14
Frame=3 idx=004032 GeodesicLength=0.20707206186445892 rxn_smarts="[C:1]([C:2]([C:3]([H:10])([H:11])[H:12])([O:4][H:13])[C:5]#[C:6][H:14])([H:7])([H:8])[H:9]>>[C:1](=[C:2]([C:3]([H:10])([H:11])[H:12])[C:5]#[C:6][H:14])([H:7])[H:8].[O:4]([H:9])[H:13]"
C       -0.93267144       1.12237964      -0.47296026
C        0.01799876       0.09821604      -0.19462070
C        0.35413804      -0.93904392      -1.22567174
O       -1.31899818      -0.91960226       0.83794781
C        1.02029929       0.34342510       0.80898552
C        1.83591829       0.53214171       1.66574519
H       -0.81574975       2.06826140       0.04361470
H       -1.25908059       1.21035886      -1.50355789
H       -1.69977483       0.22516307       0.32919019
H        0.72768469      -1.84795700      -0.75919132
H        1.12290045      -0.53243334      -1.88757485
H       -0.52630206      -1.17785890      -1.82008540
H       -1.10999849      -0.90425274       1.77857528
H        2.58363584       0.72120234       2.39960348
14
Frame=4 idx=004032 GeodesicLength=0.27607556669046385 rxn_smarts="[C:1]([C:2]([C:3]([H:10])([H:11])[H:12])([O:4][H:13])[C:5]#[C:6][H:14])([H:7])([H:8])[H:9]>>[C:1](=[C:2]([C:3]([H:10])([H:11])[H:12])[C:5]#[C:6][H:14])([H:7])[H:8].[O:4]([H:9])[H:13]"
C       -0.93653407       1.12075356      -0.47493586
C        0.01526483       0.09694656      -0.19613730
C        0.35284295      -0.93966986      -1.22818484
O       -1.31739265      -0.92822157       0.84987374
C        1.02396306       0.34964987       0.80014951
C        1.83088202       0.53180500       1.66658888
H       -0.82282571       2.06475277       0.04677346
H       -1.23764933       1.22732651      -1.51169322
H       -1.72674038       0.21507621       0.33495092
H        0.71333700      -1.85212910      -0.75780611
H        1.13102522      -0.53954194      -1.88263291
H       -0.52333450      -1.17197034      -1.83158300
H       -1.08105362      -0.89431204       1.78339710
H        2.57821517       0.71953435       2.40123962
14
Frame=5 idx=004032 GeodesicLength=0.34506945259383237 rxn_smarts="[C:1]([C:2]([C:3]([H:10])([H:11])[H:12])([O:4][H:13])[C:5]#[C:6][H:14])([H:7])([H:8])[H:9]>>[C:1](=[C:2]([C:3]([H:10])([H:11])[H:12])[C:5]#[C:6][H:14])([H:7])[H:8].[O:4]([H:9])[H:13]"
C       -0.94035443       1.11898683      -0.47700487
C        0.01273371       0.09566233      -0.19770642
C        0.35157266      -0.94038348      -1.23073045
O       -1.31553991      -0.93673917       0.86200288
C        1.02773554       0.35577763       0.79125252
C        1.82611938       0.53173732       1.66692279
H       -0.83011598       2.06088142       0.05022952
H       -1.21554081       1.24464026      -1.51906961
H       -1.75400540       0.20450859       0.34109855
H        0.69883863      -1.85629511      -0.75655910
H        1.13910518      -0.54696614      -1.87766304
H       -0.52023229      -1.16603718      -1.84308741
H       -1.05290730      -0.88395179       1.78748582
H        2.57259101       0.71817850       2.40282883
14
Frame=6 idx=004032 GeodesicLength=0.414055671587918 rxn_smarts="[C:1]([C:2]([C:3]([H:10])([H:11])[H:12])([O:4][H:13])[C:5]#[C:6][H:14])([H:7])([H:8])[H:9]>>[C:1](=[C:2]([C:3]([H:10])([H:11])[H:12])[C:5]#[C:6][H:14])([H:7])[H:8].[O:4]([H:9])[H:13]"
C       -0.94413913       1.11708979      -0.47921831
C        0.01040103       0.09438782      -0.19933747
C        0.35035388      -0.94117078      -1.23329706
O       -1.31345048      -0.94513163       0.87431505
C        1.03158779       0.36185795       0.78230376
C        1.82158547       0.53200419       1.66679119
H       -0.83765688       2.05665692       0.05392126
H       -1.19282857       1.26224470      -1.52566752
H       -1.78159293       0.19346280       0.34765910
H        0.68421550      -1.86042605      -0.75541954
H        1.14717095      -0.55469325      -1.87264379
H       -0.51695107      -1.16006726      -1.85459870
H       -1.02556863      -0.87315774       1.79086609
H        2.56687305       0.71694253       2.40432593
14
Frame=7 idx=004032 GeodesicLength=0.4830352072199161 rxn_smarts="[C:1]([C:2]([C:3]([H:10])([H:11])[H:12])([O:4][H:13])[C:5]#[C:6][H:14])([H:7])([H:8])[H:9]>>[C:1](=[C:2]([C:3]([H:10])([H:11])[H:12])[C:5]#[C:6][H:14])([H:7])[H:8].[O:4]([H:9])[H:13]"
C       -0.94783737       1.11508230      -0.48158723
C        0.00828343       0.09311022      -0.20104732
C        0.34917093      -0.94204280      -1.23591356
O       -1.31113101      -0.95338714       0.88678797
C        1.03554375       0.36783722       0.77329093
C        1.81730847       0.53251072       1.66620678
H       -0.84537391       2.05207886       0.05784231
H       -1.16953713       1.28013531      -1.53142572
H       -1.80948945       0.18195994       0.35469171
H        0.66942289      -1.86454370      -0.75442796
H        1.15521204      -0.56275207      -1.86759907
H       -0.51351063      -1.15404247      -1.86614443
H       -0.99902008      -0.86197990       1.79353836
H        2.56095806       0.71603351       2.40578723
14
Frame=8 idx=004032 GeodesicLength=0.5520137987285543 rxn_smarts="[C:1]([C:2]([C:3]([H:10])([H:11])[H:12])([O:4][H:13])[C:5]#[C:6][H:14])([H:7])([H:8])[H:9]>>[C:1](=[C:2]([C:3]([H:10])([H:11])[H:12])[C:5]#[C:6][H:14])([H:7])[H:8].[O:4]([H:9])[H:13]"
C       -0.95128748       1.11300336      -0.48405887
C        0.00643366       0.09174790      -0.20286788
C        0.34793504      -0.94305300      -1.23868841
O       -1.30859168      -0.96152299       0.89937506
C        1.03971835       0.37346649       0.76416825
C        1.81343962       0.53285110       1.66514169
H       -0.85299716       2.04713221       0.06209421
H       -1.14562401       1.29836726      -1.53620561
H       -1.83761677       0.17006533       0.36231938
H        0.65429079      -1.86875757      -0.75376139
H        1.16315167      -0.57124376      -1.86264344
H       -0.51003972      -1.14789210      -1.87781433
H       -0.97321179      -0.85056406       1.79548040
H        2.55439946       0.71639983       2.40746094
14
Frame=9 idx=004032 GeodesicLength=0.6210936758918995 rxn_smarts="[C:1]([C:2]([C:3]([H:10])([H:11])[H:12])([O:4][H:13])[C:5]#[C:6][H:14])([H:7])([H:8])[H:9]>>[C:1](=[C:2]([C:3]([H:10])([H:11])[H:12])[C:5]#[C:6][H:14])([H:7])[H:8].[O:4]([H:9])[H:13]"
C       -0.95503786       1.11082464      -0.48704270
C        0.00463186       0.09071604      -0.20470830
C        0.34707489      -0.94393175      -1.24116554
O       -1.30582098      -0.96936005       0.91220058
C        1.04357451       0.37986764       0.75515958
C        1.80923001       0.53474420       1.66390275
H       -0.86162328       2.04196618       0.06601848
H       -1.12160640       1.31644938      -1.54052980
H       -1.86640085       0.15748677       0.37023578
H        0.63953046      -1.87252838      -0.75264174
H        1.17138785      -0.57973225      -1.85724507
H       -0.50588497      -1.14189258      -1.88926657
H       -0.94834027      -0.83837728       1.79684350
H        2.54928505       0.71376744       2.40823906
14
Frame=10 idx=004032 GeodesicLength=0.6901720352856926 rxn_smarts="[C:1]([C:2]([C:3]([H:10])([H:11])[H:12])([O:4][H:13])[C:5]#[C:6][H:14])([H:7])([H:8])[H:9]>>[C:1](=[C:2]([C:3]([H:10])([H:11])[H:12])[C:5]#[C:6][H:14])([H:7])[H:8].[O:4]([H:9])[H:13]"
C       -0.95844858       1.10861922      -0.49015355
C        0.00312148       0.08958538      -0.20668643
C        0.34614743      -0.94495681      -1.24384577
O       -1.30284339      -0.97705993       0.92509553
C        1.04768312       0.38584184       0.74602661
C        1.80545098       0.53631317       1.66222672
H       -0.87003291       2.03644831       0.07024062
H       -1.09705995       1.33483062      -1.54381382
H       -1.89540996       0.14453491       0.37887205
H        0.62436782      -1.87641543      -0.75191294
H        1.17951698      -0.58868596      -1.85196267
H       -0.50171066      -1.13573591      -1.90089131
H       -0.92417464      -0.82601057       1.79749567
H        2.54339229       0.71269116       2.40930928
14
Frame=11 idx=004032 GeodesicLength=0.7592474736346689 rxn_smarts="[C:1]([C:2]([C:3]([H:10])([H:11])[H:12])([O:4][H:13])[C:5]#[C:6][H:14])([H:7])([H:8])[H:9]>>[C:1](=[C:2]([C:3]([H:10])([H:11])[H:12])[C:5]#[C:6][H:14])([H:7])[H:8].[O:4]([H:9])[H:13]"
C       -0.96167416       1.10638649      -0.49352999
C        0.00184003       0.08848739      -0.20878247
C        0.34529075      -0.94604268      -1.24659579
O       -1.29966304      -0.98456176       0.93807864
C        1.05188250       0.39172825       0.73683768
C        1.80186142       0.53805815       1.66023267
H       -0.87853768       2.03063521       0.07452522
H       -1.07220205       1.35333024      -1.54620737
H       -1.92477476       0.13114586       0.38817753
H        0.60901654      -1.88024709      -0.75134408
H        1.18766924      -0.59797413      -1.84663214
H       -0.49730201      -1.12950310      -1.91259447
H       -0.90076610      -0.81331112       1.79749614
H        2.53735931       0.71186829       2.41033841
14
Frame=12 idx=004032 GeodesicLength=0.8283202566244836 rxn_smarts="[C:1]([C:2]([C:3]([H:10])([H:11])[H:12])([O:4][H:13])[C:5]#[C:6][H:14])([H:7])([H:8])[H:9]>>[C:1](=[C:2]([C:3]([H:10])([H:11])[H:12])[C:5]#[C:6][H:14])([H:7])[H:8].[O:4]([H:9])[H:13]"
C       -0.96468743       1.10415234      -0.49719189
C        0.00078978       0.08743110      -0.21100338
C        0.34451357      -0.94718129      -1.24941970
O       -1.29628178      -0.99185571       0.95113564
C        1.05617161       0.39752909       0.72759671
C        1.79844462       0.53996283       1.65795170
H       -0.88711362       2.02454775       0.07883594
H       -1.04710343       1.37190416      -1.54772365
H       -1.95451427       0.11731428       0.39820017
H        0.59347287      -1.88400992      -0.75093954
H        1.19585415      -0.60759496      -1.84124551
H       -0.49263963      -1.12318815      -1.92438458
H       -0.87810763      -0.80028641       1.79686142
H        2.53120120       0.71127489       2.41132667
14
Frame=13 idx=004032 GeodesicLength=0.8973844740494923 rxn_smarts="[C:1]([C:2]([C:3]([H:10])([H:11])[H:12])([O:4][H:13])[C:5]#[C:6][H:14])([H:7])([H:8])[H:9]>>[C:1](=[C:2]([C:3]([H:10])([H:11])[H:12])[C:5]#[C:6][H:14])([H:7])[H:8].[O:4]([H:9])[H:13]"
C       -0.96751288       1.10192787      -0.50118076
C       -0.00004343       0.08645170      -0.21334975
C        0.34385156      -0.94834968      -1.25228877
O       -1.29270128      -0.99892133       0.96426625
C        1.06051141       0.40332552       0.71831998
C        1.79513172       0.54213387       1.65543154
H       -0.89582078       2.01820425       0.08309166
H       -1.02183060       1.39050446      -1.54840629
H       -1.98467794       0.10300697       0.40896808
H        0.57777968      -1.88765653      -0.75065134
H        1.20410573      -0.61751936      -1.83575594
H       -0.48766038      -1.11680538      -1.93624640
H       -0.85620885      -0.78690157       1.79561407
H        2.52507605       0.71059919       2.41218768
14
Frame=14 idx=004032 GeodesicLength=0.9664511657554385 rxn_smarts="[C:1]([C:2]([C:3]([H:10])([H:11])[H:12])([O:4][H:13])[C:5]#[C:6][H:14])([H:7])([H:8])[H:9]>>[C:1](=[C:2]([C:3]([H:10])([H:11])[H:12])[C:5]#[C:6][H:14])([H:7])[H:8].[O:4]([H:9])[H:13]"
C       -0.97008831       1.09974702      -0.50549839
C       -0.00064579       0.08553857      -0.21583476
C        0.34329066      -0.94955291      -1.25523131
O       -1.28891832      -1.00575602       0.97745352
C        1.06493087       0.40906290       0.70899917
C        1.79194799       0.54446751       1.65268104
H       -0.90457880       2.01162357       0.08728835
H       -0.99642400       1.40911414      -1.54825756
H       -2.01526923       0.08821807       0.42056793
H        0.56189207      -1.89119844      -0.75052599
H        1.21241221      -0.62777090      -1.83018210
H       -0.48237755      -1.11033258      -1.94820615
H       -0.83504995      -0.77319551       1.79375890
H        2.51887816       0.71003457       2.41298735
14
Frame=15 idx=004032 GeodesicLength=1.0355191340387389 rxn_smarts="[C:1]([C:2]([C:3]([H:10])([H:11])[H:12])([O:4][H:13])[C:5]#[C:6][H:14])([H:7])([H:8])[H:9]>>[C:1](=[C:2]([C:3]([H:10])([H:11])[H:12])[C:5]#[C:6][H:14])([H:7])[H:8].[O:4]([H:9])[H:13]"
C       -0.97240388       1.09763581      -0.51017571
C       -0.00101945       0.08471621      -0.21846623
C        0.34285159      -0.95077537      -1.25823823
O       -1.28492221      -1.01233994       0.99069637
C        1.06941857       0.41478121       0.69963919
C        1.78885724       0.54700119       1.64973050
H       -0.91339573       2.00483659       0.09136775
H       -0.97096642       1.42768351      -1.54732869
H       -2.04631683       0.07291637       0.43306555
H        0.54582712      -1.89460480      -0.75054593
H        1.22079241      -0.63833602      -1.82450145
H       -0.47675467      -1.10377423      -1.96026064
H       -0.81463177      -0.75915590       1.79130855
H        2.51266403       0.70941537       2.41370897
14
Frame=16 idx=004032 GeodesicLength=1.1045866608994883 rxn_smarts="[C:1]([C:2]([C:3]([H:10])([H:11])[H:12])([O:4][H:13])[C:5]#[C:6][H:14])([H:7])([H:8])[H:9]>>[C:1](=[C:2]([C:3]([H:10])([H:11])[H:12])[C:5]#[C:6][H:14])([H:7])[H:8].[O:4]([H:9])[H:13]"
C       -0.97441701       1.09561892      -0.51521574
C       -0.00115673       0.08397658      -0.22125570
C        0.34252276      -0.95202164      -1.26133083
O       -1.28070793      -1.01867416       1.00398408
C        1.07399457       0.42044017       0.69023274
C        1.78587013       0.54965881       1.64659150
H       -0.92222037       1.99785323       0.09532403
H       -0.94545378       1.44622307      -1.54562962
H       -2.07783524       0.05707243       0.44654629
H        0.52954493      -1.89788104      -0.75074930
H        1.22923625      -0.64923752      -1.81872231
H       -0.47079699      -1.09711239      -1.97243244
H       -0.79494492      -0.74480485       1.78826693
H        2.50636434       0.70888838       2.41439037
