13
Frame=0 idx=007856 GeodesicLength=0.0 rxn_smarts="[N:1]([C:2](=[O:3])[C:4]([O:5]/[C:6](=[N:7]/[H:13])[H:12])([H:10])[H:11])([H:8])[H:9]>>[N:1]([C@:2]1([O:3]/[C:6](=[N:7]/[H:13])[H:12])[C:4]([H:10])([H:11])[O:5]1)([H:8])[H:9]"
N       -2.07031784      -0.14895284      -0.22352824
C       -0.76581004      -0.10166627      -0.09795955
O       -0.20718482       0.98020634      -0.53163251
C        0.05713282      -1.11771150       0.65582985
O        0.73008028      -0.36249146       1.52226990
C        1.18915598       1.13989140      -0.28341586
N        1.95733299       0.75813127      -1.18492948
H       -2.58677797       0.62638261      -0.60639876
H       -2.56439674      -0.95897179       0.10536141
H        0.65418948      -1.68748689      -0.09464683
H       -0.66238611      -1.85136096       1.08575717
H        1.35248613       1.72410693       0.61097523
H        2.91649582       0.99992313      -0.95768234
13
Frame=1 idx=007856 GeodesicLength=0.14985988817606782 rxn_smarts="[N:1]([C:2](=[O:3])[C:4]([O:5]/[C:6](=[N:7]/[H:13])[H:12])([H:10])[H:11])([H:8])[H:9]>>[N:1]([C@:2]1([O:3]/[C:6](=[N:7]/[H:13])[H:12])[C:4]([H:10])([H:11])[O:5]1)([H:8])[H:9]"
N       -2.08722634      -0.13563609      -0.19533168
C       -0.77391217      -0.13568126      -0.13372369
O       -0.21173452       0.91483122      -0.63506731
C        0.05473578      -1.13814776       0.62662154
O        0.67760936      -0.33693243       1.49677664
C        1.19748049       1.11200326      -0.27814869
N        2.00553313       0.78878245      -1.16921657
H       -2.59376268       0.62249480      -0.62291449
H       -2.59977961      -0.87434321       0.25236068
H        0.69064820      -1.69046849      -0.10173219
H       -0.64627506      -1.88833648       1.05292915
H        1.33727374       1.70461309       0.61620637
H        2.94940967       1.05682090      -0.90875977
13
Frame=2 idx=007856 GeodesicLength=0.29906187946092244 rxn_smarts="[N:1]([C:2](=[O:3])[C:4]([O:5]/[C:6](=[N:7]/[H:13])[H:12])([H:10])[H:11])([H:8])[H:9]>>[N:1]([C@:2]1([O:3]/[C:6](=[N:7]/[H:13])[H:12])[C:4]([H:10])([H:11])[O:5]1)([H:8])[H:9]"
N       -2.09918653      -0.12193403      -0.17092531
C       -0.78200398      -0.17139025      -0.16682000
O       -0.21577844       0.84302811      -0.73421009
C        0.05288570      -1.15980902       0.60006496
O        0.62853137      -0.31483500       1.46908848
C        1.20078281       1.08634390      -0.27289312
N        2.04218095       0.82654432      -1.15565151
H       -2.59859335       0.61810312      -0.63658348
H       -2.61723399      -0.77902212       0.38512920
H        0.72531313      -1.69445761      -0.10546104
H       -0.63139229      -1.92284401       1.02520545
H        1.32238310       1.68402712       0.62243903
H        2.97211151       1.10624546      -0.85938258
13
Frame=3 idx=007856 GeodesicLength=0.44847833209608196 rxn_smarts="[N:1]([C:2](=[O:3])[C:4]([O:5]/[C:6](=[N:7]/[H:13])[H:12])([H:10])[H:11])([H:8])[H:9]>>[N:1]([C@:2]1([O:3]/[C:6](=[N:7]/[H:13])[H:12])[C:4]([H:10])([H:11])[O:5]1)([H:8])[H:9]"
N       -2.10638963      -0.10795894      -0.15290182
C       -0.78962582      -0.21018720      -0.19675426
O       -0.21672462       0.76260970      -0.82753663
C        0.04908579      -1.18481599       0.57880200
O        0.58040380      -0.29827656       1.44258761
C        1.20269888       1.05750458      -0.26532276
N        2.07008223       0.86334516      -1.14176600
H       -2.59769923       0.61864903      -0.64719300
H       -2.62079271      -0.67342761       0.49940296
H        0.75599884      -1.70334115      -0.10175885
H       -0.62179520      -1.95620493       1.00475782
H        1.31182398       1.65733981       0.63205293
H        2.98293368       1.17476409      -0.82437001
13
Frame=4 idx=007856 GeodesicLength=0.5977383968653969 rxn_smarts="[N:1]([C:2](=[O:3])[C:4]([O:5]/[C:6](=[N:7]/[H:13])[H:12])([H:10])[H:11])([H:8])[H:9]>>[N:1]([C@:2]1([O:3]/[C:6](=[N:7]/[H:13])[H:12])[C:4]([H:10])([H:11])[O:5]1)([H:8])[H:9]"
N       -2.11042985      -0.09502568      -0.13898385
C       -0.79727626      -0.24903406      -0.22277977
O       -0.21869561       0.67979005      -0.91270448
C        0.04602029      -1.20972987       0.56060998
O        0.53535703      -0.28385271       1.41605997
C        1.20129424       1.03142625      -0.25621967
N        2.08443747       0.90799516      -1.13188995
H       -2.59390351       0.61990485      -0.65725561
H       -2.61091785      -0.56389361       0.59598220
H        0.78527027      -1.71129169      -0.09499164
H       -0.61205582      -1.98766520       0.98926013
H        1.30611425       1.62868771       0.64543614
H        2.98478535       1.23268879      -0.79252345
13
Frame=5 idx=007856 GeodesicLength=0.7473464606994857 rxn_smarts="[N:1]([C:2](=[O:3])[C:4]([O:5]/[C:6](=[N:7]/[H:13])[H:12])([H:10])[H:11])([H:8])[H:9]>>[N:1]([C@:2]1([O:3]/[C:6](=[N:7]/[H:13])[H:12])[C:4]([H:10])([H:11])[O:5]1)([H:8])[H:9]"
N       -2.11169678      -0.08172472      -0.12867831
C       -0.80475324      -0.28823741      -0.24442847
O       -0.21999768       0.59345307      -0.98968620
C        0.04208951      -1.23614589       0.54638178
O        0.49235624      -0.27364769       1.39121094
C        1.19955452       1.00432805      -0.24393246
N        2.08780615       0.95561395      -1.12408821
H       -2.58589170       0.62238454      -0.66977850
H       -2.59112680      -0.44884544       0.67545309
H        0.81136955      -1.72094310      -0.08399607
H       -0.60476151      -2.01841810       0.97899762
H        1.30838334       1.59398339       0.66442763
H        2.97666840       1.29819935      -0.77188284
13
Frame=6 idx=007856 GeodesicLength=0.8970677687561507 rxn_smarts="[N:1]([C:2](=[O:3])[C:4]([O:5]/[C:6](=[N:7]/[H:13])[H:12])([H:10])[H:11])([H:8])[H:9]>>[N:1]([C@:2]1([O:3]/[C:6](=[N:7]/[H:13])[H:12])[C:4]([H:10])([H:11])[O:5]1)([H:8])[H:9]"
N       -2.11085479      -0.06803532      -0.12068568
C       -0.81220182      -0.32643280      -0.26189348
O       -0.22215044       0.50603678      -1.05870317
C        0.03808287      -1.26251608       0.53508532
O        0.45165631      -0.26596113       1.36776936
C        1.19731793       0.97824556      -0.22859350
N        2.07860600       1.00937806      -1.11888671
H       -2.57577726       0.62323651      -0.68579313
H       -2.56236113      -0.33095961       0.73899886
H        0.83518888      -1.73002162      -0.07044823
H       -0.59808991      -2.04798343       0.97259037
H        1.31977694       1.55391942       0.68928372
H        2.96080643       1.36109368      -0.75872372
13
Frame=7 idx=007856 GeodesicLength=1.0470005937196378 rxn_smarts="[N:1]([C:2](=[O:3])[C:4]([O:5]/[C:6](=[N:7]/[H:13])[H:12])([H:10])[H:11])([H:8])[H:9]>>[N:1]([C@:2]1([O:3]/[C:6](=[N:7]/[H:13])[H:12])[C:4]([H:10])([H:11])[O:5]1)([H:8])[H:9]"
N       -2.10799258      -0.05324160      -0.11490562
C       -0.81948325      -0.36364438      -0.27547823
O       -0.22464319       0.41684356      -1.12081078
C        0.03350448      -1.28920453       0.52685538
O        0.41282021      -0.26096541       1.34617630
C        1.19596814       0.95179368      -0.20991465
N        2.05733099       1.06814441      -1.11501216
H       -2.56342113       0.62317457      -0.70517652
H       -2.52639896      -0.21037928       0.78683979
H        0.85631588      -1.73947234      -0.05403725
H       -0.59285345      -2.07664399       0.96994588
H        1.34246769       1.50590545       0.72005346
H        2.93638517       1.42768987      -0.75453558
13
Frame=8 idx=007856 GeodesicLength=1.1970366640242134 rxn_smarts="[N:1]([C:2](=[O:3])[C:4]([O:5]/[C:6](=[N:7]/[H:13])[H:12])([H:10])[H:11])([H:8])[H:9]>>[N:1]([C@:2]1([O:3]/[C:6](=[N:7]/[H:13])[H:12])[C:4]([H:10])([H:11])[O:5]1)([H:8])[H:9]"
N       -2.10299672      -0.03675217      -0.11140271
C       -0.82649763      -0.39979227      -0.28572659
O       -0.22743958       0.32527636      -1.17716518
C        0.02823163      -1.31589384       0.52170615
O        0.37551699      -0.25781393       1.32637718
C        1.19614984       0.92463666      -0.18815414
N        2.02312822       1.13235965      -1.11129251
H       -2.54842498       0.62347444      -0.72713748
H       -2.48444853      -0.08898658       0.81894917
H        0.87476778      -1.74937718      -0.03451374
H       -0.58916424      -2.10410524       0.97107630
H        1.37879957       1.44748867       0.75585972
H        2.90237764       1.49948544      -0.75857618
13
Frame=9 idx=007856 GeodesicLength=1.346991357215432 rxn_smarts="[N:1]([C:2](=[O:3])[C:4]([O:5]/[C:6](=[N:7]/[H:13])[H:12])([H:10])[H:11])([H:8])[H:9]>>[N:1]([C@:2]1([O:3]/[C:6](=[N:7]/[H:13])[H:12])[C:4]([H:10])([H:11])[O:5]1)([H:8])[H:9]"
N       -2.09568474      -0.01807986      -0.11070121
C       -0.83316184      -0.43491224      -0.29334377
O       -0.23054702       0.23048438      -1.22891703
C        0.02221655      -1.34206961       0.51981031
O        0.33943323      -0.25528670       1.30815183
C        1.19816516       0.89676717      -0.16382091
N        1.97423067       1.20314916      -1.10598390
H       -2.52994225       0.62582344      -0.75128948
H       -2.43743292       0.03116553       0.83562313
H        0.89068709      -1.75966253      -0.01139052
H       -0.58706031      -2.12974780       0.97639202
H        1.43210632       1.37490649       0.79496278
H        2.85699006       1.57746256      -0.76949324
13
Frame=10 idx=007856 GeodesicLength=1.4966196765676818 rxn_smarts="[N:1]([C:2](=[O:3])[C:4]([O:5]/[C:6](=[N:7]/[H:13])[H:12])([H:10])[H:11])([H:8])[H:9]>>[N:1]([C@:2]1([O:3]/[C:6](=[N:7]/[H:13])[H:12])[C:4]([H:10])([H:11])[O:5]1)([H:8])[H:9]"
N       -2.08526453       0.00348084      -0.11374947
C       -0.83918330      -0.46931575      -0.29891476
O       -0.23357296       0.13070618      -1.27700878
C        0.01516149      -1.36745998       0.52181641
O        0.30469014      -0.25223804       1.29099807
C        1.20278417       0.86712646      -0.13786521
N        1.90802677       1.28207685      -1.09633662
H       -2.50544451       0.63314373      -0.77755648
H       -2.38611997       0.14841179       0.83712113
H        0.90356642      -1.77109460       0.01626927
H       -0.58714142      -2.15262313       0.98726070
H        1.50621323       1.28225598       0.83304527
H        2.79628449       1.66552968      -0.78507954
13
Frame=11 idx=007856 GeodesicLength=1.645605002477878 rxn_smarts="[N:1]([C:2](=[O:3])[C:4]([O:5]/[C:6](=[N:7]/[H:13])[H:12])([H:10])[H:11])([H:8])[H:9]>>[N:1]([C@:2]1([O:3]/[C:6](=[N:7]/[H:13])[H:12])[C:4]([H:10])([H:11])[O:5]1)([H:8])[H:9]"
N       -2.07080650       0.02857071      -0.12105434
C       -0.84422574      -0.50305027      -0.30304820
O       -0.23667043       0.02500167      -1.32201203
C        0.00719272      -1.39147131       0.52803380
O        0.27263758      -0.24738994       1.27393231
C        1.21061295       0.83488527      -0.11206213
N        1.82172598       1.37033184      -1.07732384
H       -2.47332257       0.64615056      -0.80690343
H       -2.32933322       0.26312424       0.82488426
H        0.91300692      -1.78432036       0.04841922
H       -0.58946582      -2.17126677       1.00507902
H        1.60206393       1.16476858       0.86209620
H        2.71658420       1.76466580      -0.80004084
13
Frame=12 idx=007856 GeodesicLength=1.7951527129956784 rxn_smarts="[N:1]([C:2](=[O:3])[C:4]([O:5]/[C:6](=[N:7]/[H:13])[H:12])([H:10])[H:11])([H:8])[H:9]>>[N:1]([C@:2]1([O:3]/[C:6](=[N:7]/[H:13])[H:12])[C:4]([H:10])([H:11])[O:5]1)([H:8])[H:9]"
N       -2.04956307       0.05972437      -0.13164134
C       -0.84768188      -0.53645392      -0.30566699
O       -0.24021772      -0.08941067      -1.36445927
C       -0.00240687      -1.41537484       0.53870760
O        0.24794213      -0.24174800       1.25489550
C        1.22617884       0.79351514      -0.09152977
N        1.71734426       1.46023339      -1.04459461
H       -2.43150240       0.66433136      -0.84060534
H       -2.26089191       0.38234346       0.80053096
H        0.91617478      -1.80447991       0.08382425
H       -0.59622403      -2.18413264       1.03248589
H        1.71432253       1.02229631       0.86913703
H        2.60652534       1.88915594      -0.80108390
13
Frame=13 idx=007856 GeodesicLength=1.9462829949696467 rxn_smarts="[N:1]([C:2](=[O:3])[C:4]([O:5]/[C:6](=[N:7]/[H:13])[H:12])([H:10])[H:11])([H:8])[H:9]>>[N:1]([C@:2]1([O:3]/[C:6](=[N:7]/[H:13])[H:12])[C:4]([H:10])([H:11])[O:5]1)([H:8])[H:9]"
N       -2.02311249       0.09474906      -0.14161101
C       -0.85048735      -0.56698355      -0.30695640
O       -0.25060970      -0.20437688      -1.40374526
C       -0.00989036      -1.43628670       0.54901506
O        0.23295669      -0.23407893       1.23197207
C        1.24501633       0.75061476      -0.07864436
N        1.60752569       1.53776543      -0.99744513
H       -2.38757480       0.68243841      -0.87366799
H       -2.18051547       0.50022956       0.76912828
H        0.91708371      -1.82546479       0.11479417
H       -0.60016441      -2.19147017       1.06331213
H        1.81626237       0.88649565       0.85370950
H        2.48350979       2.00636814      -0.77986107
13
Frame=14 idx=007856 GeodesicLength=2.102407728006047 rxn_smarts="[N:1]([C:2](=[O:3])[C:4]([O:5]/[C:6](=[N:7]/[H:13])[H:12])([H:10])[H:11])([H:8])[H:9]>>[N:1]([C@:2]1([O:3]/[C:6](=[N:7]/[H:13])[H:12])[C:4]([H:10])([H:11])[O:5]1)([H:8])[H:9]"
N       -1.99251696       0.13317098      -0.14967227
C       -0.85374711      -0.59438262      -0.30608243
O       -0.27117305      -0.32049003      -1.43979222
C       -0.01518867      -1.45458251       0.55834417
O        0.22784721      -0.22511420       1.20494375
C        1.26704475       0.70669887      -0.07551736
N        1.49992138       1.59686911      -0.94125641
H       -2.34653855       0.69559352      -0.90645568
H       -2.08559442       0.62216055       0.72884788
H        0.91610085      -1.84700810       0.13962709
H       -0.60058635      -2.19345975       1.09754449
H        1.90718022       0.76149736       0.81948791
H        2.34725070       2.11904683      -0.73001893
13
Frame=15 idx=007856 GeodesicLength=2.26302917433757 rxn_smarts="[N:1]([C:2](=[O:3])[C:4]([O:5]/[C:6](=[N:7]/[H:13])[H:12])([H:10])[H:11])([H:8])[H:9]>>[N:1]([C@:2]1([O:3]/[C:6](=[N:7]/[H:13])[H:12])[C:4]([H:10])([H:11])[O:5]1)([H:8])[H:9]"
N       -1.96067953       0.17240154      -0.15517801
C       -0.85830299      -0.61748335      -0.30279892
O       -0.30445110      -0.43322196      -1.47078067
C       -0.01669476      -1.46892407       0.56445626
O        0.22765131      -0.21472009       1.17580246
C        1.28568910       0.67050818      -0.07593866
N        1.40150283       1.63741091      -0.88121811
H       -2.31281087       0.70333901      -0.93532551
H       -1.98174963       0.73991382       0.68026509
H        0.91719416      -1.86256066       0.15613846
H       -0.59320930      -2.19282109       1.12909196
H        1.97996464       0.65854819       0.77875709
H        2.21589616       2.20760957      -0.66327143
13
Frame=16 idx=007856 GeodesicLength=2.428542482756668 rxn_smarts="[N:1]([C:2](=[O:3])[C:4]([O:5]/[C:6](=[N:7]/[H:13])[H:12])([H:10])[H:11])([H:8])[H:9]>>[N:1]([C@:2]1([O:3]/[C:6](=[N:7]/[H:13])[H:12])[C:4]([H:10])([H:11])[O:5]1)([H:8])[H:9]"
N       -1.92865917       0.21185105      -0.15831082
C       -0.86450052      -0.63661944      -0.29680602
O       -0.35087065      -0.54332084      -1.49587540
C       -0.01529292      -1.48013010       0.56806717
O        0.23004009      -0.20355736       1.14637006
C        1.30054918       0.64286741      -0.07708361
N        1.31294282       1.66619264      -0.81902605
H       -2.29011770       0.70277680      -0.96022056
H       -1.86869198       0.85500977       0.61896392
H        0.92024874      -1.87195748       0.16524061
H       -0.57907109      -2.19099408       1.15805990
H        2.04013395       0.57129957       0.73490553
H        2.09328927       2.27658205      -0.58428473
