13
Frame=0 idx=002860 GeodesicLength=0.0 rxn_smarts="[C:1]([C:2]([C@@:3]([O:4][H:13])([C:5]#[N:6])[H:12])([H:10])[H:11])([H:7])([H:8])[H:9]>>[C:1]1([H:8])([H:9])[C:2]([H:10])([H:11])[C@:3]([O:4][H:13])([H:12])[C:5][N:6]1[H:7]"
C        1.41481046       0.27866392      -0.35795811
C        0.50854868      -0.14528730       0.72813323
C       -0.90384663      -0.50362572       0.20297854
O       -1.80609389      -0.52981349       1.27062425
C       -1.21440132       0.48328843      -0.90088758
N       -0.28530672       1.00053961      -1.47968572
H        0.62764478       1.39240749      -1.67701834
H        2.11393741       1.07942790      -0.13037813
H        1.85360202      -0.50577600      -0.97060930
H        0.38426355       0.63405508       1.48181775
H        0.86957780      -1.04810591       1.22930464
H       -0.87386277      -1.47642575      -0.31437928
H       -2.68887337      -0.65934826       0.91805811
13
Frame=1 idx=002860 GeodesicLength=0.11664566115939548 rxn_smarts="[C:1]([C:2]([C@@:3]([O:4][H:13])([C:5]#[N:6])[H:12])([H:10])[H:11])([H:7])([H:8])[H:9]>>[C:1]1([H:8])([H:9])[C:2]([H:10])([H:11])[C@:3]([O:4][H:13])([H:12])[C:5][N:6]1[H:7]"
C        1.40604664       0.28268239      -0.36677681
C        0.50608870      -0.13856846       0.72942540
C       -0.90142011      -0.51004023       0.20403794
O       -1.80856775      -0.53244903       1.26812825
C       -1.21777452       0.46763501      -0.90542644
N       -0.29483017       1.00020790      -1.48169325
H        0.64870902       1.40643960      -1.64609347
H        2.13798177       1.04936707      -0.12547812
H        1.82698854      -0.49606005      -0.99945183
H        0.37578949       0.64796212       1.47468389
H        0.87483837      -1.03119793       1.24233488
H       -0.86371993      -1.48687349      -0.30494273
H       -2.69013005      -0.65910491       0.91125230
13
Frame=2 idx=002860 GeodesicLength=0.23350390249487246 rxn_smarts="[C:1]([C:2]([C@@:3]([O:4][H:13])([C:5]#[N:6])[H:12])([H:10])[H:11])([H:7])([H:8])[H:9]>>[C:1]1([H:8])([H:9])[C:2]([H:10])([H:11])[C@:3]([O:4][H:13])([H:12])[C:5][N:6]1[H:7]"
C        1.39742268       0.28689763      -0.37537907
C        0.50362076      -0.13167303       0.73073156
C       -0.89886213      -0.51631676       0.20513152
O       -1.81096769      -0.53518507       1.26556792
C       -1.22095520       0.45213364      -0.90980491
N       -0.30441924       0.99960736      -1.48395478
H        0.66945803       1.42116465      -1.61496278
H        2.16155561       1.01725713      -0.12146635
H        1.80050081      -0.48571036      -1.02749839
H        0.36721048       0.66191417       1.46748110
H        0.87996685      -1.01387969       1.25529662
H       -0.85330478      -1.49703402      -0.29546181
H       -2.69122618      -0.65917565       0.90431937
13
Frame=3 idx=002860 GeodesicLength=0.3500988685388421 rxn_smarts="[C:1]([C:2]([C@@:3]([O:4][H:13])([C:5]#[N:6])[H:12])([H:10])[H:11])([H:7])([H:8])[H:9]>>[C:1]1([H:8])([H:9])[C:2]([H:10])([H:11])[C@:3]([O:4][H:13])([H:12])[C:5][N:6]1[H:7]"
C        1.38894709       0.29131218      -0.38376189
C        0.50114976      -0.12460811       0.73205235
C       -0.89616764      -0.52244902       0.20625909
O       -1.81328282      -0.53803092       1.26294789
C       -1.22393664       0.43681535      -0.91400645
N       -0.31405913       0.99876528      -1.48644189
H        0.69000567       1.43645548      -1.58361155
H        2.18445010       0.98318444      -0.11840957
H        1.77417477      -0.47472612      -1.05475104
H        0.35853550       0.67588609       1.46022553
H        0.88495543      -0.99616635       1.26818384
H       -0.84261697      -1.50688936      -0.28595475
H       -2.69215512      -0.65954894       0.89726844
13
Frame=4 idx=002860 GeodesicLength=0.46609237221412925 rxn_smarts="[C:1]([C:2]([C@@:3]([O:4][H:13])([C:5]#[N:6])[H:12])([H:10])[H:11])([H:7])([H:8])[H:9]>>[C:1]1([H:8])([H:9])[C:2]([H:10])([H:11])[C@:3]([O:4][H:13])([H:12])[C:5][N:6]1[H:7]"
C        1.38062742       0.29592695      -0.39191606
C        0.49868227      -0.11738453       0.73339487
C       -0.89333146      -0.52843196       0.20742119
O       -1.81550530      -0.54100068       1.26027122
C       -1.22670394       0.42171405      -0.91801371
N       -0.32375140       0.99771092      -1.48909228
H        0.71048596       1.45218484      -1.55208068
H        2.20644567       0.94726037      -0.11637757
H        1.74804557      -0.46311369      -1.08120338
H        0.34977561       0.68984799       1.45294568
H        0.88979832      -0.97808086       1.28099060
H       -0.83165580      -1.51642384      -0.27644297
H       -2.69291293      -0.66020956       0.89010307
13
Frame=5 idx=002860 GeodesicLength=0.5820900105190553 rxn_smarts="[C:1]([C:2]([C@@:3]([O:4][H:13])([C:5]#[N:6])[H:12])([H:10])[H:11])([H:7])([H:8])[H:9]>>[C:1]1([H:8])([H:9])[C:2]([H:10])([H:11])[C@:3]([O:4][H:13])([H:12])[C:5][N:6]1[H:7]"
C        1.37244627       0.30073987      -0.39987253
C        0.49620485      -0.10998639       0.73474109
C       -0.89036413      -0.53427211       0.20862702
O       -1.81761945      -0.54411305       1.25756912
C       -1.22930711       0.40683909      -0.92179340
N       -0.33351771       0.99630970      -1.49204982
H        0.73120123       1.46846294      -1.52017134
H        2.22737460       0.90951039      -0.11543371
H        1.72211088      -0.45088950      -1.10690264
H        0.34091184       0.70382173       1.44561099
H        0.89448529      -0.95959155       1.29371616
H       -0.82043401      -1.52564098      -0.26691835
H       -2.69349254      -0.66119015       0.88287741
13
Frame=6 idx=002860 GeodesicLength=0.6975368719897044 rxn_smarts="[C:1]([C:2]([C@@:3]([O:4][H:13])([C:5]#[N:6])[H:12])([H:10])[H:11])([H:7])([H:8])[H:9]>>[C:1]1([H:8])([H:9])[C:2]([H:10])([H:11])[C@:3]([O:4][H:13])([H:12])[C:5][N:6]1[H:7]"
C        1.36441439       0.30574750      -0.40762005
C        0.49372474      -0.10242256       0.73610344
C       -0.88725846      -0.53996129       0.20987372
O       -1.81962091      -0.54738574       1.25483941
C       -1.23172934       0.39223275      -0.92532977
N       -0.34335407       0.99461478      -1.49522204
H        0.75224968       1.48512296      -1.48796429
H        2.24703677       0.87006105      -0.11563807
H        1.69640746      -0.43806492      -1.13183393
H        0.33195557       0.71778220       1.43825572
H        0.89901105      -0.94072132       1.30636210
H       -0.80894538      -1.53451940      -0.25741307
H       -2.69389151      -0.66248600       0.87558681
13
Frame=7 idx=002860 GeodesicLength=0.8126828686679989 rxn_smarts="[C:1]([C:2]([C@@:3]([O:4][H:13])([C:5]#[N:6])[H:12])([H:10])[H:11])([H:7])([H:8])[H:9]>>[C:1]1([H:8])([H:9])[C:2]([H:10])([H:11])[C@:3]([O:4][H:13])([H:12])[C:5][N:6]1[H:7]"
C        1.35651848       0.31095385      -0.41518767
C        0.49123231      -0.09468017       0.73747364
C       -0.88402083      -0.54550371       0.21116492
O       -1.82150174      -0.55083470       1.25209836
C       -1.23399728       0.37790106      -0.92860963
N       -0.35328529       0.99254216      -1.49866011
H        0.77387318       1.50218585      -1.45531958
H        2.26528207       0.82896610      -0.11705884
H        1.67093826      -0.42464727      -1.15603199
H        0.32289359       0.73174584       1.43086555
H        0.90336790      -0.92144870       1.31893019
H       -0.79719314      -1.54306331      -0.24792429
H       -2.69410752      -0.66411699       0.86825944
13
Frame=8 idx=002860 GeodesicLength=0.9276994737051949 rxn_smarts="[C:1]([C:2]([C@@:3]([O:4][H:13])([C:5]#[N:6])[H:12])([H:10])[H:11])([H:7])([H:8])[H:9]>>[C:1]1([H:8])([H:9])[C:2]([H:10])([H:11])[C@:3]([O:4][H:13])([H:12])[C:5][N:6]1[H:7]"
C        1.34874609       0.31636810      -0.42259416
C        0.48871248      -0.08672864       0.73883762
C       -0.88065904      -0.55089170       0.21250272
O       -1.82324452      -0.55450344       1.24937420
C       -1.23618007       0.36388410      -0.93158509
N       -0.36331079       0.99006922      -1.50246575
H        0.79637112       1.51956122      -1.42207571
H        2.28193548       0.78629195      -0.11976383
H        1.64569172      -0.41065995      -1.17953256
H        0.31369858       0.74574556       1.42341832
H        0.90754408      -0.90172701       1.33141777
H       -0.78517602      -1.55124603      -0.23848146
H       -2.69412911      -0.66616339       0.86094792
13
Frame=9 idx=002860 GeodesicLength=1.0432300190598582 rxn_smarts="[C:1]([C:2]([C@@:3]([O:4][H:13])([C:5]#[N:6])[H:12])([H:10])[H:11])([H:7])([H:8])[H:9]>>[C:1]1([H:8])([H:9])[C:2]([H:10])([H:11])[C@:3]([O:4][H:13])([H:12])[C:5][N:6]1[H:7]"
C        1.34105079       0.32192156      -0.42987997
C        0.48616345      -0.07860190       0.74019014
C       -0.87718492      -0.55613259       0.21389849
O       -1.82482990      -0.55840482       1.24670979
C       -1.23831935       0.35021951      -0.93419897
N       -0.37353246       0.98701736      -1.50672190
H        0.82018156       1.53729096      -1.38833702
H        2.29683231       0.74231797      -0.12348033
H        1.62057520      -0.39610282      -1.20252090
H        0.30439424       0.75977591       1.41590075
H        0.91154763      -0.88159505       1.34381365
H       -0.77292884      -1.55907146      -0.22909981
H       -2.69394971      -0.66863464       0.85372607
13
Frame=10 idx=002860 GeodesicLength=1.1588974742612128 rxn_smarts="[C:1]([C:2]([C@@:3]([O:4][H:13])([C:5]#[N:6])[H:12])([H:10])[H:11])([H:7])([H:8])[H:9]>>[C:1]1([H:8])([H:9])[C:2]([H:10])([H:11])[C@:3]([O:4][H:13])([H:12])[C:5][N:6]1[H:7]"
C        1.33343427       0.32764980      -0.43707296
C        0.48356700      -0.07024008       0.74151128
C       -0.87359887      -0.56123286       0.21534698
O       -1.82625398      -0.56256912       1.24410656
C       -1.24045486       0.33686485      -0.93647911
N       -0.38392686       0.98346350      -1.51143727
H        0.84548696       1.55531878      -1.35378451
H        2.30980137       0.69697639      -0.12850654
H        1.59563849      -0.38101884      -1.22492049
H        0.29492526       0.77388720       1.40827641
H        0.91536628      -0.86095887       1.35612709
H       -0.76041833      -1.56654661      -0.21976974
H       -2.69356674      -0.67159416       0.84660229
13
Frame=11 idx=002860 GeodesicLength=1.274820654635801 rxn_smarts="[C:1]([C:2]([C@@:3]([O:4][H:13])([C:5]#[N:6])[H:12])([H:10])[H:11])([H:7])([H:8])[H:9]>>[C:1]1([H:8])([H:9])[C:2]([H:10])([H:11])[C@:3]([O:4][H:13])([H:12])[C:5][N:6]1[H:7]"
C        1.32587059       0.33355911      -0.44421496
C        0.48090298      -0.06161775       0.74278174
C       -0.86990826      -0.56620260       0.21685214
O       -1.82750285      -0.56701817       1.24158885
C       -1.24263301       0.32379529      -0.93842258
N       -0.39454555       0.97932929      -1.51666515
H        0.87261545       1.57366701      -1.31826179
H        2.32070474       0.65030485      -0.13486574
H        1.57085584      -0.36539531      -1.24679003
H        0.28525768       0.78811165       1.40050878
H        0.91899442      -0.83976756       1.36835052
H       -0.74763628      -1.57368274      -0.21048023
H       -2.69297575      -0.67508307       0.83961845
13
Frame=12 idx=002860 GeodesicLength=1.3911393088396076 rxn_smarts="[C:1]([C:2]([C@@:3]([O:4][H:13])([C:5]#[N:6])[H:12])([H:10])[H:11])([H:7])([H:8])[H:9]>>[C:1]1([H:8])([H:9])[C:2]([H:10])([H:11])[C@:3]([O:4][H:13])([H:12])[C:5][N:6]1[H:7]"
C        1.31832207       0.33963932      -0.45134119
C        0.47814703      -0.05270609       0.74398280
C       -0.86612234      -0.57105501       0.21842083
O       -1.82856425      -0.57178603       1.23918781
C       -1.24491603       0.31098233      -0.94001425
N       -0.40545466       0.97456048      -1.52246668
H        0.90200774       1.59232808      -1.28162240
H        2.32936529       0.60237594      -0.14256506
H        1.54618202      -0.34921161      -1.26822059
H        0.27534900       0.80249039       1.39255364
H        0.92242547      -0.81796076       1.38047676
H       -0.73457214      -1.58048833      -0.20122290
H       -2.69216920      -0.67916872       0.83283123
13
Frame=13 idx=002860 GeodesicLength=1.5081876663199858 rxn_smarts="[C:1]([C:2]([C@@:3]([O:4][H:13])([C:5]#[N:6])[H:12])([H:10])[H:11])([H:7])([H:8])[H:9]>>[C:1]1([H:8])([H:9])[C:2]([H:10])([H:11])[C@:3]([O:4][H:13])([H:12])[C:5][N:6]1[H:7]"
C        1.31072032       0.34590547      -0.45850979
C        0.47525587      -0.04346809       0.74508594
C       -0.86225807      -0.57581078       0.22006561
O       -1.82941871      -0.57691009       1.23694954
C       -1.24738618       0.29838101      -0.94123160
N       -0.41678680       0.96899817      -1.52892572
H        0.93423727       1.61134763      -1.24373808
H        2.33568350       0.55319092      -0.15148979
H        1.52151735      -0.33233910      -1.28938069
H        0.26513719       0.81707528       1.38435154
H        0.92564751      -0.79546095       1.39248663
H       -0.72121472      -1.58698203      -0.19197981
H       -2.69113453      -0.68392745       0.82631621
13
Frame=14 idx=002860 GeodesicLength=1.6251154059766855 rxn_smarts="[C:1]([C:2]([C@@:3]([O:4][H:13])([C:5]#[N:6])[H:12])([H:10])[H:11])([H:7])([H:8])[H:9]>>[C:1]1([H:8])([H:9])[C:2]([H:10])([H:11])[C@:3]([O:4][H:13])([H:12])[C:5][N:6]1[H:7]"
C        1.30306262       0.35238202      -0.46574296
C        0.47221563      -0.03385547       0.74608514
C       -0.85830630      -0.58047365       0.22178256
O       -1.83006219      -0.58241977       1.23487082
C       -1.25006053       0.28594255      -0.94210790
N       -0.42855209       0.96276044      -1.53598920
H        0.96955495       1.63050666      -1.20439993
H        2.33942327       0.50280692      -0.16184676
H        1.49688024      -0.31478850      -1.31024701
H        0.25457712       0.83191371       1.37587383
H        0.92865568      -0.77218717       1.40439207
H       -0.70751731      -1.59316314      -0.18274100
H       -2.68987110      -0.68942460       0.82007035
13
Frame=15 idx=002860 GeodesicLength=1.7419350972700807 rxn_smarts="[C:1]([C:2]([C@@:3]([O:4][H:13])([C:5]#[N:6])[H:12])([H:10])[H:11])([H:7])([H:8])[H:9]>>[C:1]1([H:8])([H:9])[C:2]([H:10])([H:11])[C@:3]([O:4][H:13])([H:12])[C:5][N:6]1[H:7]"
C        1.29527896       0.35911311      -0.47308783
C        0.46898346      -0.02379463       0.74695046
C       -0.85427174      -0.58505559       0.22357597
O       -1.83047268      -0.58837823       1.23298455
C       -1.25302790       0.27360886      -0.94263196
N       -0.44089741       0.95584717      -1.54368925
H        1.00862718       1.64962301      -1.16341089
H        2.34036473       0.45123693      -0.17363005
H        1.47217461      -0.29645371      -1.33094048
H        0.24358088       0.84708914       1.36705179
H        0.93144695      -0.74800638       1.41617206
H       -0.69342491      -1.59903021      -0.17349918
H       -2.68836213      -0.69579947       0.81415481
13
Frame=16 idx=002860 GeodesicLength=1.8582823514226505 rxn_smarts="[C:1]([C:2]([C@@:3]([O:4][H:13])([C:5]#[N:6])[H:12])([H:10])[H:11])([H:7])([H:8])[H:9]>>[C:1]1([H:8])([H:9])[C:2]([H:10])([H:11])[C@:3]([O:4][H:13])([H:12])[C:5][N:6]1[H:7]"
C        1.28731431       0.36614829      -0.48059095
C        0.46551549      -0.01321315       0.74766356
C       -0.85015483      -0.58957279       0.22545277
O       -1.83063227      -0.59483639       1.23131550
C       -1.25634913       0.26130314      -0.94281504
N       -0.45395234       0.94825319      -1.55203414
H        1.05204659       1.66847410      -1.12055641
H        2.33828962       0.39848271      -0.18687774
H        1.44732369      -0.27717196      -1.35158280
H        0.23206255       0.86268396       1.35782327
H        0.93400943      -0.72278935       1.42782668
H       -0.67888011      -1.60459294      -0.16423066
H       -2.68659300      -0.70316881       0.80860595
