12
Frame=0 idx=007453 GeodesicLength=0.0 rxn_smarts="[O:1]([C:2]([c:3]1[n:4][o:5][c:6]([H:11])[c:7]1[H:12])([H:9])[H:10])[H:8]>>[C+:2](=[C:3]1[N-:4][O:5][C:6]([H:11])=[C:7]1[H:12])[H:10].[O:1]([H:8])[H:9]"
O       -2.34422970       0.49324132      -0.47792808
C       -1.39203065      -0.61975656       0.25687962
C       -0.04817051      -0.12421134       0.08009058
N        0.15297967       1.10665896      -0.32473180
O        1.51642835       1.30634039      -0.35039909
C        2.10567826       0.18009104       0.04747102
C        1.19831901      -0.77155081       0.33922740
H       -1.71150519       1.22273992      -0.65914119
H       -2.40137381       0.33354295       0.57657153
H       -1.62971189      -1.54941664      -0.24774419
H        3.18377039       0.19852025       0.07541613
H        1.36984603      -1.77619950       0.68428811
12
Frame=1 idx=007453 GeodesicLength=0.04970058695218793 rxn_smarts="[O:1]([C:2]([c:3]1[n:4][o:5][c:6]([H:11])[c:7]1[H:12])([H:9])[H:10])[H:8]>>[C+:2](=[C:3]1[N-:4][O:5][C:6]([H:11])=[C:7]1[H:12])[H:10].[O:1]([H:8])[H:9]"
O       -2.34331483       0.49378461      -0.46915341
C       -1.39410223      -0.61948116       0.24364197
C       -0.04843124      -0.12427524       0.07271410
N        0.15451825       1.10523402      -0.33525042
O        1.51794991       1.30566126      -0.35316671
C        2.10556324       0.17925945       0.04696630
C        1.19650002      -0.76854776       0.34595374
H       -1.71188276       1.22295958      -0.65728653
H       -2.39820293       0.32658368       0.59678968
H       -1.62896068      -1.54716055      -0.26640922
H        3.18370467       0.19592957       0.07416726
H        1.36665857      -1.76994745       0.70103324
12
Frame=2 idx=007453 GeodesicLength=0.09939022429105289 rxn_smarts="[O:1]([C:2]([c:3]1[n:4][o:5][c:6]([H:11])[c:7]1[H:12])([H:9])[H:10])[H:8]>>[C+:2](=[C:3]1[N-:4][O:5][C:6]([H:11])=[C:7]1[H:12])[H:10].[O:1]([H:8])[H:9]"
O       -2.34217444       0.49364225      -0.46126826
C       -1.39628526      -0.61811169       0.23268225
C       -0.04873584      -0.12390670       0.06635645
N        0.15615416       1.10330039      -0.34746765
O        1.51943442       1.30523563      -0.35539546
C        2.10540204       0.17839297       0.04620477
C        1.19450647      -0.76482689       0.35420605
H       -1.71201792       1.22198014      -0.65793287
H       -2.39479644       0.32090726       0.61667781
H       -1.62848345      -1.54498252      -0.28053868
H        3.18345618       0.19471283       0.07691116
H        1.36354008      -1.76634367       0.70956443
12
Frame=3 idx=007453 GeodesicLength=0.14907448501531753 rxn_smarts="[O:1]([C:2]([c:3]1[n:4][o:5][c:6]([H:11])[c:7]1[H:12])([H:9])[H:10])[H:8]>>[C+:2](=[C:3]1[N-:4][O:5][C:6]([H:11])=[C:7]1[H:12])[H:10].[O:1]([H:8])[H:9]"
O       -2.34077896       0.49313880      -0.45420912
C       -1.39855955      -0.61616484       0.22291294
C       -0.04908532      -0.12321890       0.06087678
N        0.15783232       1.10121376      -0.36003398
O        1.52088708       1.30468425      -0.35810001
C        2.10506074       0.17859061       0.04848911
C        1.19234036      -0.76053718       0.36367536
H       -1.71191650       1.22038615      -0.66000169
H       -2.39135578       0.31558303       0.63611259
H       -1.62799776      -1.54282400      -0.29241928
H        3.18313446       0.19336304       0.07930781
H        1.36043892      -1.76421472       0.71338948
12
Frame=4 idx=007453 GeodesicLength=0.19876621143915052 rxn_smarts="[O:1]([C:2]([c:3]1[n:4][o:5][c:6]([H:11])[c:7]1[H:12])([H:9])[H:10])[H:8]>>[C+:2](=[C:3]1[N-:4][O:5][C:6]([H:11])=[C:7]1[H:12])[H:10].[O:1]([H:8])[H:9]"
O       -2.33929660       0.49288688      -0.44705604
C       -1.40084655      -0.61422027       0.21303982
C       -0.04942704      -0.12268263       0.05506330
N        0.15952760       1.09908808      -0.37247996
O        1.52230175       1.30402306      -0.36112709
C        2.10465587       0.17891316       0.05106268
C        1.19012397      -0.75661355       0.37187713
H       -1.71176367       1.21900854      -0.66180475
H       -2.38749629       0.30956204       0.65578692
H       -1.62776990      -1.54044780      -0.30467481
H        3.18275550       0.19203333       0.08177476
H        1.35723536      -1.76155083       0.71853806
12
Frame=5 idx=007453 GeodesicLength=0.24848411089598754 rxn_smarts="[O:1]([C:2]([c:3]1[n:4][o:5][c:6]([H:11])[c:7]1[H:12])([H:9])[H:10])[H:8]>>[C+:2](=[C:3]1[N-:4][O:5][C:6]([H:11])=[C:7]1[H:12])[H:10].[O:1]([H:8])[H:9]"
O       -2.33774224       0.49303193      -0.43962111
C       -1.40315161      -0.61238528       0.20279603
C       -0.04978359      -0.12220514       0.04911830
N        0.16119010       1.09721715      -0.38406217
O        1.52378431       1.30273593      -0.36587941
C        2.10428434       0.17859487       0.05183114
C        1.18783459      -0.75287982       0.37933070
H       -1.71160433       1.21816854      -0.66269235
H       -2.38335327       0.30237039       0.67578960
H       -1.62761979      -1.53770914      -0.31811545
H        3.18230094       0.19122461       0.08581993
H        1.35386053      -1.75816404       0.72568479
12
Frame=6 idx=007453 GeodesicLength=0.2981924578095875 rxn_smarts="[O:1]([C:2]([c:3]1[n:4][o:5][c:6]([H:11])[c:7]1[H:12])([H:9])[H:10])[H:8]>>[C+:2](=[C:3]1[N-:4][O:5][C:6]([H:11])=[C:7]1[H:12])[H:10].[O:1]([H:8])[H:9]"
O       -2.33598632       0.49342390      -0.43242690
C       -1.40542055      -0.61094880       0.19135635
C       -0.05012932      -0.12179470       0.04293875
N        0.16281294       1.09581564      -0.39433862
O        1.52522856       1.30185185      -0.36947120
C        2.10371069       0.17936660       0.05570949
C        1.18543765      -0.74924529       0.38621479
H       -1.71134580       1.21794262      -0.66263178
H       -2.37915508       0.29318011       0.69541674
H       -1.62716417      -1.53461771      -0.33412830
H        3.18194759       0.18784361       0.08315178
H        1.35006380      -1.75281782       0.73820889
12
Frame=7 idx=007453 GeodesicLength=0.34791443137130107 rxn_smarts="[O:1]([C:2]([c:3]1[n:4][o:5][c:6]([H:11])[c:7]1[H:12])([H:9])[H:10])[H:8]>>[C+:2](=[C:3]1[N-:4][O:5][C:6]([H:11])=[C:7]1[H:12])[H:10].[O:1]([H:8])[H:9]"
O       -2.33424800       0.49385933      -0.42494158
C       -1.40775559      -0.60887681       0.18133020
C       -0.05044072      -0.12171417       0.03597062
N        0.16460635       1.09335287      -0.40727721
O        1.52650282       1.30115066      -0.37265213
C        2.10310400       0.18004993       0.05897555
C        1.18305629      -0.74608675       0.39165438
H       -1.71103446       1.21706839      -0.66397801
H       -2.37380530       0.28508398       0.71586436
H       -1.62778954      -1.53154411      -0.34713348
H        3.18136506       0.18658064       0.08582973
H        1.34643907      -1.74892395       0.74635759
12
Frame=8 idx=007453 GeodesicLength=0.3976888866875611 rxn_smarts="[O:1]([C:2]([c:3]1[n:4][o:5][c:6]([H:11])[c:7]1[H:12])([H:9])[H:10])[H:8]>>[C+:2](=[C:3]1[N-:4][O:5][C:6]([H:11])=[C:7]1[H:12])[H:10].[O:1]([H:8])[H:9]"
O       -2.33234278       0.49428408      -0.41789899
C       -1.41016435      -0.60656225       0.17171159
C       -0.05078610      -0.12151026       0.02937329
N        0.16642822       1.09083021      -0.42021141
O        1.52771255       1.30059888      -0.37549142
C        2.10242099       0.18089959       0.06255567
C        1.18051582      -0.74255156       0.39791906
H       -1.71057778       1.21604368      -0.66590624
H       -2.36831042       0.27664555       0.73613228
H       -1.62842627      -1.52836330      -0.35951596
H        3.18072795       0.18512954       0.08802456
H        1.34280218      -1.74544417       0.75330757
12
Frame=9 idx=007453 GeodesicLength=0.4474273288383993 rxn_smarts="[O:1]([C:2]([c:3]1[n:4][o:5][c:6]([H:11])[c:7]1[H:12])([H:9])[H:10])[H:8]>>[C+:2](=[C:3]1[N-:4][O:5][C:6]([H:11])=[C:7]1[H:12])[H:10].[O:1]([H:8])[H:9]"
O       -2.33032888       0.49517324      -0.41044508
C       -1.41252991      -0.60456715       0.16110112
C       -0.05108797      -0.12157441       0.02202719
N        0.16824582       1.08854813      -0.43246365
O        1.52892542       1.29998940      -0.37847202
C        2.10163630       0.18197181       0.06669670
C        1.17797153      -0.73956934       0.40252401
H       -1.71009122       1.21572082      -0.66662237
H       -2.36225702       0.26632109       0.75665555
H       -1.62920753      -1.52471143      -0.37414077
H        3.18004354       0.18274708       0.08798105
H        1.33867992      -1.74004923       0.76515828
12
Frame=10 idx=007453 GeodesicLength=0.497229787714482 rxn_smarts="[O:1]([C:2]([c:3]1[n:4][o:5][c:6]([H:11])[c:7]1[H:12])([H:9])[H:10])[H:8]>>[C+:2](=[C:3]1[N-:4][O:5][C:6]([H:11])=[C:7]1[H:12])[H:10].[O:1]([H:8])[H:9]"
O       -2.32817166       0.49622954      -0.40320183
C       -1.41493010      -0.60260580       0.15011144
C       -0.05144983      -0.12128773       0.01541164
N        0.16997461       1.08694773      -0.44305630
O        1.53034359       1.29871752      -0.38327077
C        2.10089352       0.18253650       0.06953828
C        1.17519692      -0.73584915       0.40867568
H       -1.70955015       1.21589440      -0.66660232
H       -2.35644955       0.25428002       0.77690080
H       -1.62948106      -1.52060502      -0.39017407
H        3.17936237       0.17989618       0.08735588
H        1.33426133      -1.73415419       0.77831157
12
Frame=11 idx=007453 GeodesicLength=0.5470569368431085 rxn_smarts="[O:1]([C:2]([c:3]1[n:4][o:5][c:6]([H:11])[c:7]1[H:12])([H:9])[H:10])[H:8]>>[C+:2](=[C:3]1[N-:4][O:5][C:6]([H:11])=[C:7]1[H:12])[H:10].[O:1]([H:8])[H:9]"
O       -2.32598781       0.49785172      -0.39499367
C       -1.41727087      -0.60095351       0.13806117
C       -0.05176601      -0.12126783       0.00791421
N        0.17165709       1.08566045      -0.45301635
O        1.53200614       1.29656766      -0.39031038
C        2.10010459       0.18298773       0.07210437
C        1.17240828      -0.73265732       0.41317417
H       -1.70908748       1.21692743      -0.66487653
H       -2.34990766       0.24002694       0.79780940
H       -1.62996903      -1.51577276      -0.40883237
H        3.17861235       0.17691298       0.08700062
H        1.32920041      -1.72628348       0.79596535
12
Frame=12 idx=007453 GeodesicLength=0.5969191512099185 rxn_smarts="[O:1]([C:2]([c:3]1[n:4][o:5][c:6]([H:11])[c:7]1[H:12])([H:9])[H:10])[H:8]>>[C+:2](=[C:3]1[N-:4][O:5][C:6]([H:11])=[C:7]1[H:12])[H:10].[O:1]([H:8])[H:9]"
O       -2.32370970       0.49971091      -0.38657553
C       -1.41963183      -0.59925891       0.12574095
C       -0.05210080      -0.12115578       0.00044515
N        0.17329421       1.08474102      -0.46222699
O        1.53388266       1.29378397      -0.39892193
C        2.09933602       0.18311892       0.07387052
C        1.16949154      -0.72932970       0.41770896
H       -1.70860325       1.21838268      -0.66246211
H       -2.34310035       0.22412596       0.81876972
H       -1.63042782      -1.51039761      -0.42850952
H        3.17784913       0.17388275       0.08709820
H        1.32372019      -1.71760422       0.81506260
12
Frame=13 idx=007453 GeodesicLength=0.6468220396913346 rxn_smarts="[O:1]([C:2]([c:3]1[n:4][o:5][c:6]([H:11])[c:7]1[H:12])([H:9])[H:10])[H:8]>>[C+:2](=[C:3]1[N-:4][O:5][C:6]([H:11])=[C:7]1[H:12])[H:10].[O:1]([H:8])[H:9]"
O       -2.32130569       0.50170951      -0.37809929
C       -1.42202984      -0.59737396       0.11354482
C       -0.05243229      -0.12106984      -0.00717532
N        0.17496139       1.08382414      -0.47148488
O        1.53580676       1.29089347      -0.40767971
C        2.09851517       0.18333194       0.07578241
C        1.16651647      -0.72613584       0.42175126
H       -1.70802632       1.21990228      -0.66011291
H       -2.33581305       0.20721394       0.83977041
H       -1.63112532      -1.50464678      -0.44816744
H        3.17702318       0.17078956       0.08729457
H        1.31790953      -1.70843842       0.83457607
12
Frame=14 idx=007453 GeodesicLength=0.6967444577927114 rxn_smarts="[O:1]([C:2]([c:3]1[n:4][o:5][c:6]([H:11])[c:7]1[H:12])([H:9])[H:10])[H:8]>>[C+:2](=[C:3]1[N-:4][O:5][C:6]([H:11])=[C:7]1[H:12])[H:10].[O:1]([H:8])[H:9]"
O       -2.31876381       0.50378039      -0.36976055
C       -1.42446072      -0.59529974       0.10143934
C       -0.05278062      -0.12084133      -0.01457766
N        0.17662089       1.08318562      -0.48016443
O        1.53783613       1.28780308      -0.41679014
C        2.09766696       0.18357967       0.07776199
C        1.16346202      -0.72290637       0.42569104
H       -1.70735511       1.22150962      -0.65782224
H       -2.32833320       0.18909004       0.86055349
H       -1.63181228      -1.49850065      -0.46795724
H        3.17615973       0.16732143       0.08697098
H        1.31176001      -1.69872177       0.85465542
12
Frame=15 idx=007453 GeodesicLength=0.7466849437938693 rxn_smarts="[O:1]([C:2]([c:3]1[n:4][o:5][c:6]([H:11])[c:7]1[H:12])([H:9])[H:10])[H:8]>>[C+:2](=[C:3]1[N-:4][O:5][C:6]([H:11])=[C:7]1[H:12])[H:10].[O:1]([H:8])[H:9]"
O       -2.31608618       0.50590137      -0.36162133
C       -1.42692965      -0.59299759       0.08952372
C       -0.05314830      -0.12046196      -0.02172910
N        0.17827940       1.08280943      -0.48829476
O        1.53994276       1.28462476      -0.42593389
C        2.09680291       0.18380696       0.07968274
C        1.16035809      -0.71971734       0.42939208
H       -1.70658496       1.22312993      -0.65576938
H       -2.32067127       0.16986233       0.88107296
H       -1.63251101      -1.49199439      -0.48764467
H        3.17525983       0.16350953       0.08617213
H        1.30528838      -1.68847303       0.87514949
12
Frame=16 idx=007453 GeodesicLength=0.7966342526022042 rxn_smarts="[O:1]([C:2]([c:3]1[n:4][o:5][c:6]([H:11])[c:7]1[H:12])([H:9])[H:10])[H:8]>>[C+:2](=[C:3]1[N-:4][O:5][C:6]([H:11])=[C:7]1[H:12])[H:10].[O:1]([H:8])[H:9]"
O       -2.31327737       0.50808696      -0.35368159
C       -1.42946904      -0.59036935       0.07810067
C       -0.05353722      -0.12002292      -0.02877011
N        0.17997122       1.08242147      -0.49646731
O        1.54203730       1.28156131      -0.43462246
C        2.09590890       0.18400953       0.08150956
C        1.15724104      -0.71671802       0.43257982
H       -1.70570057       1.22458092      -0.65437995
H       -2.31264321       0.15002476       0.90145147
H       -1.63345964      -1.48525099      -0.50651063
H        3.17431147       0.15978973       0.08571619
H        1.29861714      -1.67811340       0.89507435
