13
Frame=0 idx=007971 GeodesicLength=0.0 rxn_smarts="[N:1](=[C:2]1\[O:3][C:4]([H:9])([H:10])[C@@:5]12[C:6]([H:11])([H:12])[N:7]2[H:13])\[H:8]>>[N:1]([C:2]1=[O+:3][C-:4]([H:10])[C@@:5]12[C:6]([H:11])([H:12])[N:7]2[H:13])([H:8])[H:9]"
N        1.77968308      -0.87825316       0.03564070
C        0.93593473      -0.17008651      -0.72607372
O        1.26121299       1.18658777      -0.67813590
C        0.46338369       1.21517602       0.48828073
C       -0.33880767      -0.00226515      -0.00019894
C       -1.76486747      -0.11972296      -0.34896261
N       -1.13443863      -0.95804666       0.67000964
H        2.74083181      -0.58695722      -0.14514663
H        1.48190701      -0.03644261       0.98082694
H       -0.02152484       2.18322314       0.65449015
H       -2.00849237      -0.54654000      -1.31510716
H       -2.46680918       0.61144347       0.03241379
H       -0.92801315      -1.89811608       0.35196301
13
Frame=1 idx=007971 GeodesicLength=0.0802580627116873 rxn_smarts="[N:1](=[C:2]1\[O:3][C:4]([H:9])([H:10])[C@@:5]12[C:6]([H:11])([H:12])[N:7]2[H:13])\[H:8]>>[N:1]([C:2]1=[O+:3][C-:4]([H:10])[C@@:5]12[C:6]([H:11])([H:12])[N:7]2[H:13])([H:8])[H:9]"
N        1.77950860      -0.87985496       0.02483257
C        0.93239010      -0.15972906      -0.71807053
O        1.25689253       1.19223111      -0.66705175
C        0.45852222       1.22031347       0.51301258
C       -0.34255374       0.00837854       0.00964490
C       -1.76257703      -0.12368578      -0.35796164
N       -1.14232368      -0.94848443       0.67754229
H        2.74252256      -0.62308602      -0.18995780
H        1.50087617      -0.03007860       0.99652574
H       -0.03366854       2.18781635       0.65930567
H       -1.98987040      -0.56193862      -1.32312249
H       -2.47345649       0.60781953       0.00589576
H       -0.92626230      -1.88970153       0.36940471
13
Frame=2 idx=007971 GeodesicLength=0.16049788449630453 rxn_smarts="[N:1](=[C:2]1\[O:3][C:4]([H:9])([H:10])[C@@:5]12[C:6]([H:11])([H:12])[N:7]2[H:13])\[H:8]>>[N:1]([C:2]1=[O+:3][C-:4]([H:10])[C@@:5]12[C:6]([H:11])([H:12])[N:7]2[H:13])([H:8])[H:9]"
N        1.77945647      -0.88086907       0.01454068
C        0.92918938      -0.14928562      -0.70964303
O        1.25274011       1.19802997      -0.65573945
C        0.45325933       1.22554716       0.53776538
C       -0.34631377       0.01912545       0.01930006
C       -1.75988868      -0.12783150      -0.36704009
N       -1.15017184      -0.93892895       0.68480617
H        2.74184990      -0.66044635      -0.23608234
H        1.52011836      -0.02277054       1.01264952
H       -0.04567801       2.19228832       0.66444399
H       -1.97066377      -0.57748284      -1.33086309
H       -2.47954234       0.60375493      -0.02093351
H       -0.92435514      -1.88113096       0.38679570
13
Frame=3 idx=007971 GeodesicLength=0.2407057206499973 rxn_smarts="[N:1](=[C:2]1\[O:3][C:4]([H:9])([H:10])[C@@:5]12[C:6]([H:11])([H:12])[N:7]2[H:13])\[H:8]>>[N:1]([C:2]1=[O+:3][C-:4]([H:10])[C@@:5]12[C:6]([H:11])([H:12])[N:7]2[H:13])([H:8])[H:9]"
N        1.77960826      -0.88125779       0.00473858
C        0.92635573      -0.13872991      -0.70079054
O        1.24875909       1.20401473      -0.64418603
C        0.44758294       1.23088492       0.56255670
C       -0.35006845       0.02998319       0.02876441
C       -1.75676788      -0.13217005      -0.37619593
N       -1.15794263      -0.92939931       0.69178115
H        2.73852457      -0.69917460      -0.28350283
H        1.53964212      -0.01446463       1.02922669
H       -0.05758796       2.19666697       0.66988895
H       -1.95082889      -0.59316508      -1.33832507
H       -2.48503904       0.59921900      -0.04806362
H       -0.92223785      -1.87240744       0.40410755
13
Frame=4 idx=007971 GeodesicLength=0.32087930345240234 rxn_smarts="[N:1](=[C:2]1\[O:3][C:4]([H:9])([H:10])[C@@:5]12[C:6]([H:11])([H:12])[N:7]2[H:13])\[H:8]>>[N:1]([C:2]1=[O+:3][C-:4]([H:10])[C@@:5]12[C:6]([H:11])([H:12])[N:7]2[H:13])([H:8])[H:9]"
N        1.78005190      -0.88097573      -0.00461730
C        0.92391562      -0.12802469      -0.69152439
O        1.24495866       1.21022878      -0.63238680
C        0.44148805       1.23633689       0.58740137
C       -0.35379594       0.04095921       0.03803098
C       -1.75318446      -0.13671445      -0.38542786
N       -1.16559024      -0.91992526       0.69844550
H        2.73222083      -0.73941759      -0.33215218
H        1.55946735      -0.00509983       1.04628183
H       -0.06942302       2.20097891       0.67562767
H       -1.93033321      -0.60897493      -1.34551161
H       -2.48992358       0.59417160      -0.07547265
H       -0.91985196      -1.86354291       0.42130544
13
Frame=5 idx=007971 GeodesicLength=0.40099612647197197 rxn_smarts="[N:1](=[C:2]1\[O:3][C:4]([H:9])([H:10])[C@@:5]12[C:6]([H:11])([H:12])[N:7]2[H:13])\[H:8]>>[N:1]([C:2]1=[O+:3][C-:4]([H:10])[C@@:5]12[C:6]([H:11])([H:12])[N:7]2[H:13])([H:8])[H:9]"
N        1.78087300      -0.87997642      -0.01358854
C        0.92189367      -0.11713257      -0.68185846
O        1.24133367       1.21671479      -0.62034146
C        0.43496352       1.24191349       0.61230355
C       -0.35746864       0.05206022       0.04709151
C       -1.74909615      -0.14147429      -0.39472752
N       -1.17304960      -0.91054265       0.70476642
H        2.72256198      -0.78133775      -0.38190550
H        1.57961228       0.00539410       1.06382128
H       -0.08121631       2.20524753       0.68164362
H       -1.90912710      -0.62488230      -1.35242230
H       -2.49416531       0.58856814      -0.10311641
H       -0.91711500      -1.85455228       0.43833382
13
Frame=6 idx=007971 GeodesicLength=0.48106030456830284 rxn_smarts="[N:1](=[C:2]1\[O:3][C:4]([H:9])([H:10])[C@@:5]12[C:6]([H:11])([H:12])[N:7]2[H:13])\[H:8]>>[N:1]([C:2]1=[O+:3][C-:4]([H:10])[C@@:5]12[C:6]([H:11])([H:12])[N:7]2[H:13])([H:8])[H:9]"
N        1.78217528      -0.87819973      -0.02225669
C        0.92031672      -0.10600537      -0.67181495
O        1.23788820       1.22352403      -0.60805154
C        0.42801146       1.24761403       0.63728362
C       -0.36105626       0.06329301       0.05593938
C       -1.74445626      -0.14646716      -0.40409826
N       -1.18025949      -0.90128279       0.71072485
H        2.70909539      -0.82507300      -0.43263553
H        1.60010372       0.01708131       1.08185877
H       -0.09298481       2.20947817       0.68794805
H       -1.88715759      -0.64088393      -1.35906616
H       -2.49772609       0.58236579      -0.13098862
H       -0.91395025      -1.84544436       0.45515709
13
Frame=7 idx=007971 GeodesicLength=0.5610480201944703 rxn_smarts="[N:1](=[C:2]1\[O:3][C:4]([H:9])([H:10])[C@@:5]12[C:6]([H:11])([H:12])[N:7]2[H:13])\[H:8]>>[N:1]([C:2]1=[O+:3][C-:4]([H:10])[C@@:5]12[C:6]([H:11])([H:12])[N:7]2[H:13])([H:8])[H:9]"
N        1.78404576      -0.87559196      -0.03075210
C        0.91921086      -0.09459130      -0.66144222
O        1.23461129       1.23071729      -0.59553651
C        0.42063266       1.25344331       0.66233279
C       -0.36452276       0.07465947       0.06454884
C       -1.73922259      -0.15170361      -0.41352779
N       -1.18712950      -0.89220141       0.71627198
H        2.69136086      -0.87077661      -0.48403025
H        1.62097877       0.03003844       1.10035840
H       -0.10474517       2.21368469       0.69454461
H       -1.86439588      -0.65694292      -1.36544264
H       -2.50057084       0.57551582      -0.15901052
H       -0.91025347      -1.83625121       0.47168542
13
Frame=8 idx=007971 GeodesicLength=0.6409893479376274 rxn_smarts="[N:1](=[C:2]1\[O:3][C:4]([H:9])([H:10])[C@@:5]12[C:6]([H:11])([H:12])[N:7]2[H:13])\[H:8]>>[N:1]([C:2]1=[O+:3][C-:4]([H:10])[C@@:5]12[C:6]([H:11])([H:12])[N:7]2[H:13])([H:8])[H:9]"
N        1.78660314      -0.87210869      -0.03923908
C        0.91861364      -0.08283237      -0.65080101
O        1.23150466       1.23837334      -0.58282666
C        0.41283654       1.25939973       0.68745297
C       -0.36783458       0.08616056       0.07289925
C       -1.73336254      -0.15719470      -0.42301024
N       -1.19358660      -0.88336494       0.72137338
H        2.66887099      -0.91857026      -0.53573712
H        1.64229564       0.04432319       1.11927447
H       -0.11651568       2.21788210       0.70145891
H       -1.84080977      -0.67302820      -1.37156253
H       -2.50268773       0.56798404      -0.18712951
H       -0.90592769      -1.82702380       0.48784717
13
Frame=9 idx=007971 GeodesicLength=0.7208225487725239 rxn_smarts="[N:1](=[C:2]1\[O:3][C:4]([H:9])([H:10])[C@@:5]12[C:6]([H:11])([H:12])[N:7]2[H:13])\[H:8]>>[N:1]([C:2]1=[O+:3][C-:4]([H:10])[C@@:5]12[C:6]([H:11])([H:12])[N:7]2[H:13])([H:8])[H:9]"
N        1.78991148      -0.86766606      -0.04790327
C        0.91850805      -0.07067278      -0.63994865
O        1.22851733       1.24651316      -0.56994857
C        0.40465664       1.26542591       0.71265660
C       -0.37094184       0.09779306       0.08097666
C       -1.72679136      -0.16295925      -0.43255180
N       -1.19950279      -0.87479716       0.72599257
H        2.64095534      -0.96848894      -0.58734877
H        1.66410569       0.06000257       1.13855365
H       -0.12827316       2.22198783       0.70873118
H       -1.81632304      -0.68910403      -1.37745489
H       -2.50398415       0.55969726      -0.21532310
H       -0.90083818      -1.81773158       0.50356840
13
Frame=10 idx=007971 GeodesicLength=0.8006343479200715 rxn_smarts="[N:1](=[C:2]1\[O:3][C:4]([H:9])([H:10])[C@@:5]12[C:6]([H:11])([H:12])[N:7]2[H:13])\[H:8]>>[N:1]([C:2]1=[O+:3][C-:4]([H:10])[C@@:5]12[C:6]([H:11])([H:12])[N:7]2[H:13])([H:8])[H:9]"
N        1.79409399      -0.86225710      -0.05702752
C        0.91893886      -0.05805288      -0.62901437
O        1.22564817       1.25523396      -0.55698838
C        0.39611786       1.27149567       0.73792010
C       -0.37381472       0.10954441       0.08873570
C       -1.71951338      -0.16898888      -0.44213590
N       -1.20480007      -0.86660866       0.73008425
H        2.60718757      -1.02055414      -0.63817019
H        1.68651481       0.07709613       1.15806609
H       -0.14003199       2.22601192       0.71640804
H       -1.79096382      -0.70509288      -1.38313790
H       -2.50449590       0.55065178      -0.24347460
H       -0.89488137      -1.80847933       0.51873469
13
Frame=11 idx=007971 GeodesicLength=0.8804143272316941 rxn_smarts="[N:1](=[C:2]1\[O:3][C:4]([H:9])([H:10])[C@@:5]12[C:6]([H:11])([H:12])[N:7]2[H:13])\[H:8]>>[N:1]([C:2]1=[O+:3][C-:4]([H:10])[C@@:5]12[C:6]([H:11])([H:12])[N:7]2[H:13])([H:8])[H:9]"
N        1.79918715      -0.85584553      -0.06694166
C        0.91989839      -0.04492231      -0.61813761
O        1.22286513       1.26458871      -0.54402779
C        0.38728444       1.27754239       0.76321864
C       -0.37641131       0.12139127       0.09612589
C       -1.71150132      -0.17528865      -0.45174793
N       -1.20936582      -0.85888972       0.73357956
H        2.56706686      -1.07467429      -0.68736135
H        1.70961868       0.09564641       1.17763895
H       -0.15173596       2.22989551       0.72455844
H       -1.76476019      -0.72092557      -1.38863543
H       -2.50418840       0.54080900      -0.27145620
H       -0.88795765      -1.79932724       0.53318649
13
Frame=12 idx=007971 GeodesicLength=0.9604179281983407 rxn_smarts="[N:1](=[C:2]1\[O:3][C:4]([H:9])([H:10])[C@@:5]12[C:6]([H:11])([H:12])[N:7]2[H:13])\[H:8]>>[N:1]([C:2]1=[O+:3][C-:4]([H:10])[C@@:5]12[C:6]([H:11])([H:12])[N:7]2[H:13])([H:8])[H:9]"
N        1.80533131      -0.84853702      -0.07808902
C        0.92146459      -0.03121676      -0.60751758
O        1.22015147       1.27479287      -0.53120163
C        0.37810865       1.28357953       0.78851438
C       -0.37873117       0.13332258       0.10310208
C       -1.70278043      -0.18180419      -0.46133353
N       -1.21317331      -0.85185791       0.73642959
H        2.52044749      -1.13095403      -0.73392605
H        1.73352080       0.11561379       1.19699000
H       -0.16351284       2.23379775       0.73327992
H       -1.73770647      -0.73647054      -1.39394795
H       -2.50316118       0.53030526      -0.29906941
H       -0.87995889      -1.79057134       0.54676921
13
Frame=13 idx=007971 GeodesicLength=1.0399797673260445 rxn_smarts="[N:1](=[C:2]1\[O:3][C:4]([H:9])([H:10])[C@@:5]12[C:6]([H:11])([H:12])[N:7]2[H:13])\[H:8]>>[N:1]([C:2]1=[O+:3][C-:4]([H:10])[C@@:5]12[C:6]([H:11])([H:12])[N:7]2[H:13])([H:8])[H:9]"
N        1.81214238      -0.83997141      -0.09077558
C        0.92323831      -0.01694650      -0.59712356
O        1.21724481       1.28536289      -0.51835951
C        0.36897091       1.28917463       0.81391176
C       -0.38063769       0.14529484       0.10965808
C       -1.69307456      -0.18869632      -0.47104751
N       -1.21582635      -0.84512878       0.73851515
H        2.46572277      -1.18844371      -0.77713785
H        1.75830528       0.13711842       1.21604025
H       -0.17481896       2.23692824       0.74272619
H       -1.70972006      -0.75191020      -1.39918287
H       -2.50089288       0.51870525      -0.32665009
H       -0.87065399      -1.78148733       0.55942554
13
Frame=14 idx=007971 GeodesicLength=1.1202878885290388 rxn_smarts="[N:1](=[C:2]1\[O:3][C:4]([H:9])([H:10])[C@@:5]12[C:6]([H:11])([H:12])[N:7]2[H:13])\[H:8]>>[N:1]([C:2]1=[O+:3][C-:4]([H:10])[C@@:5]12[C:6]([H:11])([H:12])[N:7]2[H:13])([H:8])[H:9]"
N        1.82010468      -0.83080442      -0.10562750
C        0.92555802      -0.00221155      -0.58747603
O        1.21428952       1.29669941      -0.50611102
C        0.35964162       1.29444709       0.83922641
C       -0.38228946       0.15724481       0.11569113
C       -1.68286600      -0.19563705      -0.48070760
N       -1.21761151      -0.83931461       0.73995454
H        2.40468147      -1.24705974      -0.81526291
H        1.78424193       0.15976535       1.23442138
H       -0.18615720       2.23991224       0.75289081
H       -1.68123178      -0.76665924      -1.40444832
H       -2.49818802       0.50666704      -0.35349472
H       -0.86017327      -1.77304933       0.57094383
13
Frame=15 idx=007971 GeodesicLength=1.2002014738724367 rxn_smarts="[N:1](=[C:2]1\[O:3][C:4]([H:9])([H:10])[C@@:5]12[C:6]([H:11])([H:12])[N:7]2[H:13])\[H:8]>>[N:1]([C:2]1=[O+:3][C-:4]([H:10])[C@@:5]12[C:6]([H:11])([H:12])[N:7]2[H:13])([H:8])[H:9]"
N        1.82848074      -0.82079907      -0.12310661
C        0.92803737       0.01295371      -0.57859685
O        1.21115448       1.30852642      -0.49433344
C        0.35051711       1.29905014       0.86430580
C       -0.38358694       0.16903956       0.12111353
C       -1.67198312      -0.20275656      -0.49026408
N       -1.21834175      -0.83438547       0.74038938
H        2.33689836      -1.30569266      -0.84673186
H        1.81123768       0.18374420       1.25157334
H       -0.19681527       2.24220319       0.76383445
H       -1.65241372      -0.78075552      -1.40957840
H       -2.49450799       0.49389782      -0.37943057
H       -0.84867695      -1.76502576       0.58082531
13
Frame=16 idx=007971 GeodesicLength=1.2804300313127193 rxn_smarts="[N:1](=[C:2]1\[O:3][C:4]([H:9])([H:10])[C@@:5]12[C:6]([H:11])([H:12])[N:7]2[H:13])\[H:8]>>[N:1]([C:2]1=[O+:3][C-:4]([H:10])[C@@:5]12[C:6]([H:11])([H:12])[N:7]2[H:13])([H:8])[H:9]"
N        1.83744159      -0.81002377      -0.14376666
C        0.93069480       0.02855773      -0.57074749
O        1.20781935       1.32081306      -0.48321916
C        0.34162877       1.30275812       0.88921059
C       -0.38460932       0.18066869       0.12590627
C       -1.66064537      -0.20993550      -0.49976700
N       -1.21806598      -0.83038450       0.73988350
H        2.26284981      -1.36406897      -0.87039225
H        1.83958231       0.20886594       1.26729911
H       -0.20692300       2.24364668       0.77574155
H       -1.62345763      -0.79400123      -1.41476744
H       -2.49023333       0.48055694      -0.40443595
H       -0.83608197      -1.75745318       0.58905493
