14
Frame=0 idx=006951 GeodesicLength=0.0 rxn_smarts="[O:1]=[C:2]([N:3]([C:4]([C:5]([C:6]#[C:7][H:14])([H:12])[H:13])([H:10])[H:11])[H:9])[H:8]>>[C:4](=[C:5]([C:6]#[C:7][H:14])[H:12])([H:10])[H:11].[O:1](/[C:2](=[N:3]/[H:9])[H:8])[H:13]"
O        0.89205989       0.01490155      -1.76508456
C       -0.17028816       0.74546211      -1.79847196
N       -1.20694789       0.48623423      -1.08704075
C       -1.06665381      -0.58015997       0.39194218
C        0.25378159      -0.99911946       0.65317910
C        1.09325009      -0.22321895       1.49574590
C        1.80602946       0.47038146       2.17667850
H       -0.12823042       1.60637727      -2.47089234
H       -1.94830656       1.17063655      -1.13614820
H       -1.77419233      -1.33759510       0.07535947
H       -1.50305772       0.16573151       1.05015425
H        0.49806329      -2.04474916       0.50428097
H        0.82231095      -0.54126728      -0.88528818
H        2.43218167       1.06638529       2.79558565
14
Frame=1 idx=006951 GeodesicLength=0.085719533898395 rxn_smarts="[O:1]=[C:2]([N:3]([C:4]([C:5]([C:6]#[C:7][H:14])([H:12])[H:13])([H:10])[H:11])[H:9])[H:8]>>[C:4](=[C:5]([C:6]#[C:7][H:14])[H:12])([H:10])[H:11].[O:1](/[C:2](=[N:3]/[H:9])[H:8])[H:13]"
O        0.89313645       0.01852791      -1.76430614
C       -0.16422962       0.75425193      -1.79877006
N       -1.19930099       0.50591227      -1.07820640
C       -1.07374795      -0.59866627       0.39146789
C        0.24720400      -1.01748713       0.65713786
C        1.08094807      -0.23946101       1.50597791
C        1.80504317       0.47720495       2.14943503
H       -0.11827639       1.61775478      -2.46794089
H       -1.92829767       1.20414324      -1.11628771
H       -1.77352339      -1.35629007       0.05799472
H       -1.51676308       0.14104714       1.05194660
H        0.48686715      -2.06704828       0.52896433
H        0.83561887      -0.54168752      -0.86384245
H        2.42532137       1.10179806       2.74642932
14
Frame=2 idx=006951 GeodesicLength=0.17115443736016295 rxn_smarts="[O:1]=[C:2]([N:3]([C:4]([C:5]([C:6]#[C:7][H:14])([H:12])[H:13])([H:10])[H:11])[H:9])[H:8]>>[C:4](=[C:5]([C:6]#[C:7][H:14])[H:12])([H:10])[H:11].[O:1](/[C:2](=[N:3]/[H:9])[H:8])[H:13]"
O        0.89417101       0.02362959      -1.76367746
C       -0.16008787       0.76167695      -1.80151873
N       -1.19263780       0.52413283      -1.07077557
C       -1.08092092      -0.61692024       0.39010056
C        0.24119771      -1.03260843       0.66175192
C        1.06685234      -0.24938515       1.51641141
C        1.79887448       0.48866128       2.12529348
H       -0.11093301       1.62785690      -2.46734306
H       -1.90945836       1.23535222      -1.09795411
H       -1.77091635      -1.37632681       0.04019538
H       -1.53252576       0.11662808       1.05135063
H        0.47767728      -2.08562373       0.55689952
H        0.84929290      -0.54009338      -0.84168919
H        2.42941435       1.12301990       2.70095523
14
Frame=3 idx=006951 GeodesicLength=0.2564954764461681 rxn_smarts="[O:1]=[C:2]([N:3]([C:4]([C:5]([C:6]#[C:7][H:14])([H:12])[H:13])([H:10])[H:11])[H:9])[H:8]>>[C:4](=[C:5]([C:6]#[C:7][H:14])[H:12])([H:10])[H:11].[O:1](/[C:2](=[N:3]/[H:9])[H:8])[H:13]"
O        0.89463968       0.02849762      -1.76419398
C       -0.15687014       0.76834993      -1.80545240
N       -1.18559865       0.54275789      -1.06264125
C       -1.08725761      -0.63480511       0.38876211
C        0.23608291      -1.04764120       0.66572335
C        1.05414503      -0.25900062       1.52551646
C        1.79338480       0.49718024       2.10212874
H       -0.10473404       1.63720619      -2.46792063
H       -1.88894070       1.26767237      -1.07742228
H       -1.76764636      -1.39569265       0.02311712
H       -1.54683297       0.09297110       1.05061124
H        0.46827084      -2.10392941       0.58530111
H        0.86270569      -0.53921171      -0.82041666
H        2.42865152       1.14564537       2.65688707
14
Frame=4 idx=006951 GeodesicLength=0.34169343673233216 rxn_smarts="[O:1]=[C:2]([N:3]([C:4]([C:5]([C:6]#[C:7][H:14])([H:12])[H:13])([H:10])[H:11])[H:9])[H:8]>>[C:4](=[C:5]([C:6]#[C:7][H:14])[H:12])([H:10])[H:11].[O:1](/[C:2](=[N:3]/[H:9])[H:8])[H:13]"
O        0.89518257       0.03460303      -1.76484508
C       -0.15477884       0.77449817      -1.81063209
N       -1.17884430       0.56080441      -1.05498745
C       -1.09334028      -0.65256026       0.38691265
C        0.23148298      -1.06131755       0.66978522
C        1.04083313      -0.26591295       1.53450372
C        1.78537295       0.50656539       2.08150172
H       -0.10062608       1.64553196      -2.47047002
H       -1.86823775       1.29917113      -1.05686742
H       -1.76320494      -1.41552716       0.00601397
H       -1.56158528       0.06965546       1.04848534
H        0.45947756      -2.12037226       0.61539807
H        0.87624786      -0.53752664      -0.79893433
H        2.43202042       1.16238728       2.61413567
14
Frame=5 idx=006951 GeodesicLength=0.4269445886804998 rxn_smarts="[O:1]=[C:2]([N:3]([C:4]([C:5]([C:6]#[C:7][H:14])([H:12])[H:13])([H:10])[H:11])[H:9])[H:8]>>[C:4](=[C:5]([C:6]#[C:7][H:14])[H:12])([H:10])[H:11].[O:1](/[C:2](=[N:3]/[H:9])[H:8])[H:13]"
O        0.89513854       0.04003997      -1.76688813
C       -0.15300047       0.78044523      -1.81612798
N       -1.17101496       0.57989863      -1.04585867
C       -1.09831950      -0.66982436       0.38552605
C        0.22777165      -1.07636843       0.67269766
C        1.03022489      -0.27532709       1.54165994
C        1.78084630       0.51011344       2.06072220
H       -0.09718214       1.65327128      -2.47384279
H       -1.84441845       1.33278240      -1.03284030
H       -1.75898131      -1.43376547      -0.00970318
H       -1.57340243       0.04757926       1.04716712
H        0.44931593      -2.13804079       0.64471225
H        0.88934248      -0.53792242      -0.77898721
H        2.42367944       1.18711835       2.57176304
14
Frame=6 idx=006951 GeodesicLength=0.5120709680506754 rxn_smarts="[O:1]=[C:2]([N:3]([C:4]([C:5]([C:6]#[C:7][H:14])([H:12])[H:13])([H:10])[H:11])[H:9])[H:8]>>[C:4](=[C:5]([C:6]#[C:7][H:14])[H:12])([H:10])[H:11].[O:1](/[C:2](=[N:3]/[H:9])[H:8])[H:13]"
O        0.89536263       0.04724291      -1.76881497
C       -0.15231298       0.78618223      -1.82261517
N       -1.16376705       0.59796264      -1.03775212
C       -1.10323943      -0.68707255       0.38348239
C        0.22441579      -1.08979741       0.67592895
C        1.01841851      -0.28144768       1.54898539
C        1.77318755       0.51622908       2.04222191
H       -0.09609249       1.66024142      -2.47906602
H       -1.82102027       1.36463258      -1.00979210
H       -1.75355578      -1.45289778      -0.02546991
H       -1.58616624       0.02579121       1.04405551
H        0.43989406      -2.15333051       0.67606176
H        0.90261691      -0.53728385      -0.75858528
H        2.42225878       1.20354771       2.53135965
14
Frame=7 idx=006951 GeodesicLength=0.597176907975105 rxn_smarts="[O:1]=[C:2]([N:3]([C:4]([C:5]([C:6]#[C:7][H:14])([H:12])[H:13])([H:10])[H:11])[H:9])[H:8]>>[C:4](=[C:5]([C:6]#[C:7][H:14])[H:12])([H:10])[H:11].[O:1](/[C:2](=[N:3]/[H:9])[H:8])[H:13]"
O        0.89554435       0.05512699      -1.77119971
C       -0.15214790       0.79194512      -1.82945109
N       -1.15641760       0.61574144      -1.02973656
C       -1.10777048      -0.70421491       0.38123329
C        0.22148478      -1.10303580       0.67894789
C        1.00688322      -0.28686982       1.55569834
C        1.76517839       0.52165733       2.02467810
H       -0.09615056       1.66710271      -2.48486562
H       -1.79665210       1.39602919      -0.98615698
H       -1.74767688      -1.47201990      -0.04067641
H       -1.59836115       0.00463321       1.04018207
H        0.43012502      -2.16779539       0.70832654
H        0.91577229      -0.53722394      -0.73851745
H        2.42018863       1.21892375       2.49153759
14
Frame=8 idx=006951 GeodesicLength=0.6822285062135264 rxn_smarts="[O:1]=[C:2]([N:3]([C:4]([C:5]([C:6]#[C:7][H:14])([H:12])[H:13])([H:10])[H:11])[H:9])[H:8]>>[C:4](=[C:5]([C:6]#[C:7][H:14])[H:12])([H:10])[H:11].[O:1](/[C:2](=[N:3]/[H:9])[H:8])[H:13]"
O        0.89585118       0.06416897      -1.77367302
C       -0.15253104       0.79790969      -1.83656705
N       -1.14944595       0.63269712      -1.02246556
C       -1.11220437      -0.72148860       0.37846691
C        0.21877614      -1.11544800       0.68217609
C        0.99450787      -0.29022128       1.56229746
C        1.75513239       0.52853511       2.00855294
H       -0.09735150       1.67426403      -2.49086198
H       -1.77247796       1.42588037      -0.96322336
H       -1.74097192      -1.49188155      -0.05571998
H       -1.61102406      -0.01629020       1.03485264
H        0.42041932      -2.18055551       0.74224579
H        0.92892392      -0.53713061      -0.71824762
H        2.42239598       1.22956046       2.45216672
14
Frame=9 idx=006951 GeodesicLength=0.7674863710415135 rxn_smarts="[O:1]=[C:2]([N:3]([C:4]([C:5]([C:6]#[C:7][H:14])([H:12])[H:13])([H:10])[H:11])[H:9])[H:8]>>[C:4](=[C:5]([C:6]#[C:7][H:14])[H:12])([H:10])[H:11].[O:1](/[C:2](=[N:3]/[H:9])[H:8])[H:13]"
O        0.89520614       0.07151081      -1.77810936
C       -0.15258206       0.80420696      -1.84312297
N       -1.14096860       0.65070938      -1.01354435
C       -1.11567875      -0.73822102       0.37643085
C        0.21670454      -1.12997533       0.68421671
C        0.98544700      -0.29707257       1.56654804
C        1.75021892       0.52902302       1.99073931
H       -0.09758299       1.68240018      -2.49539228
H       -1.74449670       1.45724806      -0.93703561
H       -1.73531073      -1.50991071      -0.06885078
H       -1.62034333      -0.03560629       1.03080536
H        0.40864361      -2.19507802       0.77520342
H        0.94144580      -0.54073294      -0.70000076
H        2.40929713       1.25149846       2.41211244
14
Frame=10 idx=006951 GeodesicLength=0.852661919128888 rxn_smarts="[O:1]=[C:2]([N:3]([C:4]([C:5]([C:6]#[C:7][H:14])([H:12])[H:13])([H:10])[H:11])[H:9])[H:8]>>[C:4](=[C:5]([C:6]#[C:7][H:14])[H:12])([H:10])[H:11].[O:1](/[C:2](=[N:3]/[H:9])[H:8])[H:13]"
O        0.89456165       0.08007569      -1.78269032
C       -0.15319181       0.81093253      -1.84987697
N       -1.13322026       0.66754635      -1.00578167
C       -1.11925738      -0.75527127       0.37369127
C        0.21472886      -1.14322916       0.68677570
C        0.97487304      -0.30077871       1.57085818
C        1.74234975       0.53284173       1.97400544
H       -0.09882635       1.69129456      -2.49970598
H       -1.71766563       1.48620601      -0.91249060
H       -1.72859469      -1.52928809      -0.08203523
H       -1.63084851      -0.05500837       1.02489822
H        0.39728176      -2.20712969       0.81030879
H        0.95401790      -0.54405678      -0.68131946
H        2.40379166       1.26586521       2.37336261
14
Frame=11 idx=006951 GeodesicLength=0.9378841097339401 rxn_smarts="[O:1]=[C:2]([N:3]([C:4]([C:5]([C:6]#[C:7][H:14])([H:12])[H:13])([H:10])[H:11])[H:9])[H:8]>>[C:4](=[C:5]([C:6]#[C:7][H:14])[H:12])([H:10])[H:11].[O:1](/[C:2](=[N:3]/[H:9])[H:8])[H:13]"
O        0.89355873       0.08866794      -1.78805112
C       -0.15386349       0.81819732      -1.85634821
N       -1.12534580       0.68406041      -0.99806970
C       -1.12265304      -0.77249663       0.37069795
C        0.21292093      -1.15650365       0.68937985
C        0.96424573      -0.30368138       1.57449228
C        1.73414200       0.53686125       1.95721314
H       -0.10002803       1.70122775      -2.50301442
H       -1.69019912       1.51418662      -0.88772535
H       -1.72155066      -1.54907461      -0.09480336
H       -1.64117852      -0.07417350       1.01819505
H        0.38540322      -2.21811488       0.84650761
H        0.96644900      -0.54866949      -0.66295061
H        2.39809907       1.27951284       2.33447690
14
Frame=12 idx=006951 GeodesicLength=1.0230972410420989 rxn_smarts="[O:1]=[C:2]([N:3]([C:4]([C:5]([C:6]#[C:7][H:14])([H:12])[H:13])([H:10])[H:11])[H:9])[H:8]>>[C:4](=[C:5]([C:6]#[C:7][H:14])[H:12])([H:10])[H:11].[O:1](/[C:2](=[N:3]/[H:9])[H:8])[H:13]"
O        0.89225189       0.09779923      -1.79397467
C       -0.15486606       0.82600688      -1.86278926
N       -1.11793126       0.69978232      -0.99105112
C       -1.12604717      -0.79010010       0.36712918
C        0.21120286      -1.16897169       0.69244678
C        0.95248414      -0.30414536       1.57787916
C        1.72380634       0.54340610       1.94079129
H       -0.10165467       1.71216615      -2.50563210
H       -1.66346919       1.54032212      -0.86394202
H       -1.71358622      -1.57003092      -0.10754961
H       -1.65231750      -0.09354561       1.00997196
H        0.37361798      -2.22690284       0.88445941
H        0.97887743      -0.55363844      -0.64434964
H        2.39763143       1.28785215       2.29661065
14
Frame=13 idx=006951 GeodesicLength=1.1084563182447082 rxn_smarts="[O:1]=[C:2]([N:3]([C:4]([C:5]([C:6]#[C:7][H:14])([H:12])[H:13])([H:10])[H:11])[H:9])[H:8]>>[C:4](=[C:5]([C:6]#[C:7][H:14])[H:12])([H:10])[H:11].[O:1](/[C:2](=[N:3]/[H:9])[H:8])[H:13]"
O        0.89024067       0.10591139      -1.80121669
C       -0.15550377       0.83446818      -1.86853169
N       -1.10963675       0.71583684      -0.98315739
C       -1.12911042      -0.80780079       0.36363521
C        0.20962711      -1.18243241       0.69531139
C        0.94164648      -0.30548521       1.58010150
C        1.71502908       0.54790704       1.92342529
H       -0.10223628       1.72442736      -2.50647300
H       -1.63469673       1.56646867      -0.83854027
H       -1.70586836      -1.59077232      -0.11958404
H       -1.66240954      -0.11249544       1.00172539
H        0.36064510      -2.23552973       0.92265782
H        0.99110712      -0.56118375      -0.62655202
H        2.39116629       1.30068018       2.25719849
14
Frame=14 idx=006951 GeodesicLength=1.193863017772013 rxn_smarts="[O:1]=[C:2]([N:3]([C:4]([C:5]([C:6]#[C:7][H:14])([H:12])[H:13])([H:10])[H:11])[H:9])[H:8]>>[C:4](=[C:5]([C:6]#[C:7][H:14])[H:12])([H:10])[H:11].[O:1](/[C:2](=[N:3]/[H:9])[H:8])[H:13]"
O        0.88764833       0.11409547      -1.80932661
C       -0.15642073       0.84349358      -1.87416085
N       -1.10157923       0.73134729      -0.97558831
C       -1.13215746      -0.82596764       0.35959167
C        0.20808941      -1.19530456       0.69867013
C        0.92976223      -0.30467972       1.58193420
C        1.70443901       0.55464292       1.90601267
H       -0.10292120       1.73775793      -2.50638807
H       -1.60604250       1.59115571      -0.81340602
H       -1.69725153      -1.61267007      -0.13168891
H       -1.67324565      -0.13183141       0.99207883
H        0.34766302      -2.24201280       0.96232195
H        1.00336209      -0.56943401      -0.60856688
H        2.38865422       1.30940731       2.21851620
14
Frame=15 idx=006951 GeodesicLength=1.279389454593585 rxn_smarts="[O:1]=[C:2]([N:3]([C:4]([C:5]([C:6]#[C:7][H:14])([H:12])[H:13])([H:10])[H:11])[H:9])[H:8]>>[C:4](=[C:5]([C:6]#[C:7][H:14])[H:12])([H:10])[H:11].[O:1](/[C:2](=[N:3]/[H:9])[H:8])[H:13]"
O        0.88425009       0.12150744      -1.81870753
C       -0.15724324       0.85316756      -1.87931656
N       -1.09308672       0.74681797      -0.96759121
C       -1.13505083      -0.84446700       0.35531789
C        0.20658441      -1.20843599       0.70226524
C        0.91779292      -0.30326935       1.58294702
C        1.69375191       0.56148788       1.88788149
H       -0.10284835       1.75244824      -2.50467577
H       -1.57633698       1.61514998      -0.78746485
H       -1.68830645      -1.63509754      -0.14348165
H       -1.68396627      -0.15123137       0.98172416
H        0.33406106      -2.24725470       1.00271659
H        1.01558167      -0.57951401      -0.59086565
H        2.38481678       1.31869090       2.17925082
14
Frame=16 idx=006951 GeodesicLength=1.3650632396770062 rxn_smarts="[O:1]=[C:2]([N:3]([C:4]([C:5]([C:6]#[C:7][H:14])([H:12])[H:13])([H:10])[H:11])[H:9])[H:8]>>[C:4](=[C:5]([C:6]#[C:7][H:14])[H:12])([H:10])[H:11].[O:1](/[C:2](=[N:3]/[H:9])[H:8])[H:13]"
O        0.87994574       0.12828639      -1.82936004
C       -0.15816704       0.86347511      -1.88414367
N       -1.08442811       0.76205245      -0.95939990
C       -1.13787775      -0.86347647       0.35060496
C        0.20506030      -1.22140198       0.70631996
C        0.90513501      -0.30040900       1.58329450
C        1.68198286       0.56968336       1.86913530
H       -0.10220179       1.76849170      -2.50142061
H       -1.54587994       1.63816527      -0.76088880
H       -1.67863819      -1.65850866      -0.15526406
H       -1.69511292      -0.17104730       0.97022799
H        0.32012545      -2.25070353       1.04420471
H        1.02784274      -0.59096812      -0.57315353
H        2.38221364       1.32636076       2.13984319
