12
Frame=0 idx=008190 GeodesicLength=0.0 rxn_smarts="[O:1]([C:2]([C@@:3]([C:4]#[C:5][H:12])([C:6]#[N:7])[H:11])([H:9])[H:10])[H:8]>>[O:1]([C:2]([C:3]([C:4]#[C:5][H:12])=[C:6]=[N:7][H:11])([H:9])[H:10])[H:8]"
O       -1.89952243      -0.37067022      -0.69333592
C       -1.11100841      -0.56950523       0.46435719
C        0.34045324      -0.21171594       0.27795014
C        0.74603223       1.13921567       0.18394306
C        1.04471884       2.30197555       0.11635647
C        1.25042213      -1.21946232      -0.02750210
N        1.99225617      -2.10045465      -0.35597385
H       -1.88376265       0.56385378      -0.91436485
H       -1.49922591       0.01461469       1.30613841
H       -1.20673612      -1.62587358       0.71488281
H        0.90213043      -1.24973058      -1.14111132
H        1.32424243       3.32775282       0.06866000
12
Frame=1 idx=008190 GeodesicLength=0.08553955982996 rxn_smarts="[O:1]([C:2]([C@@:3]([C:4]#[C:5][H:12])([C:6]#[N:7])[H:11])([H:9])[H:10])[H:8]>>[O:1]([C:2]([C:3]([C:4]#[C:5][H:12])=[C:6]=[N:7][H:11])([H:9])[H:10])[H:8]"
O       -1.90837475      -0.35534781      -0.68929481
C       -1.11017946      -0.57067338       0.45782370
C        0.33985829      -0.21405580       0.25357219
C        0.74420014       1.13840345       0.16016209
C        1.04698840       2.30094767       0.11717407
C        1.25998573      -1.22527091       0.00032609
N        1.99294246      -2.10652886      -0.34291077
H       -1.89449248       0.58219138      -0.89753901
H       -1.48475829       0.00618108       1.31073180
H       -1.20826798      -1.62898112       0.69882633
H        0.91220436      -1.25814639      -1.14148375
H        1.30989358       3.33128069       0.07261208
12
Frame=2 idx=008190 GeodesicLength=0.17105552088189574 rxn_smarts="[O:1]([C:2]([C@@:3]([C:4]#[C:5][H:12])([C:6]#[N:7])[H:11])([H:9])[H:10])[H:8]>>[O:1]([C:2]([C:3]([C:4]#[C:5][H:12])=[C:6]=[N:7][H:11])([H:9])[H:10])[H:8]"
O       -1.91753699      -0.33949518      -0.68487406
C       -1.10938232      -0.57219205       0.45088360
C        0.33911728      -0.21689544       0.22850346
C        0.74174537       1.13745044       0.13714588
C        1.04785162       2.29958879       0.12112420
C        1.26908390      -1.22966771       0.02880964
N        1.99369543      -2.11068809      -0.32878532
H       -1.90518267       0.60100682      -0.87962948
H       -1.46986639      -0.00346155       1.31523208
H       -1.20990620      -1.63251956       0.68151540
H        0.92261136      -1.26624192      -1.14257637
H        1.29776962       3.33311547       0.07265098
12
Frame=3 idx=008190 GeodesicLength=0.2565949193105481 rxn_smarts="[O:1]([C:2]([C@@:3]([C:4]#[C:5][H:12])([C:6]#[N:7])[H:11])([H:9])[H:10])[H:8]>>[O:1]([C:2]([C:3]([C:4]#[C:5][H:12])=[C:6]=[N:7][H:11])([H:9])[H:10])[H:8]"
O       -1.92688598      -0.32353530      -0.67968694
C       -1.10809983      -0.57319888       0.44383684
C        0.33878789      -0.22026975       0.20191382
C        0.73967787       1.13606506       0.11217516
C        1.04797795       2.29749045       0.12079735
C        1.27762742      -1.23323176       0.05777385
N        1.99399125      -2.11415974      -0.31319302
H       -1.91527099       0.61956567      -0.86166191
H       -1.45344235      -0.01210418       1.31928343
H       -1.21146350      -1.63525111       0.66477781
H        0.93272682      -1.27592644      -1.14443759
H        1.28437344       3.33455598       0.07842121
12
Frame=4 idx=008190 GeodesicLength=0.3422095338423796 rxn_smarts="[O:1]([C:2]([C@@:3]([C:4]#[C:5][H:12])([C:6]#[N:7])[H:11])([H:9])[H:10])[H:8]>>[O:1]([C:2]([C:3]([C:4]#[C:5][H:12])=[C:6]=[N:7][H:11])([H:9])[H:10])[H:8]"
O       -1.93636239      -0.30726454      -0.67386434
C       -1.10655755      -0.57412348       0.43661553
C        0.33868975      -0.22426765       0.17439110
C        0.73756078       1.13433134       0.08667214
C        1.04627572       2.29503461       0.11708485
C        1.28563546      -1.23554555       0.08740171
N        1.99403107      -2.11629910      -0.29629822
H       -1.92482192       0.63824561      -0.84312750
H       -1.43605544      -0.02081758       1.32307055
H       -1.21307117      -1.63779748       0.64783090
H        0.94280564      -1.28635886      -1.14702572
H        1.27187005       3.33486267       0.08724899
12
Frame=5 idx=008190 GeodesicLength=0.42774951077727075 rxn_smarts="[O:1]([C:2]([C@@:3]([C:4]#[C:5][H:12])([C:6]#[N:7])[H:11])([H:9])[H:10])[H:8]>>[O:1]([C:2]([C:3]([C:4]#[C:5][H:12])=[C:6]=[N:7][H:11])([H:9])[H:10])[H:8]"
O       -1.94561572      -0.29017314      -0.66762028
C       -1.10495586      -0.57535292       0.42908925
C        0.33867552      -0.22911825       0.14681386
C        0.73519282       1.13209742       0.06268900
C        1.04324548       2.29207753       0.11454267
C        1.29293620      -1.23661821       0.11777316
N        1.99376361      -2.11671227      -0.27871540
H       -1.93346978       0.65767970      -0.82342911
H       -1.41832813      -0.03075886       1.32671359
H       -1.21501292      -1.64069762       0.62961025
H        0.95318423      -1.29639751      -1.15043513
H        1.26038455       3.33397412       0.09296813
12
Frame=6 idx=008190 GeodesicLength=0.5133906472686179 rxn_smarts="[O:1]([C:2]([C@@:3]([C:4]#[C:5][H:12])([C:6]#[N:7])[H:11])([H:9])[H:10])[H:8]>>[O:1]([C:2]([C:3]([C:4]#[C:5][H:12])=[C:6]=[N:7][H:11])([H:9])[H:10])[H:8]"
O       -1.95457961      -0.27275866      -0.66079009
C       -1.10305679      -0.57648116       0.42150396
C        0.33904363      -0.23479380       0.11892847
C        0.73294604       1.12929098       0.03869446
C        1.03867555       2.28867204       0.10794736
C        1.29953871      -1.23651127       0.14883724
N        1.99290495      -2.11581337      -0.26029693
H       -1.94096449       0.67719380      -0.80332196
H       -1.39986657      -0.04074664       1.33003021
H       -1.21710360      -1.64333386       0.61131417
H        0.96337246      -1.30690207      -1.15465914
H        1.24908972       3.33218401       0.10181225
12
Frame=7 idx=008190 GeodesicLength=0.5990948363958714 rxn_smarts="[O:1]([C:2]([C@@:3]([C:4]#[C:5][H:12])([C:6]#[N:7])[H:11])([H:9])[H:10])[H:8]>>[O:1]([C:2]([C:3]([C:4]#[C:5][H:12])=[C:6]=[N:7][H:11])([H:9])[H:10])[H:8]"
O       -1.96295315      -0.25498696      -0.65351455
C       -1.10087601      -0.57751784       0.41388802
C        0.33985093      -0.24135034       0.09119471
C        0.73091793       1.12583969       0.01506432
C        1.03369486       2.28470363       0.10066766
C        1.30533168      -1.23541318       0.18048707
N        1.99117892      -2.11374962      -0.24157761
H       -1.94698260       0.69685086      -0.78291166
H       -1.38090297      -0.05081708       1.33298611
H       -1.21944805      -1.64573379       0.59291016
H        0.97338930      -1.31750938      -1.15994020
H        1.23679915       3.32968402       0.11074598
12
Frame=8 idx=008190 GeodesicLength=0.6847778038539194 rxn_smarts="[O:1]([C:2]([C@@:3]([C:4]#[C:5][H:12])([C:6]#[N:7])[H:11])([H:9])[H:10])[H:8]>>[O:1]([C:2]([C:3]([C:4]#[C:5][H:12])=[C:6]=[N:7][H:11])([H:9])[H:10])[H:8]"
O       -1.97059729      -0.23674153      -0.64601829
C       -1.09872748      -0.57903074       0.40619941
C        0.34091754      -0.24883775       0.06464484
C        0.72859720       1.12185501      -0.00604047
C        1.02695946       2.28045957       0.09349348
C        1.31028159      -1.23308386       0.21294447
N        1.98881356      -2.10961212      -0.22307893
H       -1.95154254       0.71682660      -0.76169877
H       -1.36242086      -0.06238950       1.33578309
H       -1.22213767      -1.64859204       0.57346961
H        0.98335940      -1.32684840      -1.16614282
H        1.22649707       3.32599477       0.11644439
12
Frame=9 idx=008190 GeodesicLength=0.7705855945527292 rxn_smarts="[O:1]([C:2]([C@@:3]([C:4]#[C:5][H:12])([C:6]#[N:7])[H:11])([H:9])[H:10])[H:8]>>[O:1]([C:2]([C:3]([C:4]#[C:5][H:12])=[C:6]=[N:7][H:11])([H:9])[H:10])[H:8]"
O       -1.97735265      -0.21878212      -0.63820883
C       -1.09626400      -0.58035200       0.39873565
C        0.34253822      -0.25708564       0.03882433
C        0.72650211       1.11726282      -0.02712394
C        1.01985683       2.27583345       0.08476711
C        1.31439335      -1.22980524       0.24590729
N        1.98523136      -2.10429980      -0.20486332
H       -1.95438589       0.73620873      -0.74090012
H       -1.34376819      -0.07348839       1.33811541
H       -1.22491960      -1.65099333       0.55471868
H        0.99275535      -1.33610964      -1.17360552
H        1.21541310       3.32161116       0.12363326
12
Frame=10 idx=008190 GeodesicLength=0.8564990928909105 rxn_smarts="[O:1]([C:2]([C@@:3]([C:4]#[C:5][H:12])([C:6]#[N:7])[H:11])([H:9])[H:10])[H:8]>>[O:1]([C:2]([C:3]([C:4]#[C:5][H:12])=[C:6]=[N:7][H:11])([H:9])[H:10])[H:8]"
O       -1.98310018      -0.20107539      -0.63027654
C       -1.09364918      -0.58173232       0.39153616
C        0.34466187      -0.26611280       0.01435413
C        0.72447078       1.11214669      -0.04713012
C        1.01208861       2.27090486       0.07489938
C        1.31773445      -1.22557765       0.27946324
N        1.98055037      -2.09748184      -0.18732975
H       -1.95550471       0.75508138      -0.72044299
H       -1.32553947      -0.08469493       1.34012083
H       -1.22783227      -1.65327483       0.53636900
H        1.00152169      -1.34465198      -1.18232723
H        1.20459805       3.31646881       0.13076389
12
Frame=11 idx=008190 GeodesicLength=0.9424843884552986 rxn_smarts="[O:1]([C:2]([C@@:3]([C:4]#[C:5][H:12])([C:6]#[N:7])[H:11])([H:9])[H:10])[H:8]>>[O:1]([C:2]([C:3]([C:4]#[C:5][H:12])=[C:6]=[N:7][H:11])([H:9])[H:10])[H:8]"
O       -1.98781198      -0.18397750      -0.62236800
C       -1.09093926      -0.58322025       0.38470287
C        0.34726613      -0.27582052      -0.00849188
C        0.72237609       1.10659928      -0.06595434
C        1.00363348       2.26576870       0.06441244
C        1.32032784      -1.22040893       0.31356404
N        1.97471961      -2.08896745      -0.17079557
H       -1.95500262       0.77308440      -0.70067807
H       -1.30802590      -0.09590459       1.34182525
H       -1.23077143      -1.65547762       0.51869601
H        1.00950411      -1.35221609      -1.19243018
H        1.19472392       3.31054057       0.13751743
12
Frame=12 idx=008190 GeodesicLength=1.0284757030233431 rxn_smarts="[O:1]([C:2]([C@@:3]([C:4]#[C:5][H:12])([C:6]#[N:7])[H:11])([H:9])[H:10])[H:8]>>[O:1]([C:2]([C:3]([C:4]#[C:5][H:12])=[C:6]=[N:7][H:11])([H:9])[H:10])[H:8]"
O       -1.99146265      -0.16764406      -0.61463898
C       -1.08824207      -0.58497117       0.37825730
C        0.35030392      -0.28611977      -0.02935813
C        0.72009529       1.10071102      -0.08299045
C        0.99445835       2.26051201       0.05448755
C        1.32217424      -1.21439549       0.34822149
N        1.96774053      -2.07856879      -0.15557626
H       -1.95300569       0.79007575      -0.68164607
H       -1.29160863      -0.10739978       1.34330223
H       -1.23370969      -1.65778454       0.50156794
H        1.01668824      -1.35840038      -1.20400912
H        1.18656817       3.30398519       0.14238249
12
Frame=13 idx=008190 GeodesicLength=1.1146027127359128 rxn_smarts="[O:1]([C:2]([C@@:3]([C:4]#[C:5][H:12])([C:6]#[N:7])[H:11])([H:9])[H:10])[H:8]>>[O:1]([C:2]([C:3]([C:4]#[C:5][H:12])=[C:6]=[N:7][H:11])([H:9])[H:10])[H:8]"
O       -1.99408429      -0.15234918      -0.60705487
C       -1.08532713      -0.58654908       0.37237028
C        0.35391226      -0.29695109      -0.04874296
C        0.71793460       1.09443730      -0.09993769
C        0.98517982       2.25503920       0.04275086
C        1.32348063      -1.20750752       0.38328793
N        1.95949536      -2.06664925      -0.14139106
H       -1.94955867       0.80576820      -0.66406025
H       -1.27575718      -0.11793694       1.34445399
H       -1.23645061      -1.65968125       0.48604644
H        1.02267531      -1.36415073      -1.21716150
H        1.17849990       3.29653035       0.14943884
12
Frame=14 idx=008190 GeodesicLength=1.2007914112652571 rxn_smarts="[O:1]([C:2]([C@@:3]([C:4]#[C:5][H:12])([C:6]#[N:7])[H:11])([H:9])[H:10])[H:8]>>[O:1]([C:2]([C:3]([C:4]#[C:5][H:12])=[C:6]=[N:7][H:11])([H:9])[H:10])[H:8]"
O       -1.99569065      -0.13807905      -0.59980020
C       -1.08240303      -0.58833132       0.36695924
C        0.35794885      -0.30822462      -0.06615606
C        0.71561142       1.08792619      -0.11536653
C        0.97542999       2.24945627       0.03157374
C        1.32416362      -1.19988939       0.41882869
N        1.95008541      -2.05284620      -0.12855199
H       -1.94486471       0.82024061      -0.64757941
H       -1.26104649      -0.12841307       1.34544734
H       -1.23903051      -1.66165256       0.47143180
H        1.02767150      -1.36864493      -1.23196109
H        1.17212461       3.28845806       0.15517449
12
Frame=15 idx=008190 GeodesicLength=1.2870647693342587 rxn_smarts="[O:1]([C:2]([C@@:3]([C:4]#[C:5][H:12])([C:6]#[N:7])[H:11])([H:9])[H:10])[H:8]>>[O:1]([C:2]([C:3]([C:4]#[C:5][H:12])=[C:6]=[N:7][H:11])([H:9])[H:10])[H:8]"
O       -1.99630613      -0.12482192      -0.59292342
C       -1.07942691      -0.59022991       0.36205642
C        0.36246788      -0.31991093      -0.08168508
C        0.71329597       1.08115880      -0.12940872
C        0.96566041       2.24367567       0.02104105
C        1.32429800      -1.19173363       0.45475447
N        1.93947582      -2.03733950      -0.11704150
H       -1.93896712       0.83351723      -0.63236927
H       -1.24739165      -0.13861290       1.34632690
H       -1.24141828      -1.66360983       0.45788942
H        1.03159300      -1.37203560      -1.24846417
H        1.16671901       3.27994251       0.15982390
12
Frame=16 idx=008190 GeodesicLength=1.3734250554847607 rxn_smarts="[O:1]([C:2]([C@@:3]([C:4]#[C:5][H:12])([C:6]#[N:7])[H:11])([H:9])[H:10])[H:8]>>[O:1]([C:2]([C:3]([C:4]#[C:5][H:12])=[C:6]=[N:7][H:11])([H:9])[H:10])[H:8]"
O       -1.99600459      -0.11255840      -0.58643428
C       -1.07638264      -0.59221623       0.35764352
C        0.36744830      -0.33195320      -0.09546729
C        0.71100608       1.07416289      -0.14226150
C        0.95594123       2.23770219       0.01098185
C        1.32392080      -1.18308986       0.49096605
N        1.92774065      -2.02016561      -0.10667973
H       -1.93202654       0.84564548      -0.61840145
H       -1.23470498      -0.14846898       1.34712090
H       -1.24357343      -1.66554187       0.44541781
H        1.03444802      -1.37451606      -1.26663033
H        1.16218710       3.27099963       0.16374447
