14
Frame=0 idx=005961 GeodesicLength=0.0 rxn_smarts="[O:1]([C:2]([C:3]([O:4][H:11])([C:5]([O:6][H:14])([H:12])[H:13])[H:10])([H:8])[H:9])[H:7]>>[C:2]1([H:8])([H:9])[C@@:3]([O:4][H:11])([H:10])[C@@:5]1([O:6][H:14])[H:12].[O:1]([H:7])[H:13]"
O        1.89396978      -0.39981520      -1.01419546
C        0.86799045       0.51193254       0.46896359
C       -0.55641456       0.55535242       0.04900753
O       -1.44273619       0.90717176       1.12605925
C       -0.67900197      -0.83231146      -0.42009066
O       -0.79522141      -1.78090230       0.60404835
H        1.98518701       0.15961052      -1.79681137
H        1.11377185      -0.23813283       1.20845455
H        1.54368887       1.35565081       0.39204798
H       -0.69208185       1.24027410      -0.79493601
H       -1.39932633       1.85216040       1.28895694
H       -1.33273176      -1.01043741      -1.27578959
H        0.95711512      -0.84733654      -1.05945960
H       -1.46420900      -1.47321684       1.22374449
14
Frame=1 idx=005961 GeodesicLength=0.16769865503064735 rxn_smarts="[O:1]([C:2]([C:3]([O:4][H:11])([C:5]([O:6][H:14])([H:12])[H:13])[H:10])([H:8])[H:9])[H:7]>>[C:2]1([H:8])([H:9])[C@@:3]([O:4][H:11])([H:10])[C@@:5]1([O:6][H:14])[H:12].[O:1]([H:7])[H:13]"
O        1.92645482      -0.47592512      -0.94672095
C        0.84847809       0.56272563       0.40380461
C       -0.59028269       0.57656648       0.04774627
O       -1.45341042       0.87090772       1.15716594
C       -0.68652989      -0.80408056      -0.44486252
O       -0.79360369      -1.77957898       0.55398087
H        2.10431787       0.04230202      -1.74215139
H        1.13268468      -0.10051033       1.20928686
H        1.50930077       1.41171613       0.26931423
H       -0.78258924       1.27833524      -0.77088226
H       -1.34106620       1.78428729       1.43074827
H       -1.34479279      -0.97476803      -1.29906078
H        0.94543219      -0.88876289      -1.04352276
H       -1.47439349      -1.50321460       1.17515361
14
Frame=2 idx=005961 GeodesicLength=0.3332330302623846 rxn_smarts="[O:1]([C:2]([C:3]([O:4][H:11])([C:5]([O:6][H:14])([H:12])[H:13])[H:10])([H:8])[H:9])[H:7]>>[C:2]1([H:8])([H:9])[C@@:3]([O:4][H:11])([H:10])[C@@:5]1([O:6][H:14])[H:12].[O:1]([H:7])[H:13]"
O        1.95408074      -0.54719345      -0.86429478
C        0.82700831       0.61420118       0.33297200
C       -0.62488033       0.59735814       0.04914255
O       -1.45659697       0.83385460       1.19266713
C       -0.69406191      -0.77419367      -0.47093940
O       -0.79648432      -1.77735759       0.49999466
H        2.22067054      -0.08005327      -1.66591543
H        1.15377460       0.05397232       1.19831690
H        1.46990911       1.46287456       0.12533398
H       -0.87735259       1.31442880      -0.73926091
H       -1.26705287       1.69622801       1.57013181
H       -1.35466296      -0.93498131      -1.32568165
H        0.93424037      -0.92740507      -1.02350625
H       -1.48859173      -1.53173324       1.12103939
14
Frame=3 idx=005961 GeodesicLength=0.49533624053970726 rxn_smarts="[O:1]([C:2]([C:3]([O:4][H:11])([C:5]([O:6][H:14])([H:12])[H:13])[H:10])([H:8])[H:9])[H:7]>>[C:2]1([H:8])([H:9])[C@@:3]([O:4][H:11])([H:10])[C@@:5]1([O:6][H:14])[H:12].[O:1]([H:7])[H:13]"
O        1.97481562      -0.61172797      -0.76942440
C        0.80544225       0.66301529       0.25777704
C       -0.65686701       0.61646689       0.05405965
O       -1.44590831       0.79344572       1.23443919
C       -0.70139428      -0.74367735      -0.49764975
O       -0.80482066      -1.77529718       0.44253216
H        2.33095218      -0.19843492      -1.56528082
H        1.17982632       0.22253130       1.17183041
H        1.42621947       1.50352358      -0.03527692
H       -0.97143676       1.34763135      -0.69817287
H       -1.18747674       1.59489845       1.69623275
H       -1.36567946      -0.88999219      -1.35260916
H        0.92283630      -0.96379192      -1.00145657
H       -1.50650891      -1.55859105       1.06299929
14
Frame=4 idx=005961 GeodesicLength=0.6558086018889865 rxn_smarts="[O:1]([C:2]([C:3]([O:4][H:11])([C:5]([O:6][H:14])([H:12])[H:13])[H:10])([H:8])[H:9])[H:7]>>[C:2]1([H:8])([H:9])[C@@:3]([O:4][H:11])([H:10])[C@@:5]1([O:6][H:14])[H:12].[O:1]([H:7])[H:13]"
O        1.98870127      -0.66390486      -0.65829547
C        0.78171084       0.71111873       0.17941164
C       -0.68725226       0.63307976       0.06332579
O       -1.42304866       0.74936334       1.28171130
C       -0.70822608      -0.71263474      -0.52519261
O       -0.82019564      -1.77395737       0.37999401
H        2.43002822      -0.31278811      -1.44056654
H        1.20853748       0.40860793       1.12619949
H        1.37561509       1.52965957      -0.21550774
H       -1.06547311       1.37645014      -0.64630874
H       -1.08857050       1.47780539       1.81127504
H       -1.37330068      -0.83980673      -1.38307327
H        0.91320064      -0.99885219      -0.97045564
H       -1.53172660      -1.58414087       0.99748275
14
Frame=5 idx=005961 GeodesicLength=0.8124068900087709 rxn_smarts="[O:1]([C:2]([C:3]([O:4][H:11])([C:5]([O:6][H:14])([H:12])[H:13])[H:10])([H:8])[H:9])[H:7]>>[C:2]1([H:8])([H:9])[C@@:3]([O:4][H:11])([H:10])[C@@:5]1([O:6][H:14])[H:12].[O:1]([H:7])[H:13]"
O        1.99321953      -0.70342191      -0.53555881
C        0.75759214       0.75420765       0.09978508
C       -0.71267541       0.64625958       0.07581163
O       -1.38389367       0.69995239       1.33155537
C       -0.71519671      -0.68232340      -0.55333590
O       -0.84197760      -1.77391393       0.31292732
H        2.51634247      -0.41022632      -1.29003227
H        1.23736041       0.60403420       1.05773654
H        1.31999252       1.53512195      -0.40357352
H       -1.15283999       1.40051503      -0.58465817
H       -0.97891129       1.35357532       1.90779699
H       -1.38277658      -0.78487157      -1.41303953
H        0.90282192      -1.03228661      -0.93525805
H       -1.55905774      -1.60662238       0.92984333
14
Frame=6 idx=005961 GeodesicLength=0.9675307770359984 rxn_smarts="[O:1]([C:2]([C:3]([O:4][H:11])([C:5]([O:6][H:14])([H:12])[H:13])[H:10])([H:8])[H:9])[H:7]>>[C:2]1([H:8])([H:9])[C@@:3]([O:4][H:11])([H:10])[C@@:5]1([O:6][H:14])[H:12].[O:1]([H:7])[H:13]"
O        1.98819778      -0.72493913      -0.39895764
C        0.73143424       0.79484509       0.01983754
C       -0.73417498       0.65653247       0.09064489
O       -1.33103379       0.64723955       1.38113981
C       -0.72228859      -0.65244120      -0.58226194
O       -0.86983558      -1.77393144       0.24149507
H        2.58679337      -0.49099601      -1.11640149
H        1.26111580       0.80504403       0.96327347
H        1.25986800       1.51731581      -0.59555540
H       -1.23320097       1.41989710      -0.51475539
H       -0.84793404       1.21565812       1.98702258
H       -1.39181911      -0.72599606      -1.44390154
H        0.89234538      -1.06334473      -0.89121891
H       -1.58946751      -1.62488361       0.85963892
14
Frame=7 idx=005961 GeodesicLength=1.122331972569902 rxn_smarts="[O:1]([C:2]([C:3]([O:4][H:11])([C:5]([O:6][H:14])([H:12])[H:13])[H:10])([H:8])[H:9])[H:7]>>[C:2]1([H:8])([H:9])[C@@:3]([O:4][H:11])([H:10])[C@@:5]1([O:6][H:14])[H:12].[O:1]([H:7])[H:13]"
O        1.97288632      -0.72879865      -0.25545978
C        0.70506609       0.82992347      -0.05827028
C       -0.75016441       0.66403884       0.10610408
O       -1.26470798       0.59276846       1.42652011
C       -0.72997397      -0.62382063      -0.61166404
O       -0.90140388      -1.77311521       0.16812885
H        2.64016178      -0.54627940      -0.92508052
H        1.27500101       0.99719857       0.84629813
H        1.19992224       1.47709819      -0.77709166
H       -1.30182386       1.43522616      -0.43996391
H       -0.70238436       1.07033159       2.04298518
H       -1.40427021      -0.66489484      -1.47226255
H        0.87996053      -1.09207183      -0.84235239
H       -1.61826932      -1.63760474       0.79210879
14
Frame=8 idx=005961 GeodesicLength=1.2802051149599876 rxn_smarts="[O:1]([C:2]([C:3]([O:4][H:11])([C:5]([O:6][H:14])([H:12])[H:13])[H:10])([H:8])[H:9])[H:7]>>[C:2]1([H:8])([H:9])[C@@:3]([O:4][H:11])([H:10])[C@@:5]1([O:6][H:14])[H:12].[O:1]([H:7])[H:13]"
O        1.94816165      -0.71337334      -0.11173710
C        0.67832134       0.86012427      -0.13132290
C       -0.76185563       0.67064246       0.12029356
O       -1.19225650       0.54333577       1.46331496
C       -0.73797516      -0.59617630      -0.63985675
O       -0.93219696      -1.76935673       0.09803188
H        2.67471509      -0.57756838      -0.72765507
H        1.27711796       1.16601439       0.71661733
H        1.14492601       1.41932042      -0.93755714
H       -1.35694189       1.44820781      -0.36668853
H       -0.54566972       0.91390015       2.07122180
H       -1.41931225      -0.60472726      -1.49624370
H        0.86459555      -1.11643826      -0.79046980
H       -1.64162949      -1.64390499       0.73205148
14
Frame=9 idx=005961 GeodesicLength=1.442094915722991 rxn_smarts="[O:1]([C:2]([C:3]([O:4][H:11])([C:5]([O:6][H:14])([H:12])[H:13])[H:10])([H:8])[H:9])[H:7]>>[C:2]1([H:8])([H:9])[C@@:3]([O:4][H:11])([H:10])[C@@:5]1([O:6][H:14])[H:12].[O:1]([H:7])[H:13]"
O        1.91830123      -0.68547608       0.02063402
C        0.65413032       0.88261723      -0.19596971
C       -0.76907229       0.67679989       0.13289058
O       -1.11927073       0.50146260       1.49095722
C       -0.74615959      -0.57054347      -0.66553442
O       -0.95893981      -1.76327072       0.03521056
H        2.69449995      -0.58497877      -0.53790245
H        1.27078248       1.30163677       0.58850729
H        1.09945872       1.35308889      -1.06824843
H       -1.39695037       1.46032658      -0.29857191
H       -0.39690922       0.76081581       2.07142046
H       -1.43888224      -0.54858794      -1.51292476
H        0.84564868      -1.13800015      -0.74377324
H       -1.65663712      -1.64589063       0.68330480
14
Frame=10 idx=005961 GeodesicLength=1.6073021722191088 rxn_smarts="[O:1]([C:2]([C:3]([O:4][H:11])([C:5]([O:6][H:14])([H:12])[H:13])[H:10])([H:8])[H:9])[H:7]>>[C:2]1([H:8])([H:9])[C@@:3]([O:4][H:11])([H:10])[C@@:5]1([O:6][H:14])[H:12].[O:1]([H:7])[H:13]"
O        1.88658593      -0.65180423       0.13739856
C        0.63341790       0.89705147      -0.25159866
C       -0.77230972       0.68198915       0.14487453
O       -1.04858281       0.46508855       1.51138155
C       -0.75424409      -0.54697748      -0.68844023
O       -0.98060766      -1.75616267      -0.02066736
H        2.70421616      -0.57378956      -0.36122848
H        1.26079764       1.40545065       0.46895514
H        1.06312696       1.28448502      -1.17134032
H       -1.42362528       1.47191653      -0.23515632
H       -0.26693682       0.62424450       2.05076914
H       -1.46223651      -0.49648966      -1.52227995
H        0.82346285      -1.15828837      -0.70715137
H       -1.66306454      -1.64671390       0.64448377
14
Frame=11 idx=005961 GeodesicLength=1.7744657260976473 rxn_smarts="[O:1]([C:2]([C:3]([O:4][H:11])([C:5]([O:6][H:14])([H:12])[H:13])[H:10])([H:8])[H:9])[H:7]>>[C:2]1([H:8])([H:9])[C@@:3]([O:4][H:11])([H:10])[C@@:5]1([O:6][H:14])[H:12].[O:1]([H:7])[H:13]"
O        1.85592724      -0.61606916       0.23879951
C        0.61622175       0.90468899      -0.29894176
C       -0.77234945       0.68625661       0.15675838
O       -0.98290353       0.43300477       1.52623406
C       -0.76205914      -0.52530550      -0.70848336
O       -0.99783029      -1.74874349      -0.07029785
H        2.70758931      -0.54922581      -0.19941377
H        1.25057238       1.48367769       0.35954668
H        1.03378522       1.21660917      -1.25252544
H       -1.43930229       1.48326224      -0.17629962
H       -0.15791101       0.50668785       2.01864820
H       -1.48743664      -0.44828981      -1.52556085
H        0.79878117      -1.17869630      -0.68155615
H       -1.66308471      -1.64785726       0.61309197
14
Frame=12 idx=005961 GeodesicLength=1.9426632472211043 rxn_smarts="[O:1]([C:2]([C:3]([O:4][H:11])([C:5]([O:6][H:14])([H:12])[H:13])[H:10])([H:8])[H:9])[H:7]>>[C:2]1([H:8])([H:9])[C@@:3]([O:4][H:11])([H:10])[C@@:5]1([O:6][H:14])[H:12].[O:1]([H:7])[H:13]"
O        1.82801183      -0.58001649       0.32727712
C        0.60222963       0.90675724      -0.33936714
C       -0.76971724       0.68950663       0.16888355
O       -0.92291321       0.40356480       1.53709713
C       -0.76952787      -0.50530022      -0.72592363
O       -1.01197407      -1.74137211      -0.11489260
H        2.70710205      -0.51438966      -0.05119400
H        1.24148070       1.54281615       0.25889941
H        1.00917086       1.15035017      -1.31738402
H       -1.44607649       1.49436283      -0.12122877
H       -0.06742612       0.40707569       1.98194512
H       -1.51296243      -0.40327987      -1.52416954
H        0.77210138      -1.20027422      -0.66627912
H       -1.65949903      -1.64980095       0.58633649
14
Frame=13 idx=005961 GeodesicLength=2.111870239205077 rxn_smarts="[O:1]([C:2]([C:3]([O:4][H:11])([C:5]([O:6][H:14])([H:12])[H:13])[H:10])([H:8])[H:9])[H:7]>>[C:2]1([H:8])([H:9])[C@@:3]([O:4][H:11])([H:10])[C@@:5]1([O:6][H:14])[H:12].[O:1]([H:7])[H:13]"
O        1.80378580      -0.54332444       0.40536013
C        0.59090510       0.90490103      -0.37437379
C       -0.76492451       0.69239442       0.18106649
O       -0.86908100       0.37750440       1.54501560
C       -0.77667790      -0.48651814      -0.74081393
O       -1.02388256      -1.73371787      -0.15455251
H        2.70458336      -0.47117596       0.08570558
H        1.23389641       1.58793002       0.16506472
H        0.98806348       1.08511012      -1.37031982
H       -1.44569036       1.50568434      -0.07015965
H        0.00734309       0.31740278       1.94389710
H       -1.53809533      -0.36113026      -1.51884800
H        0.74371058      -1.22313205      -0.66038291
H       -1.65393617      -1.65192841       0.56334098
14
Frame=14 idx=005961 GeodesicLength=2.281504119405452 rxn_smarts="[O:1]([C:2]([C:3]([O:4][H:11])([C:5]([O:6][H:14])([H:12])[H:13])[H:10])([H:8])[H:9])[H:7]>>[C:2]1([H:8])([H:9])[C@@:3]([O:4][H:11])([H:10])[C@@:5]1([O:6][H:14])[H:12].[O:1]([H:7])[H:13]"
O        1.78357709      -0.50646896       0.47548887
C        0.58206408       0.89933512      -0.40494807
C       -0.75804822       0.69441670       0.19358524
O       -0.82023541       0.35249653       1.55099965
C       -0.78358169      -0.46891989      -0.75369459
O       -1.03496464      -1.72616131      -0.19090614
H        2.70076233      -0.42010509       0.21361789
H        1.22757341       1.62225252       0.07617344
H        0.96928817       1.02095258      -1.41402250
H       -1.43912754       1.51690371      -0.02170205
H        0.06969965       0.23861360       1.90714128
H       -1.56229412      -0.32086960      -1.51064603
H        0.71346081      -1.24798771      -0.66332303
H       -1.64817390      -1.65445820       0.54223604
14
Frame=15 idx=005961 GeodesicLength=2.451412170764123 rxn_smarts="[O:1]([C:2]([C:3]([O:4][H:11])([C:5]([O:6][H:14])([H:12])[H:13])[H:10])([H:8])[H:9])[H:7]>>[C:2]1([H:8])([H:9])[C@@:3]([O:4][H:11])([H:10])[C@@:5]1([O:6][H:14])[H:12].[O:1]([H:7])[H:13]"
O        1.76756600      -0.46880565       0.53957111
C        0.57545753       0.89061901      -0.43202248
C       -0.74920293       0.69568773       0.20634630
O       -0.77576761       0.32827602       1.55558170
C       -0.79031121      -0.45232494      -0.76478576
O       -1.04595569      -1.71857134      -0.22434208
H        2.69608502      -0.36122169       0.33471696
H        1.22220014       1.64791733      -0.00915250
H        0.95240179       0.95746546      -1.45055568
H       -1.42709635       1.52809717       0.02445852
H        0.12205864       0.16685744       1.87248169
H       -1.58539266      -0.28205971      -1.50002072
H        0.68110122      -1.27494769      -0.67484088
H       -1.64314390      -1.65698915       0.52256382
14
Frame=16 idx=005961 GeodesicLength=2.621468687338981 rxn_smarts="[O:1]([C:2]([C:3]([O:4][H:11])([C:5]([O:6][H:14])([H:12])[H:13])[H:10])([H:8])[H:9])[H:7]>>[C:2]1([H:8])([H:9])[C@@:3]([O:4][H:11])([H:10])[C@@:5]1([O:6][H:14])[H:12].[O:1]([H:7])[H:13]"
O        1.75581208      -0.42959297       0.59934525
C        0.57098793       0.87894042      -0.45628386
C       -0.73835270       0.69613010       0.21934784
O       -0.73482094       0.30424236       1.55917329
C       -0.79691301      -0.43662534      -0.77432424
O       -1.05758364      -1.71087713      -0.25532288
H        2.69052045      -0.29398178       0.45092447
H        1.21741964       1.66631427      -0.09207841
H        0.93712713       0.89422449      -1.48137043
H       -1.40992514       1.53921563       0.06883328
H        0.16650922       0.09959307       1.84008314
H       -1.60726836      -0.24419084      -1.48734308
H        0.64616927      -1.30417657      -0.69487613
H       -1.63968195      -1.65921571       0.50389176
