9
Frame=0 idx=000206 GeodesicLength=0.0 rxn_smarts="[O:1]=[C:2]([C@@:3]1([H:7])[C:4]([H:8])([H:9])[O:5]1)[H:6]>>[O:1]=[C:2]([C@@:3]([C:4][H:9])([O:5][H:8])[H:7])[H:6]"
O        2.27320417       0.45172068       0.38904608
C        1.23168700      -0.13628755       0.33876123
C       -0.08534318       0.53724473       0.10925373
C       -0.91516231      -0.00348838      -0.99096163
O       -1.12687959      -0.23915698       0.72031490
H        1.16308272      -1.24141506       0.41836780
H       -0.10020847       1.59964313       0.33728280
H       -1.91774472       0.00358333       0.00605286
H       -0.52263565      -0.97184388      -1.32811774
9
Frame=1 idx=000206 GeodesicLength=0.0466530681296251 rxn_smarts="[O:1]=[C:2]([C@@:3]1([H:7])[C:4]([H:8])([H:9])[O:5]1)[H:6]>>[O:1]=[C:2]([C@@:3]([C:4][H:9])([O:5][H:8])[H:7])[H:6]"
O        2.27592698       0.45451385       0.38697150
C        1.23541169      -0.13569793       0.33966145
C       -0.08271859       0.53503188       0.11069081
C       -0.91619194      -0.00800371      -0.98505612
O       -1.12658812      -0.24483387       0.71365139
H        1.16967465      -1.24094701       0.42019624
H       -0.10136387       1.59699175       0.34036522
H       -1.92970624       0.01720073       0.00172624
H       -0.52444456      -0.97425569      -1.32820673
9
Frame=2 idx=000206 GeodesicLength=0.09329102995343458 rxn_smarts="[O:1]=[C:2]([C@@:3]1([H:7])[C:4]([H:8])([H:9])[O:5]1)[H:6]>>[O:1]=[C:2]([C@@:3]([C:4][H:9])([O:5][H:8])[H:7])[H:6]"
O        2.27862248       0.45724806       0.38482081
C        1.23909208      -0.13511640       0.34057495
C       -0.08012136       0.53283596       0.11215539
C       -0.91726043      -0.01244495      -0.97912149
O       -1.12629589      -0.25032733       0.70717119
H        1.17615461      -1.24047109       0.42208111
H       -0.10247960       1.59435489       0.34342440
H       -1.94141825       0.03045046      -0.00277409
H       -0.52629364      -0.97652960      -1.32833227
9
Frame=3 idx=000206 GeodesicLength=0.1399251153600014 rxn_smarts="[O:1]=[C:2]([C@@:3]1([H:7])[C:4]([H:8])([H:9])[O:5]1)[H:6]>>[O:1]=[C:2]([C@@:3]([C:4][H:9])([O:5][H:8])[H:7])[H:6]"
O        2.28129692       0.45993221       0.38259902
C        1.24274042      -0.13454237       0.34149246
C       -0.07755071       0.53064904       0.11364842
C       -0.91836505      -0.01681949      -0.97315763
O       -1.12599717      -0.25565828       0.70086956
H        1.18254901      -1.23998714       0.42401862
H       -0.10356728       1.59172276       0.34647539
H       -1.95291326       0.04338689      -0.00746493
H       -0.52819289      -0.97868362      -1.32848091
9
Frame=4 idx=000206 GeodesicLength=0.18655568955197008 rxn_smarts="[O:1]=[C:2]([C@@:3]1([H:7])[C:4]([H:8])([H:9])[O:5]1)[H:6]>>[O:1]=[C:2]([C@@:3]([C:4][H:9])([O:5][H:8])[H:7])[H:6]"
O        2.28395219       0.46257686       0.38027807
C        1.24635943      -0.13397320       0.34242386
C       -0.07500525       0.52846481       0.11517916
C       -0.91949710      -0.02113232      -0.96716713
O       -1.12568965      -0.26085175       0.69474618
H        1.18886774      -1.23949613       0.42601666
H       -0.10462851       1.58908965       0.34953889
H       -1.96421440       0.05605061      -0.01236834
H       -0.53014446      -0.98072854      -1.32864735
9
Frame=5 idx=000206 GeodesicLength=0.23318354113341952 rxn_smarts="[O:1]=[C:2]([C@@:3]1([H:7])[C:4]([H:8])([H:9])[O:5]1)[H:6]>>[O:1]=[C:2]([C@@:3]([C:4][H:9])([O:5][H:8])[H:7])[H:6]"
O        2.28659015       0.46518350       0.37786656
C        1.24995400      -0.13340747       0.34336295
C       -0.07248403       0.52628057       0.11674939
C       -0.92065131      -0.02538792      -0.96114332
O       -1.12536792      -0.26591798       0.68880325
H        1.19512215      -1.23899416       0.42805760
H       -0.10566715       1.58644900       0.35261810
H       -1.97534462       0.06846742      -0.01750088
H       -0.53215127      -0.98267297      -1.32881365
9
Frame=6 idx=000206 GeodesicLength=0.27980686966485957 rxn_smarts="[O:1]=[C:2]([C@@:3]1([H:7])[C:4]([H:8])([H:9])[O:5]1)[H:6]>>[O:1]=[C:2]([C@@:3]([C:4][H:9])([O:5][H:8])[H:7])[H:6]"
O        2.28921464       0.46776098       0.37536498
C        1.25353308      -0.13284510       0.34430345
C       -0.06998716       0.52409229       0.11836239
C       -0.92182748      -0.02959275      -0.95509111
O       -1.12502730      -0.27087373       0.68304254
H        1.20133208      -1.23848513       0.43014353
H       -0.10669244       1.58379902       0.35572892
H       -1.98632296       0.08067946      -0.02287527
H       -0.53422245      -0.98453505      -1.32897942
9
Frame=7 idx=000206 GeodesicLength=0.3264436239822586 rxn_smarts="[O:1]=[C:2]([C@@:3]1([H:7])[C:4]([H:8])([H:9])[O:5]1)[H:6]>>[O:1]=[C:2]([C@@:3]([C:4][H:9])([O:5][H:8])[H:7])[H:6]"
O        2.29181878       0.47031923       0.37275510
C        1.25709496      -0.13228343       0.34525128
C       -0.06751236       0.52189082       0.12002597
C       -0.92301587      -0.03375302      -0.94900047
O       -1.12466465      -0.27574246       0.67746035
H        1.20750153      -1.23796487       0.43226675
H       -0.10770303       1.58112682       0.35888103
H       -1.99716142       0.09272345      -0.02851671
H       -0.53635793      -0.98631654      -1.32912330
9
Frame=8 idx=000206 GeodesicLength=0.3730643336461568 rxn_smarts="[O:1]=[C:2]([C@@:3]1([H:7])[C:4]([H:8])([H:9])[O:5]1)[H:6]>>[O:1]=[C:2]([C@@:3]([C:4][H:9])([O:5][H:8])[H:7])[H:6]"
O        2.29440476       0.47285646       0.37003951
C        1.26063974      -0.13171956       0.34621249
C       -0.06506024       0.51967587       0.12174433
C       -0.92421511      -0.03787199      -0.94286454
O       -1.12428001      -0.28052728       0.67206356
H        1.21363758      -1.23743252       0.43440948
H       -0.10869963       1.57843121       0.36207181
H       -2.00787262       0.10461154      -0.03443416
H       -0.53855447      -0.98802373      -1.32924249
9
Frame=9 idx=000206 GeodesicLength=0.4196946878307473 rxn_smarts="[O:1]=[C:2]([C@@:3]1([H:7])[C:4]([H:8])([H:9])[O:5]1)[H:6]>>[O:1]=[C:2]([C@@:3]([C:4][H:9])([O:5][H:8])[H:7])[H:6]"
O        2.29697572       0.47538226       0.36721815
C        1.26417789      -0.13115594       0.34718432
C       -0.06263254       0.51744234       0.12352125
C       -0.92542969      -0.04195926      -0.93668600
O       -1.12386942      -0.28524575       0.66685580
H        1.21976394      -1.23689374       0.43656699
H       -0.10969522       1.57571094       0.36531626
H       -2.01847186       0.11639161      -0.04064734
H       -0.54081882      -0.98967245      -1.32932943
9
Frame=10 idx=000206 GeodesicLength=0.4663235947615324 rxn_smarts="[O:1]=[C:2]([C@@:3]1([H:7])[C:4]([H:8])([H:9])[O:5]1)[H:6]>>[O:1]=[C:2]([C@@:3]([C:4][H:9])([O:5][H:8])[H:7])[H:6]"
O        2.29953360       0.47790199       0.36427853
C        1.26771412      -0.13059010       0.34815995
C       -0.06022846       0.51518582       0.12536206
C       -0.92665827      -0.04601753      -0.93046264
O       -1.12343251      -0.28990995       0.66183376
H        1.22588959      -1.23634593       0.43875072
H       -0.11069338       1.57295817       0.36863336
H       -2.02896659       0.12808831      -0.04717362
H       -0.54315812      -0.99127078      -1.32938210
9
Frame=11 idx=000206 GeodesicLength=0.5129632821083571 rxn_smarts="[O:1]=[C:2]([C@@:3]1([H:7])[C:4]([H:8])([H:9])[O:5]1)[H:6]>>[O:1]=[C:2]([C@@:3]([C:4][H:9])([O:5][H:8])[H:7])[H:6]"
O        2.30206871       0.48042161       0.36121105
C        1.27124423      -0.13001947       0.34913410
C       -0.05784632       0.51289722       0.12726877
C       -0.92789189      -0.05004809      -0.92418491
O       -1.12296187      -0.29454103       0.65699780
H        1.23201024      -1.23577957       0.44095747
H       -0.11169184       1.57015596       0.37202768
H       -2.03936067       0.13972730      -0.05403174
H       -0.54557060      -0.99281392      -1.32938023
9
Frame=12 idx=000206 GeodesicLength=0.5596069699993746 rxn_smarts="[O:1]=[C:2]([C@@:3]1([H:7])[C:4]([H:8])([H:9])[O:5]1)[H:6]>>[O:1]=[C:2]([C@@:3]([C:4][H:9])([O:5][H:8])[H:7])[H:6]"
O        2.30459109       0.48294550       0.35801972
C        1.27477966      -0.12944512       0.35010819
C       -0.05548883       0.51057852       0.12924787
C       -0.92914309      -0.05406050      -0.91785324
O       -1.12245921      -0.29914280       0.65235488
H        1.23815037      -1.23520445       0.44318094
H       -0.11270135       1.56731392       0.37551190
H       -2.04966376       0.15133558      -0.06123834
H       -0.54806488      -0.99432065      -1.32933193
9
Frame=13 idx=000206 GeodesicLength=0.6062455793259487 rxn_smarts="[O:1]=[C:2]([C@@:3]1([H:7])[C:4]([H:8])([H:9])[O:5]1)[H:6]>>[O:1]=[C:2]([C@@:3]([C:4][H:9])([O:5][H:8])[H:7])[H:6]"
O        2.30709048       0.48547673       0.35470941
C        1.27831475      -0.12886431       0.35107780
C       -0.05315381       0.50822523       0.13130100
C       -0.93040705      -0.05805887      -0.91145234
O       -1.12191855      -0.30372496       0.64791154
H        1.24430395      -1.23461359       0.44540157
H       -0.11371808       1.56442144       0.37908154
H       -2.05987230       0.16292541      -0.06881082
H       -0.55063939      -0.99578708      -1.32921970
9
Frame=14 idx=000206 GeodesicLength=0.6528934192376004 rxn_smarts="[O:1]=[C:2]([C@@:3]1([H:7])[C:4]([H:8])([H:9])[O:5]1)[H:6]>>[O:1]=[C:2]([C@@:3]([C:4][H:9])([O:5][H:8])[H:7])[H:6]"
O        2.30956888       0.48802081       0.35126239
C        1.28185548      -0.12827729       0.35204306
C       -0.05084373       0.50583292       0.13343500
C       -0.93168676      -0.06204718      -0.90498298
O       -1.12133711      -0.30830368       0.64366909
H        1.25048519      -1.23400873       0.44763048
H       -0.11474971       1.56147478       0.38275493
H       -2.06999537       0.17452870      -0.07676898
H       -0.55329686      -0.99722032      -1.32904299
9
Frame=15 idx=000206 GeodesicLength=0.6995438907054488 rxn_smarts="[O:1]=[C:2]([C@@:3]1([H:7])[C:4]([H:8])([H:9])[O:5]1)[H:6]>>[O:1]=[C:2]([C@@:3]([C:4][H:9])([O:5][H:8])[H:7])[H:6]"
O        2.31202574       0.49058257       0.34769237
C        1.28540466      -0.12768295       0.35299557
C       -0.04855794       0.50340031       0.13565171
C       -0.93298821      -0.06603134      -0.89843501
O       -1.12071068      -0.31288598       0.63963589
H        1.25670076      -1.23338940       0.44985298
H       -0.11579664       1.55847287       0.38653312
H       -2.08003190       0.18616003      -0.08513153
H       -0.55604577      -0.99862612      -1.32879510
9
Frame=16 idx=000206 GeodesicLength=0.7461956277092991 rxn_smarts="[O:1]=[C:2]([C@@:3]1([H:7])[C:4]([H:8])([H:9])[O:5]1)[H:6]>>[O:1]=[C:2]([C@@:3]([C:4][H:9])([O:5][H:8])[H:7])[H:6]"
O        2.31445784       0.49316650       0.34401012
C        1.28896351      -0.12708075       0.35392807
C       -0.04629615       0.50092562       0.13795282
C       -0.93431563      -0.07001651      -0.89179943
O       -1.12003211      -0.31748100       0.63582021
H        1.26295527      -1.23275499       0.45205612
H       -0.11685932       1.55541353       0.39041568
H       -2.08998220       0.19783498      -0.09391502
H       -0.55889121      -1.00000738      -1.32846858
