17
Frame=0 idx=011644 GeodesicLength=0.0 rxn_smarts="[O:1]([C:2]([C@@:3]1([H:11])[C:4]([H:12])([H:13])[C:5]([H:14])([H:15])[O:6][C:7]1([H:16])[H:17])([H:9])[H:10])[H:8]>>[O:1]([C:2]([C@@:3]([C:4]([H:12])([H:13])[H:15])([C:7]([O+:6]=[C-:5][H:14])([H:16])[H:17])[H:11])([H:9])[H:10])[H:8]"
O        2.34925629       0.07086652       0.94638307
C        1.51139283      -0.51154015      -0.03169249
C        0.06936992      -0.33535021       0.40768689
C       -0.32359046       1.12543438       0.50608947
C       -2.23673031       0.80755022      -0.39759931
O       -2.17289192      -0.53118449      -0.25264626
C       -0.89145810      -1.04132556      -0.55954682
H        3.26333323      -0.03947121       0.68173688
H        1.65281279      -0.02875340      -1.00919190
H        1.73420306      -1.58017555      -0.15039773
H       -0.04554008      -0.80140773       1.38941892
H       -0.17933709       1.53538008       1.50602939
H        0.15583421       1.77214909      -0.22489687
H       -1.73482240       1.12000405      -1.33026381
H       -1.60816629       1.36780609       0.54644899
H       -0.63611218      -0.80608552      -1.60274353
H       -0.90755355      -2.12389654      -0.42481488
17
Frame=1 idx=011644 GeodesicLength=0.055979910939764586 rxn_smarts="[O:1]([C:2]([C@@:3]1([H:11])[C:4]([H:12])([H:13])[C:5]([H:14])([H:15])[O:6][C:7]1([H:16])[H:17])([H:9])[H:10])[H:8]>>[O:1]([C:2]([C@@:3]([C:4]([H:12])([H:13])[H:15])([C:7]([O+:6]=[C-:5][H:14])([H:16])[H:17])[H:11])([H:9])[H:10])[H:8]"
O        2.34876288       0.06815535       0.95365880
C        1.51412044      -0.51438474      -0.02710095
C        0.07071038      -0.33441145       0.40566753
C       -0.32417706       1.12676611       0.49867771
C       -2.24271510       0.80571817      -0.38986122
O       -2.17244646      -0.53419123      -0.26133930
C       -0.88675190      -1.03873848      -0.56489578
H        3.26372395      -0.04365021       0.69276141
H        1.66135168      -0.03357611      -1.00473100
H        1.73527765      -1.58369429      -0.14300461
H       -0.04898282      -0.79851312       1.38787451
H       -0.15349611       1.54553982       1.49078029
H        0.15084925       1.76557440      -0.24286009
H       -1.76771323       1.12928259      -1.33271581
H       -1.61649738       1.36310096       0.57658246
H       -0.63091524      -0.80133406      -1.60731250
H       -0.90110093      -2.12164370      -0.43218147
17
Frame=2 idx=011644 GeodesicLength=0.1119164115842482 rxn_smarts="[O:1]([C:2]([C@@:3]1([H:11])[C:4]([H:12])([H:13])[C:5]([H:14])([H:15])[O:6][C:7]1([H:16])[H:17])([H:9])[H:10])[H:8]>>[O:1]([C:2]([C@@:3]([C:4]([H:12])([H:13])[H:15])([C:7]([O+:6]=[C-:5][H:14])([H:16])[H:17])[H:11])([H:9])[H:10])[H:8]"
O        2.34822485       0.06551016       0.96093041
C        1.51683270      -0.51719056      -0.02250586
C        0.07208381      -0.33346157       0.40366533
C       -0.32476180       1.12811550       0.49132275
C       -2.24835757       0.80408120      -0.38228483
O       -2.17193003      -0.53681889      -0.27028355
C       -0.88205973      -1.03609174      -0.57021381
H        3.26405725      -0.04776014       0.70379990
H        1.66983654      -0.03832685      -1.00021832
H        1.73631419      -1.58716490      -0.13563211
H       -0.05240354      -0.79560913       1.38631636
H       -0.12822405       1.55557733       1.47491267
H        0.14591142       1.75885706      -0.26063142
H       -1.80108558       1.13846025      -1.33484838
H       -1.62398543       1.35780794       0.60688433
H       -0.62560892      -0.79668365      -1.61185417
H       -0.89484411      -2.11930200      -0.43935932
17
Frame=3 idx=011644 GeodesicLength=0.16781002557256977 rxn_smarts="[O:1]([C:2]([C@@:3]1([H:11])[C:4]([H:12])([H:13])[C:5]([H:14])([H:15])[O:6][C:7]1([H:16])[H:17])([H:9])[H:10])[H:8]>>[O:1]([C:2]([C@@:3]([C:4]([H:12])([H:13])[H:15])([C:7]([O+:6]=[C-:5][H:14])([H:16])[H:17])[H:11])([H:9])[H:10])[H:8]"
O        2.34764050       0.06293689       0.96819447
C        1.51953073      -0.51995951      -0.01790824
C        0.07349007      -0.33250114       0.40167740
C       -0.32533851       1.12948178       0.48402248
C       -2.25366833       0.80263745      -0.37489429
O       -2.17134000      -0.53906541      -0.27946733
C       -0.87738159      -1.03338917      -0.57550057
H        3.26433187      -0.05179353       0.71485024
H        1.67826909      -0.04301318      -0.99565807
H        1.73731486      -1.59058971      -0.12827527
H       -0.05579869      -0.79269976       1.38474077
H       -0.10353664       1.56546601       1.45847675
H        0.14103647       1.75200455      -0.27820074
H       -1.83495096       1.14753411      -1.33663993
H       -1.63062241       1.35196974       0.63729868
H       -0.62019243      -0.79214305      -1.61636945
H       -0.88878402      -2.11687606      -0.44634689
17
Frame=4 idx=011644 GeodesicLength=0.22366551806434298 rxn_smarts="[O:1]([C:2]([C@@:3]1([H:11])[C:4]([H:12])([H:13])[C:5]([H:14])([H:15])[O:6][C:7]1([H:16])[H:17])([H:9])[H:10])[H:8]>>[O:1]([C:2]([C@@:3]([C:4]([H:12])([H:13])[H:15])([C:7]([O+:6]=[C-:5][H:14])([H:16])[H:17])[H:11])([H:9])[H:10])[H:8]"
O        2.34700792       0.06044031       0.97544901
C        1.52221545      -0.52269353      -0.01330820
C        0.07492859      -0.33153137       0.39970102
C       -0.32590178       1.13086387       0.47677498
C       -2.25865906       0.80138460      -0.36771380
O       -2.17067336      -0.54092983      -0.28888215
C       -0.87271689      -1.03063499      -0.58075668
H        3.26454568      -0.05574423       0.72591241
H        1.68665127      -0.04764165      -0.99105311
H        1.73828188      -1.59397101      -0.12092898
H       -0.05916595      -0.78978941       1.38314422
H       -0.07943961       1.57518501       1.44151558
H        0.13623619       1.74502363      -0.29556234
H       -1.86932128       1.15650384      -1.33806557
H       -1.63640543       1.34562681       0.66777797
H       -0.61466314      -0.78772084      -1.62086017
H       -0.88292048      -2.11437122      -0.45314419
17
Frame=5 idx=011644 GeodesicLength=0.27947506140464495 rxn_smarts="[O:1]([C:2]([C@@:3]1([H:11])[C:4]([H:12])([H:13])[C:5]([H:14])([H:15])[O:6][C:7]1([H:16])[H:17])([H:9])[H:10])[H:8]>>[O:1]([C:2]([C@@:3]([C:4]([H:12])([H:13])[H:15])([C:7]([O+:6]=[C-:5][H:14])([H:16])[H:17])[H:11])([H:9])[H:10])[H:8]"
O        2.34632527       0.05802531       0.98269170
C        1.52488760      -0.52539424      -0.00870606
C        0.07639876      -0.33055351       0.39773354
C       -0.32644672       1.13226066       0.46957834
C       -2.26333857       0.80032117      -0.36076760
O       -2.16992673      -0.54241271      -0.29852011
C       -0.86806466      -1.02783329      -0.58598320
H        3.26469799      -0.05960744       0.73698598
H        1.69498457      -0.05221803      -0.98640633
H        1.73921731      -1.59731056      -0.11358911
H       -0.06250334      -0.78688258       1.38152334
H       -0.05593760       1.58471338       1.42407441
H        0.13152175       1.73792184      -0.31270855
H       -1.90420913       1.16536485      -1.33910025
H       -1.64133373       1.33882285       0.69827281
H       -0.60901867      -0.78342540      -1.62532763
H       -0.87725411      -2.11179230      -0.45975127
17
Frame=6 idx=011644 GeodesicLength=0.33524386885217805 rxn_smarts="[O:1]([C:2]([C@@:3]1([H:11])[C:4]([H:12])([H:13])[C:5]([H:14])([H:15])[O:6][C:7]1([H:16])[H:17])([H:9])[H:10])[H:8]>>[O:1]([C:2]([C@@:3]([C:4]([H:12])([H:13])[H:15])([C:7]([O+:6]=[C-:5][H:14])([H:16])[H:17])[H:11])([H:9])[H:10])[H:8]"
O        2.34559105       0.05569543       0.98992169
C        1.52754794      -0.52806325      -0.00410152
C        0.07789971      -0.32956845       0.39577213
C       -0.32696877       1.13367108       0.46243104
C       -2.26771717       0.79944688      -0.35408229
O       -2.16909769      -0.54351379      -0.30837731
C       -0.86342338      -1.02498789      -0.59118220
H        3.26478671      -0.06337971       0.74807265
H        1.70327158      -0.05674783      -0.98171968
H        1.74012290      -1.60061019      -0.10625100
H       -0.06580984      -0.78398349       1.37987442
H       -0.03302743       1.59403299       1.40619339
H        0.12690244       1.73070757      -0.32963521
H       -1.93963187       1.17410788      -1.33971605
H       -1.64540807       1.33160153       0.72874419
H       -0.60325434      -0.77926449      -1.62977494
H       -0.87178377      -2.10914429      -0.46616932
17
Frame=7 idx=011644 GeodesicLength=0.39096899150720416 rxn_smarts="[O:1]([C:2]([C@@:3]1([H:11])[C:4]([H:12])([H:13])[C:5]([H:14])([H:15])[O:6][C:7]1([H:16])[H:17])([H:9])[H:10])[H:8]>>[O:1]([C:2]([C@@:3]([C:4]([H:12])([H:13])[H:15])([C:7]([O+:6]=[C-:5][H:14])([H:16])[H:17])[H:11])([H:9])[H:10])[H:8]"
O        2.34480337       0.05345485       0.99713756
C        1.53019673      -0.53070179       0.00050553
C        0.07943028      -0.32857794       0.39381448
C       -0.32746472       1.13509372       0.45533118
C       -2.27180265       0.79876238      -0.34768510
O       -2.16818273      -0.54423364      -0.31845084
C       -0.85879151      -1.02210338      -0.59635565
H        3.26481063      -0.06705648       0.75917210
H        1.71151370      -0.06123568      -0.97699491
H        1.74100046      -1.60387114      -0.09891073
H       -0.06908476      -0.78109679       1.37819443
H       -0.01070487       1.60312589       1.38791299
H        0.12238567       1.72338792      -0.34633657
H       -1.97560165       1.18272514      -1.33988624
H       -1.64863183       1.32400667       0.75915507
H       -0.59736596      -0.77524749      -1.63420424
H       -0.86651013      -2.10643225      -0.47239905
17
Frame=8 idx=011644 GeodesicLength=0.44665410741642037 rxn_smarts="[O:1]([C:2]([C@@:3]1([H:11])[C:4]([H:12])([H:13])[C:5]([H:14])([H:15])[O:6][C:7]1([H:16])[H:17])([H:9])[H:10])[H:8]>>[O:1]([C:2]([C@@:3]([C:4]([H:12])([H:13])[H:15])([C:7]([O+:6]=[C-:5][H:14])([H:16])[H:17])[H:11])([H:9])[H:10])[H:8]"
O        2.34396107       0.05130582       1.00433916
C        1.53283477      -0.53331123       0.00511590
C        0.08098966      -0.32758239       0.39185769
C       -0.32793053       1.13652819       0.44827705
C       -2.27560400       0.79826987      -0.34160532
O       -2.16717902      -0.54457241      -0.32873995
C       -0.85416671      -1.01918287      -0.60150674
H        3.26476863      -0.07063846       0.77028841
H        1.71971415      -0.06568538      -0.97223295
H        1.74185141      -1.60709487      -0.09156457
H       -0.07232818      -0.77822603       1.37647965
H        0.01103905       1.61197845       1.36926872
H        0.11798024       1.71597178      -0.36281002
H       -2.01214111       1.19120009      -1.33958000
H       -1.65100992       1.31608024       0.78947497
H       -0.59134780      -0.77138098      -1.63861894
H       -0.86143170      -2.10365981      -0.47844308
17
Frame=9 idx=011644 GeodesicLength=0.5023100002810859 rxn_smarts="[O:1]([C:2]([C@@:3]1([H:11])[C:4]([H:12])([H:13])[C:5]([H:14])([H:15])[O:6][C:7]1([H:16])[H:17])([H:9])[H:10])[H:8]>>[O:1]([C:2]([C@@:3]([C:4]([H:12])([H:13])[H:15])([C:7]([O+:6]=[C-:5][H:14])([H:16])[H:17])[H:11])([H:9])[H:10])[H:8]"
O        2.34306338       0.04924819       1.01152409
C        1.53545936      -0.53588972       0.00972658
C        0.08257464      -0.32658268       0.38990153
C       -0.32837012       1.13797257       0.44127470
C       -2.27912757       0.79796504      -0.33586007
O       -2.16608005      -0.54453915      -0.33924516
C       -0.84954979      -1.01622901      -0.60663565
H        3.26466053      -0.07412440       0.78141861
H        1.72786798      -0.07009286      -0.96743715
H        1.74267509      -1.61027879      -0.08421792
H       -0.07553921      -0.77537696       1.37472871
H        0.03223157       1.62057489       1.35029150
H        0.11368210       1.70846888      -0.37904560
H       -2.04921609       1.19951256      -1.33879801
H       -1.65257905       1.30787462       0.81969049
H       -0.58519954      -0.76767640      -1.64301552
H       -0.85655325      -2.10082680      -0.48430113
17
Frame=10 idx=011644 GeodesicLength=0.5579319743747828 rxn_smarts="[O:1]([C:2]([C@@:3]1([H:11])[C:4]([H:12])([H:13])[C:5]([H:14])([H:15])[O:6][C:7]1([H:16])[H:17])([H:9])[H:10])[H:8]>>[O:1]([C:2]([C@@:3]([C:4]([H:12])([H:13])[H:15])([C:7]([O+:6]=[C-:5][H:14])([H:16])[H:17])[H:11])([H:9])[H:10])[H:8]"
O        2.34210690       0.04728541       1.01869685
C        1.53807304      -0.53844182       0.01434375
C        0.08418497      -0.32557786       0.38794041
C       -0.32877347       1.13942985       0.43431023
C       -2.28238360       0.79785725      -0.33048635
O       -2.16488691      -0.54412810      -0.34997172
C       -0.84493437      -1.01324514      -0.61175067
H        3.26448269      -0.07751474       0.79257334
H        1.73598643      -0.07447094      -0.96260329
H        1.74347261      -1.61342854      -0.07685526
H       -0.07872319      -0.77254745       1.37293608
H        0.05288365       1.62891020       1.33101206
H        0.10950778       1.70088583      -0.39505501
H       -2.08689831       1.20765316      -1.33747762
H       -1.65332398       1.29940853       0.84977410
H       -0.57890841      -0.76413380      -1.64740618
H       -0.85186586      -2.09794183      -0.48998072
17
Frame=11 idx=011644 GeodesicLength=0.613522702604714 rxn_smarts="[O:1]([C:2]([C@@:3]1([H:11])[C:4]([H:12])([H:13])[C:5]([H:14])([H:15])[O:6][C:7]1([H:16])[H:17])([H:9])[H:10])[H:8]>>[O:1]([C:2]([C@@:3]([C:4]([H:12])([H:13])[H:15])([C:7]([O+:6]=[C-:5][H:14])([H:16])[H:17])[H:11])([H:9])[H:10])[H:8]"
O        2.34108996       0.04541716       1.02585837
C        1.54067479      -0.54096876       0.01896877
C        0.08581825      -0.32456750       0.38597219
C       -0.32913802       1.14090092       0.42738212
C       -2.28537778       0.79794875      -0.32550781
O       -2.16359529      -0.54334142      -0.36092453
C       -0.84031875      -1.01023282      -0.61685518
H        3.26423348      -0.08080804       0.80375362
H        1.74407101      -0.07882278      -0.95773128
H        1.74424288      -1.61654539      -0.06947336
H       -0.08188286      -0.76973921       1.37109904
H        0.07301919       1.63697628       1.31145871
H        0.10546217       1.69323216      -0.41083672
H       -2.12519800       1.21560089      -1.33560050
H       -1.65326201       1.29071307       0.87971444
H       -0.57246881      -0.76075785      -1.65179217
H       -0.84737019      -2.09500548      -0.49548572
17
Frame=12 idx=011644 GeodesicLength=0.6690887572694627 rxn_smarts="[O:1]([C:2]([C@@:3]1([H:11])[C:4]([H:12])([H:13])[C:5]([H:14])([H:15])[O:6][C:7]1([H:16])[H:17])([H:9])[H:10])[H:8]>>[O:1]([C:2]([C@@:3]([C:4]([H:12])([H:13])[H:15])([C:7]([O+:6]=[C-:5][H:14])([H:16])[H:17])[H:11])([H:9])[H:10])[H:8]"
O        2.34001028       0.04364313       1.03301144
C        1.54326408      -0.54347213       0.02360428
C        0.08747247      -0.32355077       0.38399401
C       -0.32946109       1.14238746       0.42048580
C       -2.28811709       0.79824440      -0.32095078
O       -2.16220198      -0.54217933      -0.37211200
C       -0.83569963      -1.00719357      -0.62195451
H        3.26391078      -0.08400580       0.81496472
H        1.75212548      -0.08315231      -0.95281900
H        1.74498482      -1.61963112      -0.06206680
H       -0.08502224      -0.76695266       1.36921411
H        0.09266479       1.64476856       1.29165343
H        0.10155190       1.68551647      -0.42639398
H       -2.16413902       1.22333377      -1.33313460
H       -1.65240691       1.28181608       0.90950348
H       -0.56587243      -0.75755223      -1.65617814
H       -0.84306420      -2.09201996      -0.50082146
17
Frame=13 idx=011644 GeodesicLength=0.7246258114976483 rxn_smarts="[O:1]([C:2]([C@@:3]1([H:11])[C:4]([H:12])([H:13])[C:5]([H:14])([H:15])[O:6][C:7]1([H:16])[H:17])([H:9])[H:10])[H:8]>>[O:1]([C:2]([C@@:3]([C:4]([H:12])([H:13])[H:15])([C:7]([O+:6]=[C-:5][H:14])([H:16])[H:17])[H:11])([H:9])[H:10])[H:8]"
O        2.33886613       0.04196332       1.04015689
C        1.54583967      -0.54595308       0.02825185
C        0.08914528      -0.32252663       0.38200339
C       -0.32974044       1.14389103       0.41361847
C       -2.29060600       0.79875030      -0.31684288
O       -2.16070251      -0.54064284      -0.38354136
C       -0.83107481      -1.00412836      -0.62705318
H        3.26351285      -0.08710790       0.82620867
H        1.76015174      -0.08746314      -0.94786573
H        1.74569658      -1.62268702      -0.05463157
H       -0.08814486      -0.76418819       1.36727822
H        0.11184183       1.65228116       1.27162066
H        0.09778320       1.67774742      -0.44172648
H       -2.20373355       1.23082662      -1.33005050
H       -1.65077337       1.27274459       0.93913230
H       -0.55911298      -0.75452108      -1.66056688
H       -0.83894875      -2.08898620      -0.50599189
17
Frame=14 idx=011644 GeodesicLength=0.7801442391755786 rxn_smarts="[O:1]([C:2]([C@@:3]1([H:11])[C:4]([H:12])([H:13])[C:5]([H:14])([H:15])[O:6][C:7]1([H:16])[H:17])([H:9])[H:10])[H:8]>>[O:1]([C:2]([C@@:3]([C:4]([H:12])([H:13])[H:15])([C:7]([O+:6]=[C-:5][H:14])([H:16])[H:17])[H:11])([H:9])[H:10])[H:8]"
O        2.33765520       0.04037587       1.04729877
C        1.54840085      -0.54841308       0.03291434
C        0.09083473      -0.32149351       0.37999752
C       -0.32997289       1.14541445       0.40677640
C       -2.29284888       0.79947498      -0.31321295
O       -2.15909296      -0.53873018      -0.39522383
C       -0.82644076      -1.00103681      -0.63215737
H        3.26303706      -0.09011841       0.83749263
H        1.76815405      -0.09175831      -0.94286848
H        1.74637617      -1.62571472      -0.04716309
H       -0.09125545      -0.76144574       1.36528763
H        0.13057531       1.65951108       1.25137636
H        0.09416351       1.66993335      -0.45683817
H       -2.24401153       1.23804604      -1.32631384
H       -1.64837059       1.26352518       0.96860068
H       -0.55218122      -0.75166573      -1.66496325
H       -0.83502259      -2.08590445      -0.51100332
17
Frame=15 idx=011644 GeodesicLength=0.8356420439482941 rxn_smarts="[O:1]([C:2]([C@@:3]1([H:11])[C:4]([H:12])([H:13])[C:5]([H:14])([H:15])[O:6][C:7]1([H:16])[H:17])([H:9])[H:10])[H:8]>>[O:1]([C:2]([C@@:3]([C:4]([H:12])([H:13])[H:15])([C:7]([O+:6]=[C-:5][H:14])([H:16])[H:17])[H:11])([H:9])[H:10])[H:8]"
O        2.33637492       0.03887928       1.05444033
C        1.55094649      -0.55085376       0.03759473
C        0.09253862      -0.32044941       0.37797316
C       -0.33015533       1.14696099       0.39995442
C       -2.29484824       0.80042810      -0.31009249
O       -2.15736767      -0.53643995      -0.40717229
C       -0.82179412      -0.99791827      -0.63727366
H        3.26248065      -0.09304055       0.84882284
H        1.77613629      -0.09604190      -0.93782446
H        1.74702074      -1.62871615      -0.03965590
H       -0.09435938      -0.75872391       1.36323840
H        0.14888872       1.66645656       1.23093651
H        0.09070102       1.66208233      -0.47173313
H       -2.28499836       1.24495749      -1.32187937
H       -1.64520988       1.25418102       0.99790468
H       -0.54506819      -0.74898831      -1.66937150
H       -0.83128626      -2.08277356      -0.51586227
17
Frame=16 idx=011644 GeodesicLength=0.8911194586772305 rxn_smarts="[O:1]([C:2]([C@@:3]1([H:11])[C:4]([H:12])([H:13])[C:5]([H:14])([H:15])[O:6][C:7]1([H:16])[H:17])([H:9])[H:10])[H:8]>>[O:1]([C:2]([C@@:3]([C:4]([H:12])([H:13])[H:15])([C:7]([O+:6]=[C-:5][H:14])([H:16])[H:17])[H:11])([H:9])[H:10])[H:8]"
O        2.33502245       0.03747087       1.06158724
C        1.55347618      -0.55327718       0.04229691
C        0.09425544      -0.31939145       0.37592619
C       -0.33028286       1.14853527       0.39314592
C       -2.29660343       0.80162247      -0.30751776
O       -2.15552084      -0.53376954      -0.41940085
C       -0.81713004      -0.99477029      -0.64241085
H        3.26184088      -0.09588367       0.86021174
H        1.78410489      -0.10031839      -0.93272924
H        1.74762713      -1.63169377      -0.03210350
H       -0.09746295      -0.75602036       1.36112531
H        0.16680300       1.67311686       1.21031213
H        0.08740653       1.65420258      -0.48641837
H       -2.32673969       1.25151586      -1.31668810
H       -1.64129570       1.24473944       1.02703942
H       -0.53776306      -0.74648752      -1.67379801
H       -0.82773792      -2.07959116      -0.52057821
