16
Frame=0 idx=005572 GeodesicLength=0.0 rxn_smarts="[C:1]([C:2]([C:3]1([H:12])[C:4]([H:13])([H:14])[O:5][C:6]1([H:15])[H:16])([H:10])[H:11])([H:7])([H:8])[H:9]>>[C:1](=[C:2]([C:3]1([H:12])[C:4]([H:13])([H:14])[O:5][C:6]1([H:15])[H:16])[H:10])([H:7])[H:8].[H:9][H:11]"
C        2.01543019       0.42234250       0.49112918
C        1.03356341      -0.31716066      -0.23537664
C       -0.34212331      -0.49363403       0.33361862
C       -1.51937392      -0.89120202      -0.56354471
O       -2.28128898       0.24411236      -0.13009807
C       -1.18023388       0.75676507       0.62880102
H        3.06506107       0.26705775       0.29863870
H        1.70348017       1.14470687       1.23105795
H        1.31770517       0.78615361      -0.79970189
H        1.40491691      -1.14796888      -0.82821964
H        0.55226961       0.44294820      -1.53916755
H       -0.22079623      -1.14211876       1.20359409
H       -2.01553145      -1.83239398      -0.31525742
H       -1.30788679      -0.85414371      -1.63692275
H       -1.44617591       0.93723888       1.67257574
H       -0.77901599       1.67729680       0.18887341
16
Frame=1 idx=005572 GeodesicLength=0.10649552617047837 rxn_smarts="[C:1]([C:2]([C:3]1([H:12])[C:4]([H:13])([H:14])[O:5][C:6]1([H:15])[H:16])([H:10])[H:11])([H:7])([H:8])[H:9]>>[C:1](=[C:2]([C:3]1([H:12])[C:4]([H:13])([H:14])[O:5][C:6]1([H:15])[H:16])[H:10])([H:7])[H:8].[H:9][H:11]"
C        2.01204371       0.43087893       0.48059593
C        1.03106096      -0.31380590      -0.24164804
C       -0.34086582      -0.49549010       0.33600507
C       -1.51884890      -0.89403180      -0.56024996
O       -2.27615334       0.24873612      -0.13882446
C       -1.18078233       0.75315678       0.63376655
H        3.06169621       0.23528644       0.32597797
H        1.69916645       1.15648101       1.21757991
H        1.33569841       0.81298515      -0.83061930
H        1.40414834      -1.15515139      -0.81923099
H        0.54946935       0.46011922      -1.54897983
H       -0.21895963      -1.14550374       1.20468211
H       -2.02010037      -1.83142516      -0.30752138
H       -1.30586344      -0.86617486      -1.63368705
H       -1.45467038       0.92608907       1.67683756
H       -0.77703922       1.67785022       0.20531591
16
Frame=2 idx=005572 GeodesicLength=0.21245799412193683 rxn_smarts="[C:1]([C:2]([C:3]1([H:12])[C:4]([H:13])([H:14])[O:5][C:6]1([H:15])[H:16])([H:10])[H:11])([H:7])([H:8])[H:9]>>[C:1](=[C:2]([C:3]1([H:12])[C:4]([H:13])([H:14])[O:5][C:6]1([H:15])[H:16])[H:10])([H:7])[H:8].[H:9][H:11]"
C        2.00879927       0.43933211       0.46922794
C        1.02852114      -0.31126693      -0.24779934
C       -0.33960505      -0.49767537       0.33859143
C       -1.51833835      -0.89678885      -0.55693597
O       -2.27064237       0.25347489      -0.14741175
C       -1.18105355       0.74943939       0.63881431
H        3.05608975       0.20495502       0.35392613
H        1.69482063       1.16784327       1.20352714
H        1.35452865       0.84005943      -0.86231507
H        1.40339980      -1.16279419      -0.81001301
H        0.54699267       0.47782074      -1.55821260
H       -0.21724065      -1.14917220       1.20601320
H       -2.02493502      -1.83023554      -0.29994682
H       -1.30378178      -0.87799225      -1.63033644
H       -1.46291706       0.91494038       1.68103981
H       -0.77463808       1.67806010       0.22183106
16
Frame=3 idx=005572 GeodesicLength=0.3181549716539323 rxn_smarts="[C:1]([C:2]([C:3]1([H:12])[C:4]([H:13])([H:14])[O:5][C:6]1([H:15])[H:16])([H:10])[H:11])([H:7])([H:8])[H:9]>>[C:1](=[C:2]([C:3]1([H:12])[C:4]([H:13])([H:14])[O:5][C:6]1([H:15])[H:16])[H:10])([H:7])[H:8].[H:9][H:11]"
C        2.00569164       0.44762393       0.45700987
C        1.02593020      -0.30967358      -0.25375725
C       -0.33837814      -0.50022908       0.34140642
C       -1.51786151      -0.89946358      -0.55362164
O       -2.26476381       0.25833167      -0.15584934
C       -1.18105348       0.74559905       0.64395357
H        3.04831867       0.17634200       0.38225141
H        1.69043442       1.17875637       1.18885812
H        1.37422137       0.86752183      -0.89475540
H        1.40264889      -1.17103198      -0.80048537
H        0.54497912       0.49604653      -1.56675405
H       -0.21572743      -1.15316442       1.20762181
H       -2.03007290      -1.82881174      -0.29259666
H       -1.30164345      -0.88955041      -1.62689000
H       -1.47092912       0.90380318       1.68518798
H       -0.77179446       1.67790024       0.23842052
16
Frame=4 idx=005572 GeodesicLength=0.4238238575579305 rxn_smarts="[C:1]([C:2]([C:3]1([H:12])[C:4]([H:13])([H:14])[O:5][C:6]1([H:15])[H:16])([H:10])[H:11])([H:7])([H:8])[H:9]>>[C:1](=[C:2]([C:3]1([H:12])[C:4]([H:13])([H:14])[O:5][C:6]1([H:15])[H:16])[H:10])([H:7])[H:8].[H:9][H:11]"
C        2.00270556       0.45565844       0.44393335
C        1.02328080      -0.30916730      -0.25942637
C       -0.33723037      -0.50319565       0.34448498
C       -1.51744284      -0.90204750      -0.55032849
O       -2.25852887       0.26331839      -0.16414159
C       -1.18079295       0.74162610       0.64918992
H        3.03852235       0.14974619       0.41064169
H        1.68600579       1.18917073       1.17353902
H        1.39476277       0.89556090      -0.92788391
H        1.40189049      -1.18001472      -0.79054407
H        0.54359225       0.51478560      -1.57447275
H       -0.21453085      -1.15752930       1.20954856
H       -2.03556653      -1.82714271      -0.28553775
H       -1.29944348      -0.90081205      -1.62336684
H       -1.47873686       0.89269526       1.68927945
H       -0.76848725       1.67734763       0.25508480
16
Frame=5 idx=005572 GeodesicLength=0.5296081475914878 rxn_smarts="[C:1]([C:2]([C:3]1([H:12])[C:4]([H:13])([H:14])[O:5][C:6]1([H:15])[H:16])([H:10])[H:11])([H:7])([H:8])[H:9]>>[C:1](=[C:2]([C:3]1([H:12])[C:4]([H:13])([H:14])[O:5][C:6]1([H:15])[H:16])[H:10])([H:7])[H:8].[H:9][H:11]"
C        1.99981856       0.46336422       0.42998315
C        1.02055354      -0.30988828      -0.26472393
C       -0.33621262      -0.50661318       0.34786153
C       -1.51710646      -0.90453279      -0.54707797
O       -2.25194587       0.26844604      -0.17230269
C       -1.18029151       0.73751056       0.65452161
H        3.02690980       0.12546118       0.43869308
H        1.68150988       1.19899272       1.15759356
H        1.41612623       0.92440933      -0.96160480
H        1.40110473      -1.18991454      -0.78003662
H        0.54302837       0.53400670      -1.58125438
H       -0.21376186      -1.16230169       1.21184146
H       -2.04146654      -1.82520832      -0.27882973
H       -1.29717685      -0.91174769      -1.61978827
H       -1.48638427       0.88163671       1.69330424
H       -0.76470513       1.67637905       0.27181976
16
Frame=6 idx=005572 GeodesicLength=0.6356884438258209 rxn_smarts="[C:1]([C:2]([C:3]1([H:12])[C:4]([H:13])([H:14])[O:5][C:6]1([H:15])[H:16])([H:10])[H:11])([H:7])([H:8])[H:9]>>[C:1](=[C:2]([C:3]1([H:12])[C:4]([H:13])([H:14])[O:5][C:6]1([H:15])[H:16])[H:10])([H:7])[H:8].[H:9][H:11]"
C        1.99699291       0.47064929       0.41513401
C        1.01773698      -0.31198303      -0.26952378
C       -0.33538138      -0.51052603       0.35158205
C       -1.51687236      -0.90691650      -0.54389154
O       -2.24502197       0.27372470      -0.18035581
C       -1.17957245       0.73324448       0.65994701
H        3.01370348       0.10372309       0.46599689
H        1.67695470       1.20816208       1.14099157
H        1.43824726       0.95437680      -0.99582150
H        1.40028235      -1.20088985      -0.76882316
H        0.54349968       0.55366900      -1.58695144
H       -0.21355657      -1.16752402       1.21455805
H       -2.04782670      -1.82299784      -0.27253908
H       -1.29482186      -0.92233766      -1.61617153
H       -1.49392800       0.87065417       1.69724709
H       -0.76043605       1.67497131       0.28862118
16
Frame=7 idx=005572 GeodesicLength=0.7420793233361598 rxn_smarts="[C:1]([C:2]([C:3]1([H:12])[C:4]([H:13])([H:14])[O:5][C:6]1([H:15])[H:16])([H:10])[H:11])([H:7])([H:8])[H:9]>>[C:1](=[C:2]([C:3]1([H:12])[C:4]([H:13])([H:14])[O:5][C:6]1([H:15])[H:16])[H:10])([H:7])[H:8].[H:9][H:11]"
C        1.99418465       0.47743999       0.39936758
C        1.01480816      -0.31557020      -0.27372895
C       -0.33479236      -0.51496690       0.35568369
C       -1.51676165      -0.90919784      -0.54078809
O       -2.23776302       0.27916098      -0.18832802
C       -1.17866525       0.72881981       0.66545929
H        2.99918181       0.08471741       0.49212146
H        1.67233520       1.21659779       1.12373733
H        1.46105333       0.98579184      -1.03040671
H        1.39940501      -1.21308907      -0.75672392
H        0.54521563       0.57371086      -1.59146398
H       -0.21403621      -1.17322140       1.21774995
H       -2.05468958      -1.82049546      -0.26671744
H       -1.29236334      -0.93257502      -1.61253309
H       -1.50143003       0.85977412       1.70108939
H       -0.75568235       1.67310310       0.30548151
16
Frame=8 idx=005572 GeodesicLength=0.8489610458598731 rxn_smarts="[C:1]([C:2]([C:3]1([H:12])[C:4]([H:13])([H:14])[O:5][C:6]1([H:15])[H:16])([H:10])[H:11])([H:7])([H:8])[H:9]>>[C:1](=[C:2]([C:3]1([H:12])[C:4]([H:13])([H:14])[O:5][C:6]1([H:15])[H:16])[H:10])([H:7])[H:8].[H:9][H:11]"
C        1.99133259       0.48368064       0.38261804
C        1.01170008      -0.32078795      -0.27720662
C       -0.33452170      -0.51996546       0.36021721
C       -1.51678689      -0.91138082      -0.53778795
O       -2.23016082       0.28474697      -0.19625676
C       -1.17760849       0.72422484       0.67104977
H        2.98372863       0.06859436       0.51655960
H        1.66762990       1.22418496       1.10584586
H        1.48448214       1.01914562      -1.06519956
H        1.39840908      -1.22667480      -0.74353838
H        0.54843265       0.59399126      -1.59466972
H       -0.21535355      -1.17938992       1.22148526
H       -2.06209479      -1.81767387      -0.26142639
H       -1.28976745      -0.94247213      -1.60888946
H       -1.50896383       0.84903568       1.70480495
H       -0.75045754       1.67074062       0.32239416
16
Frame=9 idx=005572 GeodesicLength=0.9563795042733071 rxn_smarts="[C:1]([C:2]([C:3]1([H:12])[C:4]([H:13])([H:14])[O:5][C:6]1([H:15])[H:16])([H:10])[H:11])([H:7])([H:8])[H:9]>>[C:1](=[C:2]([C:3]1([H:12])[C:4]([H:13])([H:14])[O:5][C:6]1([H:15])[H:16])[H:10])([H:7])[H:8].[H:9][H:11]"
C        1.98834533       0.48935360       0.36454780
C        1.00858339      -0.32782199      -0.27964632
C       -0.33458346      -0.52555302       0.36528190
C       -1.51687880      -0.91350097      -0.53490257
O       -2.22214614       0.29052346      -0.20432003
C       -1.17639975       0.71951215       0.67664245
H        2.96707735       0.05498490       0.53847175
H        1.66310424       1.23070364       1.08729800
H        1.50763806       1.05542344      -1.09979624
H        1.39751010      -1.24185454      -0.72881013
H        0.55366540       0.61449563      -1.59633154
H       -0.21767278      -1.18604709       1.22591368
H       -2.07004522      -1.81455893      -0.25669008
H       -1.28684085      -0.95213780      -1.60520875
H       -1.51666858       0.83854554       1.70824395
H       -0.74468829       1.66793199       0.33930612
16
Frame=10 idx=005572 GeodesicLength=1.0638536015733064 rxn_smarts="[C:1]([C:2]([C:3]1([H:12])[C:4]([H:13])([H:14])[O:5][C:6]1([H:15])[H:16])([H:10])[H:11])([H:7])([H:8])[H:9]>>[C:1](=[C:2]([C:3]1([H:12])[C:4]([H:13])([H:14])[O:5][C:6]1([H:15])[H:16])[H:10])([H:7])[H:8].[H:9][H:11]"
C        1.98518167       0.49436703       0.34532180
C        1.00526633      -0.33669160      -0.28111547
C       -0.33506622      -0.53173445       0.37086623
C       -1.51710548      -0.91554221      -0.53214986
O       -2.21374617       0.29646300      -0.21247416
C       -1.17509872       0.71464294       0.68225622
H        2.95010079       0.04427373       0.55769446
H        1.65858725       1.23613724       1.06814046
H        1.53081385       1.09464974      -1.13409727
H        1.39648807      -1.25870828      -0.71248908
H        0.56094440       0.63502906      -1.59657250
H       -0.22108031      -1.19316255       1.23102263
H       -2.07859720      -1.81109167      -0.25255082
H       -1.28367227      -0.96154434      -1.60153092
H       -1.52456921       0.82829997       1.71145035
H       -0.73844679       1.66461238       0.35622792
16
Frame=11 idx=005572 GeodesicLength=1.1712044584813883 rxn_smarts="[C:1]([C:2]([C:3]1([H:12])[C:4]([H:13])([H:14])[O:5][C:6]1([H:15])[H:16])([H:10])[H:11])([H:7])([H:8])[H:9]>>[C:1](=[C:2]([C:3]1([H:12])[C:4]([H:13])([H:14])[O:5][C:6]1([H:15])[H:16])[H:10])([H:7])[H:8].[H:9][H:11]"
C        1.98179752       0.49862469       0.32486554
C        1.00178499      -0.34746043      -0.28149133
C       -0.33600718      -0.53852007       0.37700703
C       -1.51746282      -0.91753012      -0.52953422
O       -2.20491972       0.30257696      -0.22081616
C       -1.17372967       0.70964960       0.68783357
H        2.93316207       0.03631209       0.57377936
H        1.65416823       1.24034642       1.04841809
H        1.55349175       1.13742684      -1.16783724
H        1.39537793      -1.27732811      -0.69428840
H        0.57050307       0.65550150      -1.59538553
H       -0.22569409      -1.20072865       1.23687036
H       -2.08777693      -1.80727201      -0.24901277
H       -1.28021966      -0.97078545      -1.59783996
H       -1.53276064       0.81838650       1.71432556
H       -0.73171483       1.66080024       0.37310610
16
Frame=12 idx=005572 GeodesicLength=1.278212238699547 rxn_smarts="[C:1]([C:2]([C:3]1([H:12])[C:4]([H:13])([H:14])[O:5][C:6]1([H:15])[H:16])([H:10])[H:11])([H:7])([H:8])[H:9]>>[C:1](=[C:2]([C:3]1([H:12])[C:4]([H:13])([H:14])[O:5][C:6]1([H:15])[H:16])[H:10])([H:7])[H:8].[H:9][H:11]"
C        1.97814678       0.50206206       0.30310235
C        0.99814942      -0.36018549      -0.28070631
C       -0.33743500      -0.54590887       0.38372807
C       -1.51794780      -0.91948905      -0.52705265
O       -2.19562583       0.30887197      -0.22943774
C       -1.17230735       0.70456296       0.69331208
H        2.91659256       0.03093128       0.58632138
H        1.64991288       1.24318697       1.02818470
H        1.57517658       1.18435626      -1.20063838
H        1.39420083      -1.29779987      -0.67395614
H        0.58258316       0.67576618      -1.59285462
H       -0.23159687      -1.20870737       1.24351316
H       -2.09761670      -1.80308364      -0.24604973
H       -1.27644996      -0.97996508      -1.59411990
H       -1.54130628       0.80889411       1.71677922
H       -0.72447639       1.65650758       0.38987452
16
Frame=13 idx=005572 GeodesicLength=1.384750333463791 rxn_smarts="[C:1]([C:2]([C:3]1([H:12])[C:4]([H:13])([H:14])[O:5][C:6]1([H:15])[H:16])([H:10])[H:11])([H:7])([H:8])[H:9]>>[C:1](=[C:2]([C:3]1([H:12])[C:4]([H:13])([H:14])[O:5][C:6]1([H:15])[H:16])[H:10])([H:7])[H:8].[H:9][H:11]"
C        1.97418133       0.50459179       0.27996615
C        0.99437044      -0.37488391      -0.27868371
C       -0.33937012      -0.55388376       0.39105011
C       -1.51854109      -0.92144554      -0.52469935
O       -2.18580043       0.31535193      -0.23844773
C       -1.17083959       0.69942247       0.69861973
H        2.90071347       0.02786352       0.59495466
H        1.64592225       1.24451375       1.00748853
H        1.59528022       1.23606898      -1.23207997
H        1.39296601      -1.32015776      -0.65125183
H        0.59739190       0.69563514      -1.58912303
H       -0.23886360      -1.21703850       1.25100736
H       -2.10812249      -1.79850561      -0.24362366
H       -1.27230910      -0.98921103      -1.59034566
H       -1.55026897       0.79992495       1.71870708
H       -0.71671023       1.65175359       0.40646130
16
Frame=14 idx=005572 GeodesicLength=1.4907524378975845 rxn_smarts="[C:1]([C:2]([C:3]1([H:12])[C:4]([H:13])([H:14])[O:5][C:6]1([H:15])[H:16])([H:10])[H:11])([H:7])([H:8])[H:9]>>[C:1](=[C:2]([C:3]1([H:12])[C:4]([H:13])([H:14])[O:5][C:6]1([H:15])[H:16])[H:10])([H:7])[H:8].[H:9][H:11]"
C        1.96987613       0.50612398       0.25541311
C        0.99045192      -0.39154102      -0.27540657
C       -0.34182002      -0.56241595       0.39897233
C       -1.51922818      -0.92343210      -0.52246032
O       -2.17537623       0.32200852      -0.24794372
C       -1.16932496       0.69427339       0.70367389
H        2.88584091       0.02679116       0.59941500
H        1.64228341       1.24419517       0.98638220
H        1.61321285       1.29312207      -1.26168551
H        1.39167997      -1.34438632      -0.62595356
H        0.61508283       0.71493527      -1.58440220
H       -0.24753135      -1.22564179       1.25938209
H       -2.11929332      -1.79351677      -0.24167272
H       -1.26777778      -0.99866918      -1.58648596
H       -1.55968233       0.79159194       1.71999693
H       -0.70839384       1.64656161       0.42277501
16
Frame=15 idx=005572 GeodesicLength=1.5963183317974783 rxn_smarts="[C:1]([C:2]([C:3]1([H:12])[C:4]([H:13])([H:14])[O:5][C:6]1([H:15])[H:16])([H:10])[H:11])([H:7])([H:8])[H:9]>>[C:1](=[C:2]([C:3]1([H:12])[C:4]([H:13])([H:14])[O:5][C:6]1([H:15])[H:16])[H:10])([H:7])[H:8].[H:9][H:11]"
C        1.96521612       0.50655364       0.22942501
C        0.98641059      -0.41010724      -0.27086758
C       -0.34477581      -0.57146388       0.40748533
C       -1.51998336      -0.92548072      -0.52031786
O       -2.16427848       0.32882855      -0.25802203
C       -1.16774860       0.68916931       0.70838610
H        2.87222883       0.02731296       0.59955034
H        1.63910079       1.24213251       0.96489321
H        1.62833216       1.35599671      -1.28895687
H        1.39035462      -1.37040891      -0.59789388
H        0.63574921       0.73350260      -1.57896062
H       -0.25761125      -1.23442495       1.26865780
H       -2.13111149      -1.78809937      -0.24012143
H       -1.26282916      -1.00849132      -1.58250267
H       -1.56955676       0.78401572       1.72053208
H       -0.69949742       1.64096439       0.43871308
16
Frame=16 idx=005572 GeodesicLength=1.701733668226565 rxn_smarts="[C:1]([C:2]([C:3]1([H:12])[C:4]([H:13])([H:14])[O:5][C:6]1([H:15])[H:16])([H:10])[H:11])([H:7])([H:8])[H:9]>>[C:1](=[C:2]([C:3]1([H:12])[C:4]([H:13])([H:14])[O:5][C:6]1([H:15])[H:16])[H:10])([H:7])[H:8].[H:9][H:11]"
C        1.96019990       0.50576789       0.20200725
C        0.98226974      -0.43049936      -0.26509191
C       -0.34821337      -0.58097479       0.41656702
C       -1.52077578      -0.92762301      -0.51825090
O       -2.15242894       0.33579066      -0.26876919
C       -1.16608330       0.68416810       0.71266487
H        2.86006209       0.02898014       0.59531419
H        1.63648201       1.23825716       0.94302760
H        1.63998462       1.42505445      -1.31337204
H        1.38900793      -1.39809760      -0.56694009
H        0.65942943       0.75120585      -1.57311689
H       -0.26908250      -1.24328344       1.27883918
H       -2.14354402      -1.78223567      -0.23888471
H       -1.25744845      -1.01882934      -1.57835538
H       -1.57987462       0.77731977       1.72019675
H       -0.68998476       1.63499919       0.45416425
