11
Frame=0 idx=009190 GeodesicLength=0.0 rxn_smarts="[O:1]=[c:2]1[c:3]([H:8])[c:4]([H:9])[n:5]([H:10])[c:6]([H:11])[n:7]1>>[O:1]=[C:2]1[C:3]([H:8])=[C:4]([H:9])[N+:5]2([H:10])[C-:6]([H:11])[N:7]12"
O        2.05047225      -1.40716791      -0.44241797
C        1.12180104      -0.67927793      -0.26131642
C        1.12090559       0.71916990       0.19236025
C       -0.10530845       1.22951758       0.12860169
N       -1.07963855       0.24991799      -0.02603600
C       -0.90991977      -1.11379609       0.61535003
N       -0.21883660      -1.20171015      -0.57165228
H        2.03579433       1.24942888       0.40196734
H       -0.41800730       2.26502470       0.17159637
H       -1.73877097       0.34482433      -0.78793178
H       -1.85849155      -1.65593128       0.57947872
11
Frame=1 idx=009190 GeodesicLength=0.026038839683518642 rxn_smarts="[O:1]=[c:2]1[c:3]([H:8])[c:4]([H:9])[n:5]([H:10])[c:6]([H:11])[n:7]1>>[O:1]=[C:2]1[C:3]([H:8])=[C:4]([H:9])[N+:5]2([H:10])[C-:6]([H:11])[N:7]12"
O        2.05958169      -1.40798252      -0.42982029
C        1.12678680      -0.68298366      -0.25594669
C        1.12226995       0.71759208       0.19262207
C       -0.10511259       1.22602566       0.13471735
N       -1.07956991       0.24741851      -0.02822582
C       -0.91790313      -1.11282611       0.61192593
N       -0.21111856      -1.20395734      -0.56588519
H        2.03783717       1.25728536       0.37425308
H       -0.41835575       2.26105150       0.18199532
H       -1.74813541       0.35295218      -0.77998963
H       -1.86628024      -1.65457564       0.56435385
11
Frame=2 idx=009190 GeodesicLength=0.05213279007645004 rxn_smarts="[O:1]=[c:2]1[c:3]([H:8])[c:4]([H:9])[n:5]([H:10])[c:6]([H:11])[n:7]1>>[O:1]=[C:2]1[C:3]([H:8])=[C:4]([H:9])[N+:5]2([H:10])[C-:6]([H:11])[N:7]12"
O        2.06891500      -1.40874240      -0.41761366
C        1.13191671      -0.68673333      -0.25082058
C        1.12373753       0.71617397       0.19239589
C       -0.10493948       1.22265155       0.14056522
N       -1.07954703       0.24503390      -0.03066388
C       -0.92569127      -1.11168082       0.60854463
N       -0.20337651      -1.20646775      -0.55994107
H        2.03931563       1.26442689       0.34780809
H       -0.41870358       2.25723999       0.19189256
H       -1.75785718       0.36119783      -0.77158671
H       -1.87376982      -1.65309982       0.54941950
11
Frame=3 idx=009190 GeodesicLength=0.07796523129524321 rxn_smarts="[O:1]=[c:2]1[c:3]([H:8])[c:4]([H:9])[n:5]([H:10])[c:6]([H:11])[n:7]1>>[O:1]=[C:2]1[C:3]([H:8])=[C:4]([H:9])[N+:5]2([H:10])[C-:6]([H:11])[N:7]12"
O        2.07794922      -1.40887129      -0.40642339
C        1.13691128      -0.69017446      -0.24622625
C        1.12519797       0.71484626       0.19116123
C       -0.10455551       1.21910671       0.14563198
N       -1.07918962       0.24246424      -0.03342031
C       -0.93314823      -1.11027800       0.60527068
N       -0.19574715      -1.20884196      -0.55362550
H        2.03986824       1.27047951       0.32447222
H       -0.41874054       2.25318736       0.20041330
H       -1.76785857       0.36947459      -0.76243595
H       -1.88068708      -1.65139296       0.53518198
11
Frame=4 idx=009190 GeodesicLength=0.10378676294082019 rxn_smarts="[O:1]=[c:2]1[c:3]([H:8])[c:4]([H:9])[n:5]([H:10])[c:6]([H:11])[n:7]1>>[O:1]=[C:2]1[C:3]([H:8])=[C:4]([H:9])[N+:5]2([H:10])[C-:6]([H:11])[N:7]12"
O        2.08722149      -1.40890182      -0.39591698
C        1.14204195      -0.69367563      -0.24191741
C        1.12669337       0.71363524       0.18948612
C       -0.10424071       1.21570654       0.15031064
N       -1.07891950       0.23999199      -0.03647292
C       -0.94042022      -1.10868605       0.60210630
N       -0.18809761      -1.21152046      -0.54709878
H        2.04011865       1.27583445       0.30283497
H       -0.41882682       2.24935355       0.20822135
H       -1.77824875       0.37784181      -0.75282615
H       -1.88732184      -1.64957961       0.52127286
11
Frame=5 idx=009190 GeodesicLength=0.12959100598433318 rxn_smarts="[O:1]=[c:2]1[c:3]([H:8])[c:4]([H:9])[n:5]([H:10])[c:6]([H:11])[n:7]1>>[O:1]=[C:2]1[C:3]([H:8])=[C:4]([H:9])[N+:5]2([H:10])[C-:6]([H:11])[N:7]12"
O        2.09662036      -1.40880472      -0.38586929
C        1.14724839      -0.69717886      -0.23781903
C        1.12819511       0.71249228       0.18738795
C       -0.10391336       1.21230893       0.15463460
N       -1.07863600       0.23752702      -0.03987260
C       -0.94756520      -1.10693839       0.59895978
N       -0.18044763      -1.21437517      -0.54034327
H        2.04005343       1.28071992       0.28257222
H       -0.41887020       2.24555804       0.21541372
H       -1.78898312       0.38636472      -0.74262294
H       -1.89370178      -1.64767378       0.50755885
11
Frame=6 idx=009190 GeodesicLength=0.15527546171743306 rxn_smarts="[O:1]=[c:2]1[c:3]([H:8])[c:4]([H:9])[n:5]([H:10])[c:6]([H:11])[n:7]1>>[O:1]=[C:2]1[C:3]([H:8])=[C:4]([H:9])[N+:5]2([H:10])[C-:6]([H:11])[N:7]12"
O        2.10602037      -1.40844368      -0.37593100
C        1.15248588      -0.70066497      -0.23368617
C        1.12968005       0.71136561       0.18499258
C       -0.10362790       1.20890051       0.15875476
N       -1.07828256       0.23506887      -0.04369232
C       -0.95469686      -1.10505549       0.59571969
N       -0.17273940      -1.21740975      -0.53328661
H        2.03983842       1.28519792       0.26276408
H       -0.41891033       2.24171826       0.22245681
H       -1.79986581       0.39502720      -0.73187067
H       -1.89990186      -1.64570449       0.49377885
11
Frame=7 idx=009190 GeodesicLength=0.1809362009742104 rxn_smarts="[O:1]=[c:2]1[c:3]([H:8])[c:4]([H:9])[n:5]([H:10])[c:6]([H:11])[n:7]1>>[O:1]=[C:2]1[C:3]([H:8])=[C:4]([H:9])[N+:5]2([H:10])[C-:6]([H:11])[N:7]12"
O        2.11550773      -1.40788730      -0.36675649
C        1.15776261      -0.70410320      -0.22990145
C        1.13113129       0.71026735       0.18215298
C       -0.10326383       1.20543002       0.16232506
N       -1.07785141       0.23252050      -0.04792485
C       -0.96166406      -1.10298809       0.59253789
N       -0.16508091      -1.22054289      -0.52595566
H        2.03926005       1.28919398       0.24502104
H       -0.41884579       2.23786293       0.22849884
H       -1.81115543       0.40385521      -0.72039231
H       -1.90580026      -1.64360852       0.48039496
11
Frame=8 idx=009190 GeodesicLength=0.2065093760842933 rxn_smarts="[O:1]=[c:2]1[c:3]([H:8])[c:4]([H:9])[n:5]([H:10])[c:6]([H:11])[n:7]1>>[O:1]=[C:2]1[C:3]([H:8])=[C:4]([H:9])[N+:5]2([H:10])[C-:6]([H:11])[N:7]12"
O        2.12504771      -1.40708715      -0.35820121
C        1.16308165      -0.70753313      -0.22629154
C        1.13254479       0.70918189       0.17901324
C       -0.10296148       1.20199391       0.16549996
N       -1.07743081       0.22997672      -0.05257085
C       -0.96854196      -1.10074608       0.58938544
N       -0.15740102      -1.22389492      -0.51831606
H        2.03862003       1.29271333       0.22872509
H       -0.41877935       2.23406717       0.23382808
H       -1.82270910       0.41277683      -0.70828381
H       -1.91147046      -1.64144856       0.46721164
11
Frame=9 idx=009190 GeodesicLength=0.23204522594402027 rxn_smarts="[O:1]=[c:2]1[c:3]([H:8])[c:4]([H:9])[n:5]([H:10])[c:6]([H:11])[n:7]1>>[O:1]=[C:2]1[C:3]([H:8])=[C:4]([H:9])[N+:5]2([H:10])[C-:6]([H:11])[N:7]12"
O        2.13471985      -1.40613763      -0.34996658
C        1.16847010      -0.71097874      -0.22274939
C        1.13391873       0.70809220       0.17561184
C       -0.10265182       1.19850773       0.16833039
N       -1.07697580       0.22739762      -0.05776063
C       -0.97540106      -1.09833626       0.58616883
N       -0.14969730      -1.22743043      -0.51037116
H        2.03779616       1.29596345       0.21334119
H       -0.41868608       2.23023626       0.23873795
H       -1.83451225       0.42189820      -0.69541188
H       -1.91698052      -1.63921241       0.45406944
11
Frame=10 idx=009190 GeodesicLength=0.2575274140406024 rxn_smarts="[O:1]=[c:2]1[c:3]([H:8])[c:4]([H:9])[n:5]([H:10])[c:6]([H:11])[n:7]1>>[O:1]=[C:2]1[C:3]([H:8])=[C:4]([H:9])[N+:5]2([H:10])[C-:6]([H:11])[N:7]12"
O        2.14445493      -1.40504185      -0.34192744
C        1.17391237      -0.71444466      -0.21921296
C        1.13525655       0.70699602       0.17196106
C       -0.10237587       1.19497384       0.17082333
N       -1.07647559       0.22477300      -0.06353424
C       -0.98226388      -1.09575739       0.58285450
N       -0.14194033      -1.23115578      -0.50208232
H        2.03689475       1.29898949       0.19859927
H       -0.41861789       2.22634587       0.24342714
H       -1.84651562       0.43123292      -0.68179942
H       -1.92232941      -1.63691145       0.44089108
11
Frame=11 idx=009190 GeodesicLength=0.28297284025630937 rxn_smarts="[O:1]=[c:2]1[c:3]([H:8])[c:4]([H:9])[n:5]([H:10])[c:6]([H:11])[n:7]1>>[O:1]=[C:2]1[C:3]([H:8])=[C:4]([H:9])[N+:5]2([H:10])[C-:6]([H:11])[N:7]12"
O        2.15429086      -1.40384981      -0.33384907
C        1.17942892      -0.71795368      -0.21557046
C        1.13656609       0.70589321       0.16808552
C       -0.10212411       1.19136156       0.17305820
N       -1.07591722       0.22210100      -0.06997391
C       -0.98918570      -1.09301077       0.57937582
N       -0.13410829      -1.23506641      -0.49343676
H        2.03586750       1.30188988       0.18400661
H       -0.41859134       2.22234622       0.24816632
H       -1.85866029       0.44083468      -0.66738707
H       -1.92756642      -1.63454588       0.42752480
11
Frame=12 idx=009190 GeodesicLength=0.30842310129393113 rxn_smarts="[O:1]=[c:2]1[c:3]([H:8])[c:4]([H:9])[n:5]([H:10])[c:6]([H:11])[n:7]1>>[O:1]=[C:2]1[C:3]([H:8])=[C:4]([H:9])[N+:5]2([H:10])[C-:6]([H:11])[N:7]12"
O        2.16428733      -1.40264067      -0.32548226
C        1.18505544      -0.72154758      -0.21170057
C        1.13787312       0.70480029       0.16400017
C       -0.10190760       1.18766140       0.17511654
N       -1.07531655       0.21937601      -0.07717745
C       -0.99623055      -1.09010509       0.57565798
N       -0.12617839      -1.23919433      -0.48441832
H        2.03471515       1.30478848       0.16904199
H       -0.41864621       2.21821955       0.25325814
H       -1.87089491       0.45077981      -0.65210496
H       -1.93275684      -1.63213789       0.41380875
11
Frame=13 idx=009190 GeodesicLength=0.3338165780148082 rxn_smarts="[O:1]=[c:2]1[c:3]([H:8])[c:4]([H:9])[n:5]([H:10])[c:6]([H:11])[n:7]1>>[O:1]=[C:2]1[C:3]([H:8])=[C:4]([H:9])[N+:5]2([H:10])[C-:6]([H:11])[N:7]12"
O        2.17434451      -1.40135818      -0.31665496
C        1.19074636      -0.72518268      -0.20752848
C        1.13914291       0.70369323       0.15967132
C       -0.10171347       1.18382456       0.17701321
N       -1.07459350       0.21661932      -0.08519710
C       -1.00340680      -1.08700309       0.57165108
N       -0.11812388      -1.24344522      -0.47498787
H        2.03335640       1.30764024       0.15339873
H       -0.41875970       2.21384635       0.25893660
H       -1.88314107       0.46100042      -0.63595524
H       -1.93785176      -1.62963496       0.39965271
11
Frame=14 idx=009190 GeodesicLength=0.3591978557072324 rxn_smarts="[O:1]=[c:2]1[c:3]([H:8])[c:4]([H:9])[n:5]([H:10])[c:6]([H:11])[n:7]1>>[O:1]=[C:2]1[C:3]([H:8])=[C:4]([H:9])[N+:5]2([H:10])[C-:6]([H:11])[N:7]12"
O        2.18451531      -1.39994423      -0.30796112
C        1.19650259      -0.72885824      -0.20327875
C        1.14033237       0.70255827       0.15513689
C       -0.10158506       1.17987459       0.17855098
N       -1.07386349       0.21378955      -0.09407155
C       -1.01064383      -1.08366729       0.56745954
N       -0.11001838      -1.24788470      -0.46514434
H        2.03183185       1.31033166       0.13822555
H       -0.41893720       2.20933114       0.26440025
H       -1.89533117       0.47151767      -0.61867261
H       -1.94280298      -1.62704843       0.38535517
11
Frame=15 idx=009190 GeodesicLength=0.3844819633936012 rxn_smarts="[O:1]=[c:2]1[c:3]([H:8])[c:4]([H:9])[n:5]([H:10])[c:6]([H:11])[n:7]1>>[O:1]=[C:2]1[C:3]([H:8])=[C:4]([H:9])[N+:5]2([H:10])[C-:6]([H:11])[N:7]12"
O        2.19471378      -1.39838062      -0.29929289
C        1.20229048      -0.73256079      -0.19886492
C        1.14147329       0.70140831       0.15040887
C       -0.10152191       1.17583264       0.17980669
N       -1.07309041       0.21090610      -0.10377372
C       -1.01797713      -1.08010620       0.56304422
N       -0.10187535      -1.25249719      -0.45481337
H        2.03020901       1.31290055       0.12315469
H       -0.41918674       2.20468499       0.26993570
H       -1.90739194       0.48222403      -0.60044153
H       -1.94764308      -1.62441181       0.37083627
11
Frame=16 idx=009190 GeodesicLength=0.4097484677671843 rxn_smarts="[O:1]=[c:2]1[c:3]([H:8])[c:4]([H:9])[n:5]([H:10])[c:6]([H:11])[n:7]1>>[O:1]=[C:2]1[C:3]([H:8])=[C:4]([H:9])[N+:5]2([H:10])[C-:6]([H:11])[N:7]12"
O        2.20501231      -1.39673358      -0.29050193
C        1.20813776      -0.73631335      -0.19420719
C        1.14254617       0.70023790       0.14552729
C       -0.10154084       1.17166263       0.18085133
N       -1.07231463       0.20799173      -0.11436465
C       -1.02545380      -1.07630798       0.55835872
N       -0.09368887      -1.25724013      -0.44400477
H        2.02838812       1.31540890       0.10783223
H       -0.41952932       2.19985112       0.27568436
H       -1.91915392       0.49314250      -0.58115495
H       -1.95240296      -1.62169974       0.35597957
