11
Frame=0 idx=001476 GeodesicLength=0.0 rxn_smarts="[C:1]([C:2]#[C:3][C:4](=[O:5])[N:6]([H:10])[H:11])([H:7])([H:8])[H:9]>>[C:1]([C:2]([C:3]#[C:4][N:6]([H:10])[H:11])=[O:5])([H:7])([H:8])[H:9]"
C       -1.96058283      -0.30772781       0.10711484
C       -0.54413024       0.03732082       0.38727595
C        0.11076415       1.30742530       0.25247407
C        1.15054136       0.49575309       0.11650438
O        0.31871418      -0.90953093       0.66151542
N        2.29134127       0.16858269      -0.46857354
H       -2.19940490      -0.05211405      -0.92642774
H       -2.59701520       0.31115305       0.74145643
H       -2.15259791      -1.36371775       0.28690848
H        2.89644845      -0.50278751      -0.02963266
H        2.68592164       0.81564306      -1.12861568
11
Frame=1 idx=001476 GeodesicLength=0.1190996028300992 rxn_smarts="[C:1]([C:2]#[C:3][C:4](=[O:5])[N:6]([H:10])[H:11])([H:7])([H:8])[H:9]>>[C:1]([C:2]([C:3]#[C:4][N:6]([H:10])[H:11])=[O:5])([H:7])([H:8])[H:9]"
C       -1.98421340      -0.30221899       0.11043735
C       -0.55862213       0.01642867       0.37171166
C        0.11495810       1.26818722       0.23663010
C        1.16822917       0.47062266       0.11754817
O        0.32836334      -0.93907054       0.66158863
N        2.31916246       0.18381320      -0.47027744
H       -2.22414735      -0.06886283      -0.92814051
H       -2.60573368       0.34567174       0.73058330
H       -2.19848726      -1.34808277       0.32160093
H        2.93613469      -0.48430490      -0.04316523
H        2.70435608       0.85781653      -1.10851697
11
Frame=2 idx=001476 GeodesicLength=0.2380571118686204 rxn_smarts="[C:1]([C:2]#[C:3][C:4](=[O:5])[N:6]([H:10])[H:11])([H:7])([H:8])[H:9]>>[C:1]([C:2]([C:3]#[C:4][N:6]([H:10])[H:11])=[O:5])([H:7])([H:8])[H:9]"
C       -2.00832414      -0.29619995       0.11421821
C       -0.57362641      -0.00581919       0.35463177
C        0.11928751       1.22672576       0.21824820
C        1.18582677       0.44379897       0.11575288
O        0.33836640      -0.97023643       0.66007292
N        2.34786400       0.19986511      -0.47102546
H       -2.25156902      -0.08486558      -0.92833560
H       -2.61278981       0.38030679       0.72065331
H       -2.24466566      -1.33047391       0.35667739
H        2.97699811      -0.46334828      -0.05425800
H        2.72263227       0.90024670      -1.08663561
11
Frame=3 idx=001476 GeodesicLength=0.356760021466893 rxn_smarts="[C:1]([C:2]#[C:3][C:4](=[O:5])[N:6]([H:10])[H:11])([H:7])([H:8])[H:9]>>[C:1]([C:2]([C:3]#[C:4][N:6]([H:10])[H:11])=[O:5])([H:7])([H:8])[H:9]"
C       -2.03264365      -0.28972664       0.11841483
C       -0.58921111      -0.02912507       0.33657827
C        0.12368250       1.18316215       0.19697160
C        1.20331479       0.41543576       0.11098430
O        0.34881367      -1.00247654       0.65811659
N        2.37702741       0.21670144      -0.47106912
H       -2.28110748      -0.10024642      -0.92714399
H       -2.61829292       0.41486275       0.71131746
H       -2.29053706      -1.31101955       0.39201739
H        3.01810400      -0.44101706      -0.06403548
H        2.74084985       0.94344918      -1.06215185
11
Frame=4 idx=001476 GeodesicLength=0.4751667819015981 rxn_smarts="[C:1]([C:2]#[C:3][C:4](=[O:5])[N:6]([H:10])[H:11])([H:7])([H:8])[H:9]>>[C:1]([C:2]([C:3]#[C:4][N:6]([H:10])[H:11])=[O:5])([H:7])([H:8])[H:9]"
C       -2.05707854      -0.28281155       0.12308192
C       -0.60544357      -0.05341749       0.31758577
C        0.12805816       1.13738116       0.17206435
C        1.22068381       0.38551520       0.10279867
O        0.35977117      -1.03551876       0.65617579
N        2.40652201       0.23439675      -0.47045659
H       -2.31273358      -0.11514212      -0.92450506
H       -2.62218423       0.44933466       0.70250521
H       -2.33582059      -1.28972888       0.42784048
H        3.05895612      -0.41798403      -0.07312992
H        2.75926924       0.98797505      -1.03396061
11
Frame=5 idx=001476 GeodesicLength=0.5932959325355716 rxn_smarts="[C:1]([C:2]#[C:3][C:4](=[O:5])[N:6]([H:10])[H:11])([H:7])([H:8])[H:9]>>[C:1]([C:2]([C:3]#[C:4][N:6]([H:10])[H:11])=[O:5])([H:7])([H:8])[H:9]"
C       -2.08159628      -0.27534408       0.12826706
C       -0.62235597      -0.07892501       0.29734719
C        0.13241990       1.08895834       0.14301551
C        1.23800075       0.35374470       0.09078125
O        0.37127524      -1.06959148       0.65392954
N        2.43636100       0.25310038      -0.46895185
H       -2.34666977      -0.12952774      -0.92028595
H       -2.62416872       0.48396446       0.69423057
H       -2.38047047      -1.26636906       0.46452122
H        3.09972509      -0.39392080      -0.08122163
H        2.77747922       1.03391030      -1.00163290
11
Frame=6 idx=001476 GeodesicLength=0.7111376648518581 rxn_smarts="[C:1]([C:2]#[C:3][C:4](=[O:5])[N:6]([H:10])[H:11])([H:7])([H:8])[H:9]>>[C:1]([C:2]([C:3]#[C:4][N:6]([H:10])[H:11])=[O:5])([H:7])([H:8])[H:9]"
C       -2.10616264      -0.26733738       0.13430098
C       -0.64008942      -0.10573615       0.27599097
C        0.13659820       1.03737764       0.10822094
C        1.25510089       0.31970385       0.07342432
O        0.38345310      -1.10463951       0.65132340
N        2.46650259       0.27307311      -0.46668619
H       -2.38297222      -0.14415609      -0.91416006
H       -2.62406254       0.51930412       0.68598131
H       -2.42447046      -1.24056826       0.50320589
H        3.13987347      -0.36966215      -0.08935287
H        2.79622903       1.08264082      -0.96224869
11
Frame=7 idx=001476 GeodesicLength=0.8286610213821008 rxn_smarts="[C:1]([C:2]#[C:3][C:4](=[O:5])[N:6]([H:10])[H:11])([H:7])([H:8])[H:9]>>[C:1]([C:2]([C:3]#[C:4][N:6]([H:10])[H:11])=[O:5])([H:7])([H:8])[H:9]"
C       -2.13045772      -0.25849163       0.14087248
C       -0.65852306      -0.13407017       0.25337153
C        0.14083651       0.98211637       0.06820942
C        1.27228808       0.28300471       0.05097640
O        0.39638601      -1.14082828       0.64870842
N        2.49657425       0.29436284      -0.46313789
H       -2.42145348      -0.15819552      -0.90622085
H       -2.62139689       0.55522820       0.67782849
H       -2.46732303      -1.21207347       0.54321687
H        3.17991747      -0.34401371      -0.09665057
H        2.81315186       1.13296065      -0.91717430
11
Frame=8 idx=001476 GeodesicLength=0.945819507151792 rxn_smarts="[C:1]([C:2]#[C:3][C:4](=[O:5])[N:6]([H:10])[H:11])([H:7])([H:8])[H:9]>>[C:1]([C:2]([C:3]#[C:4][N:6]([H:10])[H:11])=[O:5])([H:7])([H:8])[H:9]"
C       -2.15448909      -0.24880999       0.14875378
C       -0.67789514      -0.16405320       0.22949995
C        0.14475758       0.92205458       0.01934218
C        1.28909190       0.24253984       0.01940026
O        0.41036090      -1.17799257       0.64557512
N        2.52673099       0.31764804      -0.45809914
H       -2.46260721      -0.17311983      -0.89554289
H       -2.61568005       0.59277027       0.66898085
H       -2.50899319      -1.17999129       0.58692965
H        3.21912554      -0.31820258      -0.10457690
H        2.82959778       1.18715673      -0.86026286
11
Frame=9 idx=001476 GeodesicLength=1.0626010648212478 rxn_smarts="[C:1]([C:2]#[C:3][C:4](=[O:5])[N:6]([H:10])[H:11])([H:7])([H:8])[H:9]>>[C:1]([C:2]([C:3]#[C:4][N:6]([H:10])[H:11])=[O:5])([H:7])([H:8])[H:9]"
C       -2.17738871      -0.23757486       0.15705092
C       -0.69768837      -0.19612332       0.20469123
C        0.14916689       0.85639430      -0.03496911
C        1.30640865       0.19745013      -0.01951568
O        0.42559572      -1.21692100       0.64250222
N        2.55554060       0.34238315      -0.45110474
H       -2.50522665      -0.18635783      -0.88276024
H       -2.60598796       0.63151809       0.65968224
H       -2.54862863      -1.14403793       0.63183218
H        3.25862779      -0.28857303      -0.11031640
H        2.83958066       1.24184231      -0.79709261
11
Frame=10 idx=001476 GeodesicLength=1.178527158899499 rxn_smarts="[C:1]([C:2]#[C:3][C:4](=[O:5])[N:6]([H:10])[H:11])([H:7])([H:8])[H:9]>>[C:1]([C:2]([C:3]#[C:4][N:6]([H:10])[H:11])=[O:5])([H:7])([H:8])[H:9]"
C       -2.19874299      -0.22456986       0.16715482
C       -0.71795236      -0.23005893       0.17943479
C        0.15367086       0.78352114      -0.09896547
C        1.32318207       0.14468826      -0.07589246
O        0.44299640      -1.25758497       0.63709815
N        2.58278458       0.36956742      -0.44065731
H       -2.54951046      -0.19960720      -0.86614797
H       -2.59113671       0.67297748       0.64898295
H       -2.58570863      -1.10255956       0.68133988
H        3.29722338      -0.25508449      -0.11229114
H        2.84319386       1.29871072      -0.72005623
11
Frame=11 idx=001476 GeodesicLength=1.2940004665365112 rxn_smarts="[C:1]([C:2]#[C:3][C:4](=[O:5])[N:6]([H:10])[H:11])([H:7])([H:8])[H:9]>>[C:1]([C:2]([C:3]#[C:4][N:6]([H:10])[H:11])=[O:5])([H:7])([H:8])[H:9]"
C       -2.21685054      -0.20916880       0.17747017
C       -0.73744052      -0.26594906       0.15396353
C        0.15903762       0.70352884      -0.16776235
C        1.34145615       0.08627582      -0.14188123
O        0.46358091      -1.30013345       0.63063708
N        2.60469356       0.39788442      -0.42675848
H       -2.59299446      -0.21072894      -0.84718624
H       -2.57002899       0.71646562       0.63598178
H       -2.61827793      -1.05535669       0.73237108
H        3.33387478      -0.21648857      -0.11190346
H        2.83294944       1.35367080      -0.63493189
11
Frame=12 idx=001476 GeodesicLength=1.4092207747788672 rxn_smarts="[C:1]([C:2]#[C:3][C:4](=[O:5])[N:6]([H:10])[H:11])([H:7])([H:8])[H:9]>>[C:1]([C:2]([C:3]#[C:4][N:6]([H:10])[H:11])=[O:5])([H:7])([H:8])[H:9]"
C       -2.23092078      -0.19151180       0.18648229
C       -0.75572660      -0.30367292       0.12904226
C        0.16504682       0.61709742      -0.23723409
C        1.36331373       0.02856805      -0.20012021
O        0.48717751      -1.34571550       0.62297462
N        2.61879002       0.42630316      -0.41034030
H       -2.63334624      -0.21875716      -0.82781078
H       -2.54282130       0.76098839       0.61921196
H       -2.64593193      -1.00291015       0.78199087
H        3.36797031      -0.17366810      -0.11549472
H        2.80644847       1.40327863      -0.54870190
11
Frame=13 idx=001476 GeodesicLength=1.5243509945192752 rxn_smarts="[C:1]([C:2]#[C:3][C:4](=[O:5])[N:6]([H:10])[H:11])([H:7])([H:8])[H:9]>>[C:1]([C:2]([C:3]#[C:4][N:6]([H:10])[H:11])=[O:5])([H:7])([H:8])[H:9]"
C       -2.24085818      -0.17119444       0.19487969
C       -0.77329166      -0.34392995       0.10383051
C        0.17118958       0.52148130      -0.31085930
C        1.38841847      -0.02858883      -0.25111501
O        0.51307397      -1.39698418       0.61054163
N        2.62529591       0.45574913      -0.39170346
H       -2.67199374      -0.22594214      -0.80644492
H       -2.50795019       0.80816243       0.59649430
H       -2.66805130      -0.94222084       0.83395627
H        3.39943086      -0.12464569      -0.12345439
H        2.76473629       1.44811322      -0.45612532
11
Frame=14 idx=001476 GeodesicLength=1.639236299558736 rxn_smarts="[C:1]([C:2]#[C:3][C:4](=[O:5])[N:6]([H:10])[H:11])([H:7])([H:8])[H:9]>>[C:1]([C:2]([C:3]#[C:4][N:6]([H:10])[H:11])=[O:5])([H:7])([H:8])[H:9]"
C       -2.24620697      -0.14803391       0.20263068
C       -0.78970262      -0.38464371       0.08386721
C        0.17835672       0.41930798      -0.37794392
C        1.41584265      -0.08449689      -0.29367441
O        0.54075906      -1.45935930       0.58703586
N        2.62393847       0.48522714      -0.37134351
H       -2.70508246      -0.22941979      -0.78448466
H       -2.46711245       0.85640046       0.56885938
H       -2.68521756      -0.87466683       0.88439226
H        3.42658027      -0.06610174      -0.12643803
H        2.70784489       1.48578659      -0.37290086
11
Frame=15 idx=001476 GeodesicLength=1.7544157758924455 rxn_smarts="[C:1]([C:2]#[C:3][C:4](=[O:5])[N:6]([H:10])[H:11])([H:7])([H:8])[H:9]>>[C:1]([C:2]([C:3]#[C:4][N:6]([H:10])[H:11])=[O:5])([H:7])([H:8])[H:9]"
C       -2.24622159      -0.12173572       0.20996298
C       -0.80476555      -0.42666087       0.06720210
C        0.18682476       0.31008809      -0.43820387
C        1.44498944      -0.13980303      -0.32812005
O        0.56965370      -1.53462620       0.55162594
N        2.61455058       0.51424892      -0.35017630
H       -2.73317149      -0.22523793      -0.76151371
H       -2.41824328       0.90454523       0.54000440
H       -2.69640100      -0.80165253       0.93155726
H        3.44706385       0.00374569      -0.11642173
H        2.63572058       1.51708838      -0.30591703
11
Frame=16 idx=001476 GeodesicLength=1.869801722874917 rxn_smarts="[C:1]([C:2]#[C:3][C:4](=[O:5])[N:6]([H:10])[H:11])([H:7])([H:8])[H:9]>>[C:1]([C:2]([C:3]#[C:4][N:6]([H:10])[H:11])=[O:5])([H:7])([H:8])[H:9]"
C       -2.24360037      -0.09545587       0.21252953
C       -0.81922579      -0.46676038       0.05723604
C        0.19636109       0.20433592      -0.47712070
C        1.47383399      -0.19082414      -0.35260802
O        0.60170660      -1.60680299       0.52974602
N        2.59837216       0.54223039      -0.33460682
H       -2.75307957      -0.21896125      -0.74494691
H       -2.37010662       0.94864517       0.50506797
H       -2.70546078      -0.72817613       0.96892289
H        3.46293375       0.07221029      -0.13569391
H        2.55826553       1.53955898      -0.22852610
