14
Frame=0 idx=009495 GeodesicLength=0.0 rxn_smarts="[C:1]([N:2]([c:3]1[n:4][n:5]([H:12])[c:6]([H:13])[c:7]1[H:14])[H:11])([H:8])([H:9])[H:10]>>[C:1]([N:2]([C:3]1=[N:4][N+:5]([H:12])=[C-:6][C:7]1([H:13])[H:14])[H:11])([H:8])([H:9])[H:10]"
C        2.12633142       0.07519868       0.32316426
N        1.15101206       0.08364431      -0.74482002
C       -0.18644719       0.10010702      -0.43590931
N       -1.08975785       0.56451164      -1.25689640
N       -2.27721575       0.34558298      -0.63846227
C       -2.24146329      -0.15534937       0.61296969
C       -0.82854778      -0.39046421       0.75692273
H        2.04826048      -0.84897759       0.89887757
H        3.12344840       0.10048793      -0.11320772
H        2.02464142       0.92299043       1.01196989
H        1.37431954       0.66596192      -1.53464453
H       -3.10946903       0.59816989      -1.13871288
H       -1.75086495      -1.33513360       0.58691368
H       -0.36424748      -0.72673004       1.67183532
14
Frame=1 idx=009495 GeodesicLength=0.03769838342243709 rxn_smarts="[C:1]([N:2]([c:3]1[n:4][n:5]([H:12])[c:6]([H:13])[c:7]1[H:14])[H:11])([H:8])([H:9])[H:10]>>[C:1]([N:2]([C:3]1=[N:4][N+:5]([H:12])=[C-:6][C:7]1([H:13])[H:14])[H:11])([H:8])([H:9])[H:10]"
C        2.12702559       0.07182436       0.32196478
N        1.15038238       0.08973760      -0.74448217
C       -0.18661525       0.10550392      -0.43539957
N       -1.08866795       0.57373200      -1.25556907
N       -2.27781619       0.34650148      -0.63979762
C       -2.24012305      -0.15720185       0.60838807
C       -0.82829328      -0.39482668       0.75461921
H        2.04456506      -0.85444189       0.89366129
H        3.12370466       0.09413177      -0.11563597
H        2.03083620       0.91735049       1.01433083
H        1.37462607       0.67512346      -1.53177567
H       -3.11065632       0.58765230      -1.14479956
H       -1.75475031      -1.34869292       0.59614270
H       -0.36421763      -0.70639405       1.67835275
14
Frame=2 idx=009495 GeodesicLength=0.07538265108507333 rxn_smarts="[C:1]([N:2]([c:3]1[n:4][n:5]([H:12])[c:6]([H:13])[c:7]1[H:14])[H:11])([H:8])([H:9])[H:10]>>[C:1]([N:2]([C:3]1=[N:4][N+:5]([H:12])=[C-:6][C:7]1([H:13])[H:14])[H:11])([H:8])([H:9])[H:10]"
C        2.12767088       0.06860690       0.32078354
N        1.14980754       0.09562649      -0.74414630
C       -0.18676001       0.11048529      -0.43501107
N       -1.08751427       0.58299174      -1.25412278
N       -2.27832434       0.34764191      -0.64100186
C       -2.23867401      -0.15910043       0.60381746
C       -0.82795900      -0.39955414       0.75220608
H        2.04094959      -0.85962507       0.88861482
H        3.12391910       0.08807652      -0.11799788
H        2.03675060       0.91190880       1.01655994
H        1.37495694       0.68396428      -1.52898200
H       -3.11155102       0.57757094      -1.15068997
H       -1.75889943      -1.36233367       0.60572843
H       -0.36437256      -0.68625957       1.68424160
14
Frame=3 idx=009495 GeodesicLength=0.11307351892790495 rxn_smarts="[C:1]([N:2]([c:3]1[n:4][n:5]([H:12])[c:6]([H:13])[c:7]1[H:14])[H:11])([H:8])([H:9])[H:10]>>[C:1]([N:2]([C:3]1=[N:4][N+:5]([H:12])=[C-:6][C:7]1([H:13])[H:14])[H:11])([H:8])([H:9])[H:10]"
C        2.12824021       0.06574651       0.31967938
N        1.14934161       0.10107517      -0.74386027
C       -0.18685692       0.11462628      -0.43491749
N       -1.08624566       0.59201793      -1.25267055
N       -2.27868252       0.34915984      -0.64199807
C       -2.23704970      -0.16095175       0.59931561
C       -0.82752253      -0.40490231       0.74959000
H        2.03756028      -0.86426105       0.88395314
H        3.12410459       0.08269271      -0.12014181
H        2.04207864       0.90697354       1.01856965
H        1.37533231       0.69209810      -1.52644242
H       -3.11210302       0.56865016      -1.15606501
H       -1.76354728      -1.37607859       0.61565456
H       -0.36465001      -0.66684656       1.68933331
14
Frame=4 idx=009495 GeodesicLength=0.15072043082870923 rxn_smarts="[C:1]([N:2]([c:3]1[n:4][n:5]([H:12])[c:6]([H:13])[c:7]1[H:14])[H:11])([H:8])([H:9])[H:10]>>[C:1]([N:2]([C:3]1=[N:4][N+:5]([H:12])=[C-:6][C:7]1([H:13])[H:14])[H:11])([H:8])([H:9])[H:10]"
C        2.12878056       0.06295840       0.31857383
N        1.14890584       0.10641660      -0.74356122
C       -0.18694244       0.11853123      -0.43488531
N       -1.08492641       0.60120556      -1.25103661
N       -2.27898250       0.35084808      -0.64288372
C       -2.23536229      -0.16287054       0.59479201
C       -0.82703085      -0.41041390       0.74692537
H        2.03421000      -0.86874698       0.87935256
H        3.12426062       0.07747193      -0.12226368
H        2.04724498       0.90209765       1.02050780
H        1.37572423       0.70006699      -1.52391009
H       -3.11242212       0.55980213      -1.16142090
H       -1.76834766      -1.38981889       0.62600752
H       -0.36511197      -0.64754825       1.69380243
14
Frame=5 idx=009495 GeodesicLength=0.18839468458042857 rxn_smarts="[C:1]([N:2]([c:3]1[n:4][n:5]([H:12])[c:6]([H:13])[c:7]1[H:14])[H:11])([H:8])([H:9])[H:10]>>[C:1]([N:2]([C:3]1=[N:4][N+:5]([H:12])=[C-:6][C:7]1([H:13])[H:14])[H:11])([H:8])([H:9])[H:10]"
C        2.12927893       0.06034703       0.31750273
N        1.14852361       0.11153222      -0.74328587
C       -0.18700739       0.12198846      -0.43501147
N       -1.08353949       0.61040030      -1.24931627
N       -2.27920634       0.35275526      -0.64366287
C       -2.23358561      -0.16482704       0.59026615
C       -0.82647483      -0.41620016       0.74418337
H        2.03097699      -0.87296092       0.87494048
H        3.12439423       0.07260249      -0.12428772
H        2.05209688       0.89745998       1.02234484
H        1.37613520       0.70768306      -1.52150260
H       -3.11249031       0.55147974      -1.16659179
H       -1.77339361      -1.40358735       0.63681027
H       -0.36570825      -0.62867307       1.69761075
14
Frame=6 idx=009495 GeodesicLength=0.2260243890619048 rxn_smarts="[C:1]([N:2]([c:3]1[n:4][n:5]([H:12])[c:6]([H:13])[c:7]1[H:14])[H:11])([H:8])([H:9])[H:10]>>[C:1]([N:2]([C:3]1=[N:4][N+:5]([H:12])=[C-:6][C:7]1([H:13])[H:14])[H:11])([H:8])([H:9])[H:10]"
C        2.12971959       0.05804315       0.31650311
N        1.14823114       0.11626986      -0.74305045
C       -0.18703404       0.12474095      -0.43540059
N       -1.08204274       0.61941792      -1.24755996
N       -2.27931273       0.35498104      -0.64427346
C       -2.23168532      -0.16677255       0.58575104
C       -0.82585041      -0.42240174       0.74128173
H        2.02794876      -0.87671097       0.87084559
H        3.12451964       0.06831631      -0.12610405
H        2.05644536       0.89325375       1.02400386
H        1.37658749       0.71467486      -1.51931349
H       -3.11229983       0.54412126      -1.17134267
H       -1.77883113      -1.41735990       0.64803270
H       -0.36639578      -0.61057393       1.70062665
14
Frame=7 idx=009495 GeodesicLength=0.2636675465888103 rxn_smarts="[C:1]([N:2]([c:3]1[n:4][n:5]([H:12])[c:6]([H:13])[c:7]1[H:14])[H:11])([H:8])([H:9])[H:10]>>[C:1]([N:2]([C:3]1=[N:4][N+:5]([H:12])=[C-:6][C:7]1([H:13])[H:14])[H:11])([H:8])([H:9])[H:10]"
C        2.13013493       0.05579881       0.31550777
N        1.14795820       0.12092495      -0.74282021
C       -0.18705840       0.12728660      -0.43587194
N       -1.08050477       0.62856668      -1.24566878
N       -2.27938700       0.35731349      -0.64484466
C       -2.22975445      -0.16881872       0.58117156
C       -0.82518901      -0.42863880       0.73837741
H        2.02496218      -0.88036764       0.86679140
H        3.12462523       0.06419014      -0.12789154
H        2.06063821       0.88909466       1.02564001
H        1.37704517       0.72155047      -1.51715227
H       -3.11190987       0.53690426      -1.17611035
H       -1.78434013      -1.43108974       0.65980011
H       -0.36722031      -0.59271516       1.70307150
14
Frame=8 idx=009495 GeodesicLength=0.30131209499849676 rxn_smarts="[C:1]([N:2]([c:3]1[n:4][n:5]([H:12])[c:6]([H:13])[c:7]1[H:14])[H:11])([H:8])([H:9])[H:10]>>[C:1]([N:2]([C:3]1=[N:4][N+:5]([H:12])=[C-:6][C:7]1([H:13])[H:14])[H:11])([H:8])([H:9])[H:10]"
C        2.13054799       0.05342223       0.31445603
N        1.14765503       0.12572213      -0.74255520
C       -0.18710602       0.13000165      -0.43627919
N       -1.07897431       0.63813935      -1.24351012
N       -2.27948280       0.35962447      -0.64545958
C       -2.22786351      -0.17102417       0.57646671
C       -0.82451380      -0.43460931       0.73557870
H        2.02188553      -0.88420032       0.86254917
H        3.12469940       0.05989772      -0.12979400
H        2.06494192       0.88467176       1.02734938
H        1.37748926       0.72868504      -1.51484866
H       -3.11135961       0.52908612      -1.18125532
H       -1.78969138      -1.44469822       0.67220627
H       -0.36822769      -0.57471845       1.70509582
14
Frame=9 idx=009495 GeodesicLength=0.3389712442361517 rxn_smarts="[C:1]([N:2]([c:3]1[n:4][n:5]([H:12])[c:6]([H:13])[c:7]1[H:14])[H:11])([H:8])([H:9])[H:10]>>[C:1]([N:2]([C:3]1=[N:4][N+:5]([H:12])=[C-:6][C:7]1([H:13])[H:14])[H:11])([H:8])([H:9])[H:10]"
C        2.13095646       0.05077862       0.31330051
N        1.14727722       0.13083149      -0.74223627
C       -0.18720599       0.13310488      -0.43654699
N       -1.07750160       0.64826244      -1.24103296
N       -2.27966750       0.36170118      -0.64625104
C       -2.22605622      -0.17344933       0.57156959
C       -0.82383576      -0.44010079       0.73296540
H        2.01861593      -0.88840475       0.85793741
H        3.12471179       0.05522848      -0.13191387
H        2.06950783       0.87974509       1.02921383
H        1.37788398       0.73640008      -1.51225903
H       -3.11053044       0.52031930      -1.18695160
H       -1.79470667      -1.45814338       0.68538692
H       -0.36944903      -0.55627330       1.70681810
14
Frame=10 idx=009495 GeodesicLength=0.37660413672258386 rxn_smarts="[C:1]([N:2]([c:3]1[n:4][n:5]([H:12])[c:6]([H:13])[c:7]1[H:14])[H:11])([H:8])([H:9])[H:10]>>[C:1]([N:2]([C:3]1=[N:4][N+:5]([H:12])=[C-:6][C:7]1([H:13])[H:14])[H:11])([H:8])([H:9])[H:10]"
C        2.13132804       0.04815951       0.31213062
N        1.14691135       0.13590277      -0.74192311
C       -0.18730737       0.13603006      -0.43690519
N       -1.07599817       0.65852922      -1.23840102
N       -2.27980974       0.36382590      -0.64705711
C       -2.22423196      -0.17601702       0.56655350
C       -0.82312467      -0.44552978       0.73037404
H        2.01535673      -0.89257106       0.85329188
H        3.12468833       0.05068985      -0.13402725
H        2.07392201       0.87478086       1.03108005
H        1.37827789       0.74410271      -1.50964138
H       -3.10950527       0.51164915      -1.19274086
H       -1.79970622      -1.47147679       0.69923813
H       -0.37080096      -0.53807538       1.70802770
14
Frame=11 idx=009495 GeodesicLength=0.4142644436869288 rxn_smarts="[C:1]([N:2]([c:3]1[n:4][n:5]([H:12])[c:6]([H:13])[c:7]1[H:14])[H:11])([H:8])([H:9])[H:10]>>[C:1]([N:2]([C:3]1=[N:4][N+:5]([H:12])=[C-:6][C:7]1([H:13])[H:14])[H:11])([H:8])([H:9])[H:10]"
C        2.13168058       0.04541338       0.31089620
N        1.14652015       0.14112337      -0.74158801
C       -0.18743841       0.13903940      -0.43725850
N       -1.07451625       0.66911043      -1.23554379
N       -2.27998479       0.36582330      -0.64798398
C       -2.22245456      -0.17879362       0.56135492
C       -0.82239774      -0.45067472       0.72788847
H        2.01200968      -0.89692053       0.84841941
H        3.12462267       0.04603362      -0.13624916
H        2.07838800       0.86952752       1.03303087
H        1.37864956       0.75213705      -1.50683920
H       -3.10823728       0.50261615      -1.19886330
H       -1.80451501      -1.48465999       0.71388194
H       -0.37232660      -0.51977536       1.70885413
14
Frame=12 idx=009495 GeodesicLength=0.4519280773775359 rxn_smarts="[C:1]([N:2]([c:3]1[n:4][n:5]([H:12])[c:6]([H:13])[c:7]1[H:14])[H:11])([H:8])([H:9])[H:10]>>[C:1]([N:2]([C:3]1=[N:4][N+:5]([H:12])=[C-:6][C:7]1([H:13])[H:14])[H:11])([H:8])([H:9])[H:10]"
C        2.13201672       0.04241810       0.30955432
N        1.14607241       0.14664632      -0.74120868
C       -0.18761545       0.14233573      -0.43753431
N       -1.07309591       0.68012894      -1.23241622
N       -2.28021851       0.36758015      -0.64911712
C       -2.22075115      -0.18180964       0.55593629
C       -0.82166075      -0.45536528       0.72557612
H        2.00848981      -0.90162998       0.84315560
H        3.12449080       0.04107531      -0.13867726
H        2.08304616       0.86376449       1.03514028
H        1.37897766       0.76079223      -1.50371534
H       -3.10669336       0.49281498      -1.20552441
H       -1.80899955      -1.49761859       0.72943749
H       -0.37405888      -0.50113275       1.70939325
14
Frame=13 idx=009495 GeodesicLength=0.48960939329199327 rxn_smarts="[C:1]([N:2]([c:3]1[n:4][n:5]([H:12])[c:6]([H:13])[c:7]1[H:14])[H:11])([H:8])([H:9])[H:10]>>[C:1]([N:2]([C:3]1=[N:4][N+:5]([H:12])=[C-:6][C:7]1([H:13])[H:14])[H:11])([H:8])([H:9])[H:10]"
C        2.13233569       0.03905458       0.30805652
N        1.14554529       0.15262342      -0.74076384
C       -0.18785435       0.14606621      -0.43768254
N       -1.07177348       0.69165749      -1.22896814
N       -2.28053322       0.36902065      -0.65050670
C       -2.21914042      -0.18508452       0.55025603
C       -0.82091608      -0.45946734       0.72348901
H        2.00471798      -0.90687775       0.83731119
H        3.12427080       0.03566627      -0.14140441
H        2.08800931       0.85725532       1.03748229
H        1.37924383       0.77038050      -1.50010743
H       -3.10481664       0.48185702      -1.21294062
H       -1.81306001      -1.51027758       0.74604898
H       -0.37602871      -0.48187426       1.70972967
14
Frame=14 idx=009495 GeodesicLength=0.527311202601087 rxn_smarts="[C:1]([N:2]([c:3]1[n:4][n:5]([H:12])[c:6]([H:13])[c:7]1[H:14])[H:11])([H:8])([H:9])[H:10]>>[C:1]([N:2]([C:3]1=[N:4][N+:5]([H:12])=[C-:6][C:7]1([H:13])[H:14])[H:11])([H:8])([H:9])[H:10]"
C        2.13261659       0.03550953       0.30645876
N        1.14498710       0.15883665      -0.74029022
C       -0.18813005       0.14988720      -0.43784840
N       -1.07050153       0.70346318      -1.22530242
N       -2.28087308       0.37029007      -0.65207138
C       -2.21756596      -0.18857836       0.54435615
C       -0.82014917      -0.46323790       0.72152260
H        2.00082196      -0.91240457       0.83109421
H        3.12398058       0.03012836      -0.14428848
H        2.09301621       0.85029779       1.03996178
H        1.37947515       0.78051342      -1.49618728
H       -3.10259258       0.47040716      -1.22079437
H       -1.81690357      -1.52265910       0.76365858
H       -0.37818165      -0.46245342       1.70973048
14
Frame=15 idx=009495 GeodesicLength=0.5650227992911859 rxn_smarts="[C:1]([N:2]([c:3]1[n:4][n:5]([H:12])[c:6]([H:13])[c:7]1[H:14])[H:11])([H:8])([H:9])[H:10]>>[C:1]([N:2]([C:3]1=[N:4][N+:5]([H:12])=[C-:6][C:7]1([H:13])[H:14])[H:11])([H:8])([H:9])[H:10]"
C        2.13284889       0.03189664       0.30479620
N        1.14442583       0.16515546      -0.73980973
C       -0.18842736       0.15360521      -0.43811675
N       -1.06925177       0.71538831      -1.22148604
N       -2.28120696       0.37148335      -0.65375672
C       -2.21599413      -0.19229194       0.53824706
C       -0.81935246      -0.46684464       0.71960686
H        1.99688011      -0.91805392       0.82463266
H        3.12363400       0.02465291      -0.14724201
H        2.09791542       0.84307653       1.04252143
H        1.37968741       0.79095340      -1.49206144
H       -3.10002636       0.45888774      -1.22889231
H       -1.82064992      -1.53477191       0.78223138
H       -0.38048270      -0.44313715       1.70932940
14
Frame=16 idx=009495 GeodesicLength=0.6027384178585954 rxn_smarts="[C:1]([N:2]([c:3]1[n:4][n:5]([H:12])[c:6]([H:13])[c:7]1[H:14])[H:11])([H:8])([H:9])[H:10]>>[C:1]([N:2]([C:3]1=[N:4][N+:5]([H:12])=[C-:6][C:7]1([H:13])[H:14])[H:11])([H:8])([H:9])[H:10]"
C        2.13302691       0.02831522       0.30310190
N        1.14388432       0.17146242      -0.73934072
C       -0.18873254       0.15706918      -0.43855334
N       -1.06799653       0.72731012      -1.21756754
N       -2.28151058       0.37268357      -0.65551018
C       -2.21440053      -0.19624489       0.53192758
C       -0.81852120      -0.47043249       0.71767865
H        1.99296071      -0.92368567       0.81804904
H        3.12324710       0.01939507      -0.15018702
H        2.10258665       0.83576292       1.04510653
H        1.37989548       0.80147545      -1.48783466
H       -3.09714473       0.44767087      -1.23706410
H       -1.82439008      -1.54663292       0.80171866
H       -0.38290499      -0.42414886       1.70847520
