15
Frame=0 idx=008744 GeodesicLength=0.0 rxn_smarts="[N:1]([C:2](=[O:3])[N:4]([C:5]([C:6]([O:7][H:15])([H:13])[H:14])([H:11])[H:12])[H:10])([H:8])[H:9]>>[N:1](/[C:2]([O:3][H:10])=[N:4]\[C:5]([C:6]([O:7][H:15])([H:13])[H:14])([H:11])[H:12])([H:8])[H:9]"
N        1.34070948       1.40347648       0.07538070
C        1.20485460       0.53300740      -0.93547930
O        2.03007795       0.45674258      -1.92332113
N        0.26334699      -0.36224697      -1.15480292
C       -1.00152902      -0.53611503      -0.49247067
C       -0.92076271      -0.95729019       0.96936571
O       -0.55220407       0.11085167       1.84185730
H        2.20287299       1.91403708       0.12159416
H        0.83407982       1.20506987       0.92673300
H        1.11217873      -0.39703750      -2.18103478
H       -1.54044456      -1.31562038      -1.03571771
H       -1.61908174       0.37284950      -0.56018388
H       -0.15586236      -1.72490766       1.09187290
H       -1.88073510      -1.37779636       1.28877652
H       -1.31750107       0.67497952       1.96743010
15
Frame=1 idx=008744 GeodesicLength=0.09591227449147502 rxn_smarts="[N:1]([C:2](=[O:3])[N:4]([C:5]([C:6]([O:7][H:15])([H:13])[H:14])([H:11])[H:12])[H:10])([H:8])[H:9]>>[N:1](/[C:2]([O:3][H:10])=[N:4]\[C:5]([C:6]([O:7][H:15])([H:13])[H:14])([H:11])[H:12])([H:8])[H:9]"
N        1.39423790       1.36257302       0.11788772
C        1.18707211       0.55605874      -0.93384887
O        1.92898284       0.58837070      -1.98832335
N        0.28487640      -0.38245675      -1.12650153
C       -0.99126832      -0.56540626      -0.48939860
C       -0.93919880      -0.95095109       0.98292580
O       -0.61314878       0.12781444       1.85396733
H        2.23758312       1.90542480       0.11842098
H        0.95756290       1.10563035       0.99076758
H        1.08825756      -0.37377215      -2.19472231
H       -1.50078560      -1.36903519      -1.02658208
H       -1.62948520       0.32471661      -0.59553600
H       -0.16856660      -1.70808424       1.13722643
H       -1.90087456      -1.37934125       1.28630082
H       -1.33524496       0.75845827       1.86741610
15
Frame=2 idx=008744 GeodesicLength=0.19219770986767137 rxn_smarts="[N:1]([C:2](=[O:3])[N:4]([C:5]([C:6]([O:7][H:15])([H:13])[H:14])([H:11])[H:12])[H:10])([H:8])[H:9]>>[N:1](/[C:2]([O:3][H:10])=[N:4]\[C:5]([C:6]([O:7][H:15])([H:13])[H:14])([H:11])[H:12])([H:8])[H:9]"
N        1.45101369       1.31582233       0.16019898
C        1.16174681       0.58336445      -0.92669836
O        1.81478066       0.71895607      -2.03085329
N        0.30246674      -0.39627324      -1.10374671
C       -0.98180606      -0.59831419      -0.48864212
C       -0.95626110      -0.94045869       0.99469524
O       -0.67189029       0.15427606       1.85549367
H        2.27801539       1.88208381       0.12602002
H        1.07255044       1.00517214       1.04180833
H        1.06255128      -0.33852946      -2.20787735
H       -1.45517525      -1.43162021      -1.01428468
H       -1.64613268       0.26580534      -0.63609285
H       -0.17955480      -1.68473722       1.18264045
H       -1.91816168      -1.37651667       1.28616278
H       -1.33414316       0.84096950       1.76117588
15
Frame=3 idx=008744 GeodesicLength=0.2896082103314628 rxn_smarts="[N:1]([C:2](=[O:3])[N:4]([C:5]([C:6]([O:7][H:15])([H:13])[H:14])([H:11])[H:12])[H:10])([H:8])[H:9]>>[N:1](/[C:2]([O:3][H:10])=[N:4]\[C:5]([C:6]([O:7][H:15])([H:13])[H:14])([H:11])[H:12])([H:8])[H:9]"
N        1.50926614       1.26391834       0.19883756
C        1.13301059       0.61015925      -0.91230513
O        1.69730839       0.84312327      -2.04866761
N        0.31596815      -0.40465971      -1.08655773
C       -0.97274579      -0.63304935      -0.48914354
C       -0.97212339      -0.92690540       1.00446285
O       -0.72881849       0.18743594       1.84787301
H        2.31986600       1.85083288       0.13695067
H        1.17693854       0.90736651       1.08077285
H        1.03204600      -0.29075896      -2.22184447
H       -1.40551826      -1.49829092      -0.99836752
H       -1.66546121       0.19943846      -0.67864604
H       -0.18924681      -1.65605929       1.22710502
H       -1.93290591      -1.37070062       1.28731942
H       -1.31758396       0.91814960       1.65221066
15
Frame=4 idx=008744 GeodesicLength=0.3882886916241222 rxn_smarts="[N:1]([C:2](=[O:3])[N:4]([C:5]([C:6]([O:7][H:15])([H:13])[H:14])([H:11])[H:12])[H:10])([H:8])[H:9]>>[N:1](/[C:2]([O:3][H:10])=[N:4]\[C:5]([C:6]([O:7][H:15])([H:13])[H:14])([H:11])[H:12])([H:8])[H:9]"
N        1.56691492       1.21044856       0.23114380
C        1.10480860       0.63360246      -0.89137557
O        1.58019326       0.95961725      -2.04533031
N        0.32645506      -0.40943636      -1.07365304
C       -0.96383287      -0.66782119      -0.49019434
C       -0.98745958      -0.91156504       1.01212538
O       -0.78460809       0.22429210       1.83289843
H        2.36169293       1.81573672       0.14685693
H        1.27117481       0.81627355       1.10933307
H        0.99793252      -0.23549170      -2.23502651
H       -1.35401599      -1.56440663      -0.97958336
H       -1.68408410       0.12967291      -0.72070762
H       -0.19868914      -1.62373059       1.26962293
H       -1.94626018      -1.36349151       1.28828403
H       -1.29022214       0.98629946       1.54560619
15
Frame=5 idx=008744 GeodesicLength=0.48815808335695254 rxn_smarts="[N:1]([C:2](=[O:3])[N:4]([C:5]([C:6]([O:7][H:15])([H:13])[H:14])([H:11])[H:12])[H:10])([H:8])[H:9]>>[N:1](/[C:2]([O:3][H:10])=[N:4]\[C:5]([C:6]([O:7][H:15])([H:13])[H:14])([H:11])[H:12])([H:8])[H:9]"
N        1.62256467       1.15601462       0.25679026
C        1.07956252       0.65176510      -0.86583403
O        1.46876608       1.06586846      -2.02365012
N        0.33439904      -0.41207702      -1.06468216
C       -0.95491825      -0.70133693      -0.49141473
C       -1.00251501      -0.89486777       1.01769638
O       -0.83978152       0.26314902       1.81195255
H        2.39681337       1.78457335       0.15462759
H        1.35916330       0.72877870       1.12911302
H        0.95958686      -0.17562488      -2.24741466
H       -1.30227254      -1.62720968      -0.95834630
H       -1.70018454       0.05956549      -0.76099635
H       -0.20838337      -1.58849884       1.30983395
H       -1.95860836      -1.35538584       1.28845926
H       -1.25419226       1.04528622       1.44386533
15
Frame=6 idx=008744 GeodesicLength=0.588932946839626 rxn_smarts="[N:1]([C:2](=[O:3])[N:4]([C:5]([C:6]([O:7][H:15])([H:13])[H:14])([H:11])[H:12])[H:10])([H:8])[H:9]>>[N:1](/[C:2]([O:3][H:10])=[N:4]\[C:5]([C:6]([O:7][H:15])([H:13])[H:14])([H:11])[H:12])([H:8])[H:9]"
N        1.67488112       1.10321699       0.27583547
C        1.05776371       0.66509735      -0.83772239
O        1.36356924       1.16219826      -1.98760507
N        0.34049014      -0.41330631      -1.05873075
C       -0.94589339      -0.73296293      -0.49248845
C       -1.01729346      -0.87713175       1.02136584
O       -0.89544450       0.30309900       1.78577773
H        2.42642220       1.75660947       0.16088327
H        1.44294632       0.64462829       1.14053085
H        0.91821505      -0.11396150      -2.25801049
H       -1.25105034      -1.68539947      -0.93504536
H       -1.71321863      -0.00937311      -0.79886551
H       -0.21795254      -1.55021374       1.34771421
H       -1.96975037      -1.34736925       1.28760889
H       -1.21368456       1.09486871       1.34875176
15
Frame=7 idx=008744 GeodesicLength=0.690309054907249 rxn_smarts="[N:1]([C:2](=[O:3])[N:4]([C:5]([C:6]([O:7][H:15])([H:13])[H:14])([H:11])[H:12])[H:10])([H:8])[H:9]>>[N:1](/[C:2]([O:3][H:10])=[N:4]\[C:5]([C:6]([O:7][H:15])([H:13])[H:14])([H:11])[H:12])([H:8])[H:9]"
N        1.72292005       1.05341666       0.28907640
C        1.03939202       0.67422022      -0.80881427
O        1.26636519       1.24814282      -1.94069019
N        0.34490405      -0.41340480      -1.05532637
C       -0.93696200      -0.76221382      -0.49331058
C       -1.03187712      -0.85858896       1.02333117
O       -0.95248331       0.34329071       1.75520582
H        2.44939223       1.73333171       0.16683543
H        1.52470237       0.56188135       1.14346869
H        0.87500735      -0.05278648      -2.26640470
H       -1.20101339      -1.73836035      -0.91012703
H       -1.72341682      -0.07606081      -0.83407407
H       -0.22720681      -1.50881778       1.38322978
H       -1.97950917      -1.34020374       1.28585037
H       -1.17021465       1.13615326       1.26174955
15
Frame=8 idx=008744 GeodesicLength=0.7920786170371069 rxn_smarts="[N:1]([C:2](=[O:3])[N:4]([C:5]([C:6]([O:7][H:15])([H:13])[H:14])([H:11])[H:12])[H:10])([H:8])[H:9]>>[N:1](/[C:2]([O:3][H:10])=[N:4]\[C:5]([C:6]([O:7][H:15])([H:13])[H:14])([H:11])[H:12])([H:8])[H:9]"
N        1.76669999       1.00767465       0.29775234
C        1.02363931       0.68058030      -0.77973515
O        1.17574180       1.32544854      -1.88520059
N        0.34809958      -0.41225614      -1.05361710
C       -0.92793010      -0.78927084      -0.49368208
C       -1.04639069      -0.83928323       1.02386076
O       -1.01244242       0.38355832       1.72004033
H        2.46975921       1.71122504       0.17207595
H        1.60561794       0.48029837       1.13794011
H        0.83066709       0.00765707      -2.27211883
H       -1.15155936      -1.78645262      -0.88359506
H       -1.73109478      -0.14101717      -0.86686961
H       -0.23582402      -1.46343333       1.41684940
H       -1.98761263      -1.33454512       1.28339634
H       -1.12737093       1.16981617       1.18290318
15
Frame=9 idx=008744 GeodesicLength=0.8938988760943826 rxn_smarts="[N:1]([C:2](=[O:3])[N:4]([C:5]([C:6]([O:7][H:15])([H:13])[H:14])([H:11])[H:12])[H:10])([H:8])[H:9]>>[N:1](/[C:2]([O:3][H:10])=[N:4]\[C:5]([C:6]([O:7][H:15])([H:13])[H:14])([H:11])[H:12])([H:8])[H:9]"
N        1.80636106       0.96585781       0.30285110
C        1.00996093       0.68499377      -0.75103660
O        1.09249494       1.39441895      -1.82335100
N        0.35005264      -0.40974738      -1.05322824
C       -0.91897743      -0.81413364      -0.49360958
C       -1.06107378      -0.81935923       1.02313841
O       -1.07643938       0.42335234       1.68028647
H        2.48745519       1.69076169       0.17715065
H        1.68669840       0.39881286       1.12343185
H        0.78610376       0.06650520      -2.27515014
H       -1.10267496      -1.82986685      -0.85567036
H       -1.73673588      -0.20429254      -0.89746899
H       -0.24383222      -1.41361973       1.44875844
H       -1.99392252      -1.33093866       1.28061497
H       -1.08547077       1.19725542       1.11328301
15
Frame=10 idx=008744 GeodesicLength=0.9958088371478911 rxn_smarts="[N:1]([C:2](=[O:3])[N:4]([C:5]([C:6]([O:7][H:15])([H:13])[H:14])([H:11])[H:12])[H:10])([H:8])[H:9]>>[N:1](/[C:2]([O:3][H:10])=[N:4]\[C:5]([C:6]([O:7][H:15])([H:13])[H:14])([H:11])[H:12])([H:8])[H:9]"
N        1.84296976       0.92688636       0.30533403
C        0.99784429       0.68811196      -0.72247456
O        1.01548596       1.45674245      -1.75576529
N        0.35089641      -0.40573060      -1.05385826
C       -0.90986623      -0.83730511      -0.49298186
C       -1.07616095      -0.79861287       1.02131077
O       -1.14531210       0.46277190       1.63480546
H        2.50408773       1.67048550       0.18200954
H        1.76882536       0.31661193       1.09939171
H        0.74117187       0.12471972      -2.27548668
H       -1.05335873      -1.86940794      -0.82589897
H       -1.74052712      -0.26717806      -0.92638578
H       -0.25149271      -1.35835136       1.47942790
H       -1.99843122      -1.32910725       1.27794774
H       -1.04613232       1.21936338       1.05262424
15
Frame=11 idx=008744 GeodesicLength=1.097712288556212 rxn_smarts="[N:1]([C:2](=[O:3])[N:4]([C:5]([C:6]([O:7][H:15])([H:13])[H:14])([H:11])[H:12])[H:10])([H:8])[H:9]>>[N:1](/[C:2]([O:3][H:10])=[N:4]\[C:5]([C:6]([O:7][H:15])([H:13])[H:14])([H:11])[H:12])([H:8])[H:9]"
N        1.87746197       0.88945959       0.30555489
C        0.98679117       0.69039648      -0.69377035
O        0.94458599       1.51337705      -1.68294796
N        0.35054162      -0.39996066      -1.05534576
C       -0.90045450      -0.85918160      -0.49172706
C       -1.09190010      -0.77694368       1.01842889
O       -1.21928693       0.50156122       1.58236729
H        2.52001221       1.64997802       0.18702324
H        1.85214959       0.23333554       1.06488951
H        0.69586789       0.18290962      -2.27305891
H       -1.00268129      -1.90563212      -0.79382441
H       -1.74259450      -0.33084748      -0.95397893
H       -0.25932656      -1.29692373       1.50903041
H       -2.00126659      -1.32855594       1.27581984
H       -1.00989996       1.23702769       1.00153930
15
Frame=12 idx=008744 GeodesicLength=1.1999711172174372 rxn_smarts="[N:1]([C:2](=[O:3])[N:4]([C:5]([C:6]([O:7][H:15])([H:13])[H:14])([H:11])[H:12])[H:10])([H:8])[H:9]>>[N:1](/[C:2]([O:3][H:10])=[N:4]\[C:5]([C:6]([O:7][H:15])([H:13])[H:14])([H:11])[H:12])([H:8])[H:9]"
N        1.91140043       0.85199956       0.30319294
C        0.97653465       0.69195657      -0.66435346
O        0.87896695       1.56525088      -1.60462911
N        0.34911052      -0.39247133      -1.05743471
C       -0.89042167      -0.88031859      -0.48970630
C       -1.10854978      -0.75423056       1.01450709
O       -1.29694235       0.53947413       1.52165767
H        2.53503504       1.62942656       0.19297827
H        1.93709436       0.14901688       1.01887594
H        0.64977878       0.24191498      -2.26757710
H       -0.94977452      -1.93904963      -0.75883152
H       -1.74263110      -0.39657206      -0.98050710
H       -0.26839006      -1.22940084       1.53751785
H       -2.00324530      -1.32775200       1.27445267
H       -0.97796594       1.25075546       0.95985688
15
Frame=13 idx=008744 GeodesicLength=1.3031122419871348 rxn_smarts="[N:1]([C:2](=[O:3])[N:4]([C:5]([C:6]([O:7][H:15])([H:13])[H:14])([H:11])[H:12])[H:10])([H:8])[H:9]>>[N:1](/[C:2]([O:3][H:10])=[N:4]\[C:5]([C:6]([O:7][H:15])([H:13])[H:14])([H:11])[H:12])([H:8])[H:9]"
N        1.94576976       0.81372205       0.29759597
C        0.96668326       0.69302498      -0.63348590
O        0.81822612       1.61297925      -1.52039028
N        0.34665634      -0.38306638      -1.05972427
C       -0.87940817      -0.90117299      -0.48669659
C       -1.12641433      -0.73056039       1.00951194
O       -1.37627348       0.57592510       1.45185206
H        2.54983755       1.60820905       0.19981995
H        2.02314948       0.06465072       0.96042480
H        0.60266948       0.30245592      -2.25841801
H       -0.89363994      -1.96988441      -0.72025129
H       -1.74016728      -0.46555818      -1.00594040
H       -0.27992579      -1.15650103       1.56461866
H       -2.00552360      -1.32526608       1.27374725
H       -0.95163940       1.26104240       0.92733610
15
Frame=14 idx=008744 GeodesicLength=1.4080070395680604 rxn_smarts="[N:1]([C:2](=[O:3])[N:4]([C:5]([C:6]([O:7][H:15])([H:13])[H:14])([H:11])[H:12])[H:10])([H:8])[H:9]>>[N:1](/[C:2]([O:3][H:10])=[N:4]\[C:5]([C:6]([O:7][H:15])([H:13])[H:14])([H:11])[H:12])([H:8])[H:9]"
N        1.98145264       0.77438734       0.28777308
C        0.95721039       0.69337089      -0.60063225
O        0.76205392       1.65648189      -1.43008275
N        0.34336527      -0.37196260      -1.06177789
C       -0.86717109      -0.92197829      -0.48246210
C       -1.14570622      -0.70620113       1.00342736
O       -1.45415464       0.61023057       1.37325449
H        2.56425138       1.58669288       0.20794189
H        2.10971820      -0.01804597       0.88900959
H        0.55447130       0.36448607      -2.24501816
H       -0.83408166      -1.99791732      -0.67774294
H       -1.73453420      -0.53813265      -1.02996075
H       -0.29524798      -1.08011628       1.58992376
H       -2.00971810      -1.31956867       1.27317679
H       -0.93190921       1.26827327       0.90316987
15
Frame=15 idx=008744 GeodesicLength=1.515527876001258 rxn_smarts="[N:1]([C:2](=[O:3])[N:4]([C:5]([C:6]([O:7][H:15])([H:13])[H:14])([H:11])[H:12])[H:10])([H:8])[H:9]>>[N:1](/[C:2]([O:3][H:10])=[N:4]\[C:5]([C:6]([O:7][H:15])([H:13])[H:14])([H:11])[H:12])([H:8])[H:9]"
N        2.01861137       0.73486088       0.27285632
C        0.94807845       0.69281961      -0.56523968
O        0.71039020       1.69525623      -1.33403593
N        0.33956226      -0.35944945      -1.06280430
C       -0.85357861      -0.94272736      -0.47673681
C       -1.16674916      -0.68168647       0.99622295
O       -1.52771249       0.64161552       1.28708273
H        2.57881477       1.56494617       0.21656643
H        2.19579694      -0.09649419       0.80468315
H        0.50563501       0.42721644      -2.22671086
H       -0.77146429      -2.02260221      -0.63129311
H       -1.72496590      -0.61379729      -1.05208221
H       -0.31566846      -1.00290347       1.61313946
H       -2.01766433      -1.30981030       1.27164888
H       -0.91908577       1.27275588       0.88670297
15
Frame=16 idx=008744 GeodesicLength=1.6264098659978272 rxn_smarts="[N:1]([C:2](=[O:3])[N:4]([C:5]([C:6]([O:7][H:15])([H:13])[H:14])([H:11])[H:12])[H:10])([H:8])[H:9]>>[N:1](/[C:2]([O:3][H:10])=[N:4]\[C:5]([C:6]([O:7][H:15])([H:13])[H:14])([H:11])[H:12])([H:8])[H:9]"
N        2.05721595       0.69659005       0.25215046
C        0.93948339       0.69100579      -0.52680876
O        0.66330916       1.72844302      -1.23307796
N        0.33579224      -0.34618660      -1.06181813
C       -0.83876817      -0.96321512      -0.46928059
C       -1.18989312      -0.65766567       0.98797873
O       -1.59424312       0.66959385       1.19573845
H        2.59374756       1.54369872       0.22492818
H        2.28096599      -0.16785427       0.70776590
H        0.45715761       0.48904236      -2.20306675
H       -0.70728298      -2.04336023      -0.58133649
H       -1.71087352      -0.69095488      -1.07173724
H       -0.34221975      -0.92806567       1.63418723
H       -2.03120422      -1.29573367       1.26778740
H       -0.91318702       1.27466231       0.87658958
