15
Frame=0 idx=010337 GeodesicLength=0.0 rxn_smarts="[C:1]([C@@:2]1([C:5](=[O:6])[N:7]([H:14])[H:15])[C:3]([H:11])([H:12])[N:4]1[H:13])([H:8])([H:9])[H:10]>>[C:1]([C@@:2]1([C+:5]([O:6][H:12])[N:7]([H:14])[H:15])[C-:3]([H:11])[N:4]1[H:13])([H:8])([H:9])[H:10]"
C       -1.19644949      -1.03597257       0.70575087
C       -0.31737483       0.11589425       0.29065786
C       -0.75882447       0.94998820      -0.94139855
N       -0.76765066       1.44318427       0.48118637
C        0.98943515      -0.19873183      -0.29103453
O        0.83752277      -0.87154958      -1.36765844
N        2.17774678       0.17719669       0.15221577
H       -2.20654912      -0.86884642       0.32153309
H       -0.83647053      -1.98637728       0.31094057
H       -1.23831297      -1.11270184       1.79566814
H        0.09576427       1.48871720      -1.37342971
H       -0.30323106      -0.34870867      -1.53303302
H       -1.68479153       1.40579660       0.91336389
H        2.22987757       0.73388918       0.98647984
H        2.97930810       0.10822180      -0.45124214
15
Frame=1 idx=010337 GeodesicLength=0.08126465477549472 rxn_smarts="[C:1]([C@@:2]1([C:5](=[O:6])[N:7]([H:14])[H:15])[C:3]([H:11])([H:12])[N:4]1[H:13])([H:8])([H:9])[H:10]>>[C:1]([C@@:2]1([C+:5]([O:6][H:12])[N:7]([H:14])[H:15])[C-:3]([H:11])[N:4]1[H:13])([H:8])([H:9])[H:10]"
C       -1.20421528      -1.04141393       0.70084669
C       -0.31558309       0.10364030       0.28933714
C       -0.75411098       0.95026301      -0.93313979
N       -0.74060390       1.43955257       0.48959660
C        0.99380562      -0.22336095      -0.28115376
O        0.85015971      -0.88871147      -1.36326852
N        2.17170594       0.19063270       0.15736960
H       -2.21790198      -0.85298699       0.33693453
H       -0.86890637      -1.99196964       0.28500070
H       -1.22796355      -1.13442279       1.79002856
H        0.09692933       1.48622782      -1.37506505
H       -0.30583158      -0.35517401      -1.54761608
H       -1.65636844       1.41518932       0.92558793
H        2.19907469       0.79307746       0.96112049
H        2.97980990       0.10945661      -0.43557904
15
Frame=2 idx=010337 GeodesicLength=0.16250633115952198 rxn_smarts="[C:1]([C@@:2]1([C:5](=[O:6])[N:7]([H:14])[H:15])[C:3]([H:11])([H:12])[N:4]1[H:13])([H:8])([H:9])[H:10]>>[C:1]([C@@:2]1([C+:5]([O:6][H:12])[N:7]([H:14])[H:15])[C-:3]([H:11])[N:4]1[H:13])([H:8])([H:9])[H:10]"
C       -1.21128837      -1.04630496       0.69626071
C       -0.31382765       0.09227181       0.28785047
C       -0.74984636       0.95060117      -0.92529704
N       -0.71454384       1.43606708       0.49718767
C        0.99830135      -0.24676441      -0.27105191
O        0.86316618      -0.90571374      -1.35800673
N        2.16522068       0.20390502       0.16235204
H       -2.22800020      -0.83760333       0.35293043
H       -0.90021226      -1.99601692       0.25992566
H       -1.21715437      -1.15577267       1.78413825
H        0.09715676       1.48428988      -1.37720164
H       -0.30838953      -0.36143627      -1.56231740
H       -1.62868387       1.42419007       0.93705985
H        2.16799233       0.84641964       0.93561686
H        2.98010916       0.11186763      -0.41944725
15
Frame=3 idx=010337 GeodesicLength=0.24374008877267989 rxn_smarts="[C:1]([C@@:2]1([C:5](=[O:6])[N:7]([H:14])[H:15])[C:3]([H:11])([H:12])[N:4]1[H:13])([H:8])([H:9])[H:10]>>[C:1]([C@@:2]1([C+:5]([O:6][H:12])[N:7]([H:14])[H:15])[C-:3]([H:11])[N:4]1[H:13])([H:8])([H:9])[H:10]"
C       -1.21773881      -1.05070734       0.69194440
C       -0.31210666       0.08171965       0.28621443
C       -0.74600743       0.95103003      -0.91782876
N       -0.68942993       1.43273708       0.50403407
C        1.00290255      -0.26903225      -0.26072302
O        0.87648447      -0.92261373      -1.35189503
N        2.15837543       0.21692806       0.16713546
H       -2.23693778      -0.82270367       0.36942709
H       -0.93047081      -1.99864919       0.23566084
H       -1.20598616      -1.17680157       1.77795342
H        0.09650693       1.48289941      -1.37975786
H       -0.31095803      -0.36749783      -1.57716691
H       -1.60172724       1.43283483       0.94783556
H        2.13688780       0.89462130       0.91017134
H        2.98020569       0.11523524      -0.40300501
15
Frame=4 idx=010337 GeodesicLength=0.32496797904135527 rxn_smarts="[C:1]([C@@:2]1([C:5](=[O:6])[N:7]([H:14])[H:15])[C:3]([H:11])([H:12])[N:4]1[H:13])([H:8])([H:9])[H:10]>>[C:1]([C@@:2]1([C+:5]([O:6][H:12])[N:7]([H:14])[H:15])[C-:3]([H:11])[N:4]1[H:13])([H:8])([H:9])[H:10]"
C       -1.22362053      -1.05467441       0.68785516
C       -0.31041771       0.07192451       0.28444400
C       -0.74257811       0.95157563      -0.91069236
N       -0.66523056       1.42956933       0.51020637
C        1.00758881      -0.29024041      -0.25016008
O        0.89006391      -0.93945269      -1.34494928
N        2.15123689       0.22967044       0.17168319
H       -2.24478817      -0.80830584       0.38632712
H       -0.95973519      -1.99998328       0.21216907
H       -1.19454681      -1.19754387       1.77143683
H        0.09502290       1.48205890      -1.38265546
H       -0.31358838      -0.37335245      -1.59218855
H       -1.57549250       1.44114922       0.95796724
H        2.10597030       0.93828851       0.88488673
H        2.98011516       0.11931641      -0.38632998
15
Frame=5 idx=010337 GeodesicLength=0.40620049124515356 rxn_smarts="[C:1]([C@@:2]1([C:5](=[O:6])[N:7]([H:14])[H:15])[C:3]([H:11])([H:12])[N:4]1[H:13])([H:8])([H:9])[H:10]>>[C:1]([C@@:2]1([C+:5]([O:6][H:12])[N:7]([H:14])[H:15])[C-:3]([H:11])[N:4]1[H:13])([H:8])([H:9])[H:10]"
C       -1.22899165      -1.05825600       0.68395566
C       -0.30875806       0.06282555       0.28255325
C       -0.73953555       0.95225075      -0.90385022
N       -0.64190519       1.42656353       0.51577004
C        1.01234814      -0.31046695      -0.23934989
O        0.90387169      -0.95627665      -1.33718067
N        2.14387148       0.24210219       0.17597973
H       -2.25163408      -0.79440851       0.40356998
H       -0.98808174      -2.00012100       0.18939032
H       -1.18291362      -1.21804220       1.76455827
H        0.09275659       1.48175603      -1.38582902
H       -0.31632168      -0.37900440      -1.60740544
H       -1.54996268       1.44915754       0.96750998
H        2.07539637       0.97797988       0.85982772
H        2.97985997       0.12394025      -0.36949971
15
Frame=6 idx=010337 GeodesicLength=0.4874333662287042 rxn_smarts="[C:1]([C@@:2]1([C:5](=[O:6])[N:7]([H:14])[H:15])[C:3]([H:11])([H:12])[N:4]1[H:13])([H:8])([H:9])[H:10]>>[C:1]([C@@:2]1([C+:5]([O:6][H:12])[N:7]([H:14])[H:15])[C-:3]([H:11])[N:4]1[H:13])([H:8])([H:9])[H:10]"
C       -1.23389678      -1.06149191       0.68021346
C       -0.30712319       0.05437051       0.28055388
C       -0.73686013       0.95306824      -0.89726490
N       -0.61941799       1.42371862       0.52078401
C        1.01716768      -0.32978059      -0.22827874
O        0.91787746      -0.97312439      -1.32859049
N        2.13632907       0.25422313       0.17999546
H       -2.25753783      -0.78101865       0.42108058
H       -1.01555834      -1.99915398       0.16729203
H       -1.17115770      -1.23831740       1.75729237
H        0.08974855       1.48198274      -1.38921570
H       -0.31919883      -0.38445165      -1.62283445
H       -1.52512234       1.45687819       0.97651015
H        2.04529367       1.01413343       0.83501907
H        2.97945671       0.12896371      -0.35255673
15
Frame=7 idx=010337 GeodesicLength=0.5686678675691248 rxn_smarts="[C:1]([C@@:2]1([C:5](=[O:6])[N:7]([H:14])[H:15])[C:3]([H:11])([H:12])[N:4]1[H:13])([H:8])([H:9])[H:10]>>[C:1]([C@@:2]1([C+:5]([O:6][H:12])[N:7]([H:14])[H:15])[C-:3]([H:11])[N:4]1[H:13])([H:8])([H:9])[H:10]"
C       -1.23837905      -1.06441863       0.67660057
C       -0.30550792       0.04650919       0.27845563
C       -0.73452965       0.95403590      -0.89090406
N       -0.59772915       1.42103185       0.52530221
C        1.02203879      -0.34824724      -0.21693116
O        0.93206002      -0.99003743      -1.31917657
N        2.12865583       0.26603384       0.18370733
H       -2.26256118      -0.76813701       0.43879921
H       -1.04221616      -1.99716558       0.14583767
H       -1.15934378      -1.25838903       1.74962079
H        0.08604094       1.48272708      -1.39276317
H       -0.32225691      -0.38969625      -1.63849384
H       -1.50094986       1.46432956       0.98501371
H        2.01575535       1.04713603       0.81047993
H        2.97892275       0.13428773      -0.33554823
15
Frame=8 idx=010337 GeodesicLength=0.6499084608339469 rxn_smarts="[C:1]([C@@:2]1([C:5](=[O:6])[N:7]([H:14])[H:15])[C:3]([H:11])([H:12])[N:4]1[H:13])([H:8])([H:9])[H:10]>>[C:1]([C@@:2]1([C+:5]([O:6][H:12])[N:7]([H:14])[H:15])[C-:3]([H:11])[N:4]1[H:13])([H:8])([H:9])[H:10]"
C       -1.24247896      -1.06706921       0.67309272
C       -0.30390577       0.03919217       0.27626600
C       -0.73251556       0.95515863      -0.88474184
N       -0.57679308       1.41849901       0.52937155
C        1.02695494      -0.36593404      -0.20528803
O        0.94640455      -1.00706398      -1.30892936
N        2.12089202       0.27752816       0.18709960
H       -2.26676027      -0.75575810       0.45667354
H       -1.06810422      -1.99423320       0.12499410
H       -1.14753682      -1.27827101       1.74153256
H        0.08168129       1.48397409      -1.39642903
H       -0.32552875      -0.39474409      -1.65440223
H       -1.47741472       1.47153198       0.99306138
H        1.98684413       1.07731530       0.78625404
H        2.97826120       0.13987429      -0.31855501
15
Frame=9 idx=010337 GeodesicLength=0.7311443153824275 rxn_smarts="[C:1]([C@@:2]1([C:5](=[O:6])[N:7]([H:14])[H:15])[C:3]([H:11])([H:12])[N:4]1[H:13])([H:8])([H:9])[H:10]>>[C:1]([C@@:2]1([C+:5]([O:6][H:12])[N:7]([H:14])[H:15])[C-:3]([H:11])[N:4]1[H:13])([H:8])([H:9])[H:10]"
C       -1.24622384      -1.06947039       0.66966500
C       -0.30231054       0.03238076       0.27399023
C       -0.73080736       0.95644320      -0.87874465
N       -0.55657759       1.41611331       0.53304109
C        1.03190983      -0.38288474      -0.19333771
O        0.96089607      -1.02422864      -1.29783935
N        2.11306863       0.28872643       0.19014475
H       -2.27018048      -0.74388996       0.47463856
H       -1.09324609      -1.99042522       0.10473865
H       -1.13578217      -1.29796779       1.73301336
H        0.07668935       1.48571883      -1.40016434
H       -0.32905913      -0.39958645      -1.67057457
H       -1.45449825       1.47849072       1.00069741
H        1.95862388       1.10497090       0.76227979
H        2.97749769       0.14560905      -0.30154822
15
Frame=10 idx=010337 GeodesicLength=0.8123843172745467 rxn_smarts="[C:1]([C@@:2]1([C:5](=[O:6])[N:7]([H:14])[H:15])[C:3]([H:11])([H:12])[N:4]1[H:13])([H:8])([H:9])[H:10]>>[C:1]([C@@:2]1([C+:5]([O:6][H:12])[N:7]([H:14])[H:15])[C-:3]([H:11])[N:4]1[H:13])([H:8])([H:9])[H:10]"
C       -1.24964639      -1.07164856       0.66629793
C       -0.30071522       0.02603261       0.27163183
C       -0.72937787       0.95789206      -0.87289275
N       -0.53703895       1.41387036       0.53634965
C        1.03690107      -0.39915618      -0.18105920
O        0.97553160      -1.04158091      -1.28588619
N        2.10521773       0.29962583       0.19282730
H       -2.27287031      -0.73252272       0.49265708
H       -1.11768369      -1.98580592       0.08503744
H       -1.12413058      -1.31748962       1.72405956
H        0.07110643       1.48794848      -1.40393873
H       -0.33287906      -0.40422804      -1.68703171
H       -1.43216845       1.48522380       1.00795894
H        1.93111739       1.13035110       0.73858901
H        2.97663631       0.15148770      -0.28460014
15
Frame=11 idx=010337 GeodesicLength=0.893623844013667 rxn_smarts="[C:1]([C@@:2]1([C:5](=[O:6])[N:7]([H:14])[H:15])[C:3]([H:11])([H:12])[N:4]1[H:13])([H:8])([H:9])[H:10]>>[C:1]([C@@:2]1([C+:5]([O:6][H:12])[N:7]([H:14])[H:15])[C-:3]([H:11])[N:4]1[H:13])([H:8])([H:9])[H:10]"
C       -1.25277085      -1.07362458       0.66297141
C       -0.29911237       0.02011165       0.26919195
C       -0.72820889       0.95950761      -0.86716227
N       -0.51813907       1.41176177       0.53933496
C        1.04192618      -0.41479095      -0.16843431
O        0.99030756      -1.05915694      -1.27304441
N        2.09736434       0.31023449       0.19512886
H       -2.27487002      -0.72165341       0.51068175
H       -1.14144247      -1.98043134       0.06586508
H       -1.11262167      -1.33683831       1.71466495
H        0.06495882       1.49065422      -1.40771736
H       -0.33702895      -0.40866438      -1.70379064
H       -1.41039717       1.49173846       1.01488151
H        1.90434839       1.15367313       0.71515884
H        2.97568617       0.15747858      -0.26773031
15
Frame=12 idx=010337 GeodesicLength=0.9748624552361822 rxn_smarts="[C:1]([C@@:2]1([C:5](=[O:6])[N:7]([H:14])[H:15])[C:3]([H:11])([H:12])[N:4]1[H:13])([H:8])([H:9])[H:10]>>[C:1]([C@@:2]1([C+:5]([O:6][H:12])[N:7]([H:14])[H:15])[C-:3]([H:11])[N:4]1[H:13])([H:8])([H:9])[H:10]"
C       -1.25561844      -1.07541891       0.65966668
C       -0.29749486       0.01458468       0.26667003
C       -0.72728408       0.96129368      -0.86153123
N       -0.49984098       1.40978015       0.54203321
C        1.04698359      -0.42982597      -0.15544514
O        1.00522466      -1.07699170      -1.25928578
N        2.08953034       0.32056070       0.19703187
H       -2.27621702      -0.71128045       0.52866907
H       -1.16454301      -1.97435613       0.04719634
H       -1.10129052      -1.35601569       1.70482678
H        0.05826860       1.49383170      -1.41146986
H       -0.34155191      -0.41288786      -1.72087156
H       -1.38915549       1.49804106       1.02150264
H        1.87832871       1.17513750       0.69195131
H        2.97466040       0.16354724      -0.25094435
15
Frame=13 idx=010337 GeodesicLength=1.056099170251404 rxn_smarts="[C:1]([C@@:2]1([C:5](=[O:6])[N:7]([H:14])[H:15])[C:3]([H:11])([H:12])[N:4]1[H:13])([H:8])([H:9])[H:10]>>[C:1]([C@@:2]1([C+:5]([O:6][H:12])[N:7]([H:14])[H:15])[C-:3]([H:11])[N:4]1[H:13])([H:8])([H:9])[H:10]"
C       -1.25820753      -1.07704955       0.65636557
C       -0.29585503       0.00942027       0.26406308
C       -0.72658724       0.96325356      -0.85597956
N       -0.48210706       1.40791662       0.54447714
C        1.05207286      -0.44429483      -0.14207266
O        1.02028706      -1.09512068      -1.24457567
N        2.08173481       0.33060984       0.19851998
H       -2.27694570      -0.70140142       0.54657466
H       -1.18699976      -1.96763188       0.02900859
H       -1.09017073      -1.37501805       1.69454501
H        0.05105602       1.49747694      -1.41516857
H       -0.34649523      -0.41688915      -1.73829525
H       -1.36841206       1.50413621       1.02785768
H        1.85306194       1.19491657       0.66893437
H        2.97356764       0.16967557      -0.23425437
15
Frame=14 idx=010337 GeodesicLength=1.1373337948149607 rxn_smarts="[C:1]([C@@:2]1([C:5](=[O:6])[N:7]([H:14])[H:15])[C:3]([H:11])([H:12])[N:4]1[H:13])([H:8])([H:9])[H:10]>>[C:1]([C@@:2]1([C+:5]([O:6][H:12])[N:7]([H:14])[H:15])[C-:3]([H:11])[N:4]1[H:13])([H:8])([H:9])[H:10]"
C       -1.26055330      -1.07853296       0.65305057
C       -0.29418524       0.00458978       0.26136571
C       -0.72610452       0.96539110      -0.85048869
N       -0.46490074       1.40616249       0.54669666
C        1.05719422      -0.45822535      -0.12829770
O        1.03550212      -1.11357824      -1.22887389
N        2.07399399       0.34038900       0.19957469
H       -2.27708778      -0.69201436       0.56435670
H       -1.20882332      -1.96030739       0.01127905
H       -1.07928900      -1.39384135       1.68382081
H        0.04333662       1.50158837      -1.41878890
H       -0.35191186      -0.42065573      -1.75608456
H       -1.34813481       1.51002673       1.03398153
H        1.82854504       1.21316363       0.64606809
H        2.97241857       0.17584429      -0.21766007
15
Frame=15 idx=010337 GeodesicLength=1.2185658650508386 rxn_smarts="[C:1]([C@@:2]1([C:5](=[O:6])[N:7]([H:14])[H:15])[C:3]([H:11])([H:12])[N:4]1[H:13])([H:8])([H:9])[H:10]>>[C:1]([C@@:2]1([C+:5]([O:6][H:12])[N:7]([H:14])[H:15])[C-:3]([H:11])[N:4]1[H:13])([H:8])([H:9])[H:10]"
C       -1.26266910      -1.07988345       0.64970428
C       -0.29247727       0.00006580       0.25857007
C       -0.72582079       0.96770986      -0.84504207
N       -0.44818443       1.40450777       0.54871845
C        1.06234895      -0.47164294      -0.11409867
O        1.05088045      -1.13240105      -1.21213145
N        2.06632234       0.34990186       0.20017843
H       -2.27667322      -0.68311636       0.58197103
H       -1.23001932      -1.95242997      -0.00601282
H       -1.06867174      -1.41247614       1.67265804
H        0.03512660       1.50616473      -1.42230790
H       -0.35786022      -0.42417319      -1.77426356
H       -1.32828954       1.51571403       1.03990622
H        1.80476942       1.23000543       0.62332494
H        2.97121787       0.18205361      -0.20117499
15
Frame=16 idx=010337 GeodesicLength=1.2997954032030261 rxn_smarts="[C:1]([C@@:2]1([C:5](=[O:6])[N:7]([H:14])[H:15])[C:3]([H:11])([H:12])[N:4]1[H:13])([H:8])([H:9])[H:10]>>[C:1]([C@@:2]1([C+:5]([O:6][H:12])[N:7]([H:14])[H:15])[C-:3]([H:11])[N:4]1[H:13])([H:8])([H:9])[H:10]"
C       -1.26456528      -1.08111436       0.64630942
C       -0.29072274      -0.00417678       0.25566567
C       -0.72572319       0.97021454      -0.83962426
N       -0.43192160       1.40294248       0.55056695
C        1.06753886      -0.48456772      -0.09945367
O        1.06643568      -1.15162473      -1.19429284
N        2.05873222       0.35915283       0.20031063
H       -2.27572992      -0.67470554       0.59937314
H       -1.25058825      -1.94404624      -0.02288717
H       -1.05834010      -1.43091177       1.66106214
H        0.02643779       1.51120770      -1.42570455
H       -0.36440741      -0.42742285      -1.79285869
H       -1.30884160       1.52119760       1.04566351
H        1.78172325       1.24555502       0.60067100
H        2.96997229       0.18829983      -0.18480128
