13
Frame=0 idx=004582 GeodesicLength=0.0 rxn_smarts="[C:1]([C@@:2]1([H:10])[C:3]([H:11])([H:12])[N:4]1[C:5](=[O:6])[H:13])([H:7])([H:8])[H:9]>>[C:1]([C:2](=[N+:4]([C-:3]([H:11])[H:12])[C:5](=[O:6])[H:13])[H:10])([H:7])([H:8])[H:9]"
C       -1.59456712      -0.27640934       0.80137638
C       -0.46618963      -0.68129139      -0.07487905
C        0.69007191       0.38346234      -1.57873320
N        0.61696116       0.14013986      -0.25460691
C        1.58736472       0.42419843       0.71082872
O        2.61035136       0.99344744       0.47114073
H       -1.22507528       0.20546600       1.71296323
H       -2.20672297      -1.13417357       1.07971762
H       -2.25147153       0.45453480       0.31169467
H       -0.50539346      -1.55785209      -0.70243571
H        1.62501777       0.25335901      -2.10988329
H       -0.18694508       0.77595144      -2.06459734
H        1.30659817       0.01916713       1.69741418
13
Frame=1 idx=004582 GeodesicLength=0.03922833001696077 rxn_smarts="[C:1]([C@@:2]1([H:10])[C:3]([H:11])([H:12])[N:4]1[C:5](=[O:6])[H:13])([H:7])([H:8])[H:9]>>[C:1]([C:2](=[N+:4]([C-:3]([H:11])[H:12])[C:5](=[O:6])[H:13])[H:10])([H:7])([H:8])[H:9]"
C       -1.59967407      -0.27869081       0.80058264
C       -0.46762182      -0.65950890      -0.08260642
C        0.68184039       0.37978493      -1.57883887
N        0.60062303       0.18560957      -0.24654407
C        1.59080875       0.43215419       0.70908756
O        2.62957887       0.96607865       0.45673464
H       -1.23530572       0.17872164       1.72650843
H       -2.21223751      -1.14378284       1.05461174
H       -2.25633369       0.46215224       0.32611581
H       -0.47935469      -1.55626004      -0.68224254
H        1.62281385       0.23662913      -2.09537564
H       -0.18557343       0.77069970      -2.08324959
H        1.31043603       0.02641251       1.69521631
13
Frame=2 idx=004582 GeodesicLength=0.077914991924872 rxn_smarts="[C:1]([C@@:2]1([H:10])[C:3]([H:11])([H:12])[N:4]1[C:5](=[O:6])[H:13])([H:7])([H:8])[H:9]>>[C:1]([C:2](=[N+:4]([C-:3]([H:11])[H:12])[C:5](=[O:6])[H:13])[H:10])([H:7])([H:8])[H:9]"
C       -1.60371293      -0.28051960       0.79880137
C       -0.46789639      -0.64038535      -0.08943879
C        0.67289290       0.37568458      -1.57760728
N        0.58661011       0.22602572      -0.23904626
C        1.59436538       0.43836526       0.70684291
O        2.64541018       0.94152183       0.44270663
H       -1.24446305       0.15328439       1.73777588
H       -2.21789747      -1.15111588       1.02942515
H       -2.25876292       0.47008363       0.33805594
H       -0.45422268      -1.55513832      -0.66148571
H        1.61883995       0.22177687      -2.08143571
H       -0.18531863       0.76676423      -2.09778761
H        1.31415556       0.03365264       1.69319349
13
Frame=3 idx=004582 GeodesicLength=0.11643094058220102 rxn_smarts="[C:1]([C@@:2]1([H:10])[C:3]([H:11])([H:12])[N:4]1[C:5](=[O:6])[H:13])([H:7])([H:8])[H:9]>>[C:1]([C:2](=[N+:4]([C-:3]([H:11])[H:12])[C:5](=[O:6])[H:13])[H:10])([H:7])([H:8])[H:9]"
C       -1.60685860      -0.28205481       0.79620588
C       -0.46719215      -0.62365358      -0.09545424
C        0.66334494       0.37127989      -1.57525007
N        0.57459981       0.26195044      -0.23192641
C        1.59798389       0.44342924       0.70429226
O        2.65881071       0.91902996       0.42896662
H       -1.25278208       0.12886191       1.74713926
H       -2.22363116      -1.15659832       1.00416643
H       -2.25912540       0.47817660       0.34793391
H       -0.43026110      -1.55421571      -0.64068870
H        1.61343385       0.20854979      -2.06796353
H       -0.18610724       0.76380285      -2.10891164
H        1.31778452       0.04144175       1.69149023
13
Frame=4 idx=004582 GeodesicLength=0.15477432022466903 rxn_smarts="[C:1]([C@@:2]1([H:10])[C:3]([H:11])([H:12])[N:4]1[C:5](=[O:6])[H:13])([H:7])([H:8])[H:9]>>[C:1]([C:2](=[N+:4]([C-:3]([H:11])[H:12])[C:5](=[O:6])[H:13])[H:10])([H:7])([H:8])[H:9]"
C       -1.60931469      -0.28336833       0.79303819
C       -0.46568056      -0.60905353      -0.10073276
C        0.65341139       0.36662477      -1.57206159
N        0.56428344       0.29401608      -0.22510661
C        1.60164400       0.44762575       0.70161565
O        2.67023132       0.89860770       0.41553192
H       -1.26048171       0.10536540       1.75492732
H       -2.22949043      -1.16051890       0.97907959
H       -2.25782659       0.48636322       0.35618171
H       -0.40766835      -1.55345311      -0.62020067
H        1.60706054       0.19674466      -2.05497578
H       -0.18769556       0.76152911      -2.11742695
H        1.32152720       0.04951719       1.69012999
13
Frame=5 idx=004582 GeodesicLength=0.19303085123094713 rxn_smarts="[C:1]([C@@:2]1([H:10])[C:3]([H:11])([H:12])[N:4]1[C:5](=[O:6])[H:13])([H:7])([H:8])[H:9]>>[C:1]([C:2](=[N+:4]([C-:3]([H:11])[H:12])[C:5](=[O:6])[H:13])[H:10])([H:7])([H:8])[H:9]"
C       -1.61125466      -0.28452448       0.78948816
C       -0.46355621      -0.59615524      -0.10543794
C        0.64325697       0.36182629      -1.56825672
N        0.55529828       0.32298339      -0.21854182
C        1.60530958       0.45120727       0.69885926
O        2.68013451       0.87981980       0.40237875
H       -1.26775496       0.08261925       1.76150877
H       -2.23533406      -1.16325353       0.95425509
H       -2.25533530       0.49457213       0.36324684
H       -0.38634422      -1.55270319      -0.60016896
H        1.60003942       0.18602411      -2.04239299
H       -0.18983865       0.75971543      -2.12402688
H        1.32537929       0.05786877       1.68908845
13
Frame=6 idx=004582 GeodesicLength=0.23126433255882428 rxn_smarts="[C:1]([C@@:2]1([H:10])[C:3]([H:11])([H:12])[N:4]1[C:5](=[O:6])[H:13])([H:7])([H:8])[H:9]>>[C:1]([C:2](=[N+:4]([C-:3]([H:11])[H:12])[C:5](=[O:6])[H:13])[H:10])([H:7])([H:8])[H:9]"
C       -1.61276684      -0.28559311       0.78565412
C       -0.46093036      -0.58464530      -0.10962582
C        0.63297088       0.35698043      -1.56392962
N        0.54738588       0.34942644      -0.21215852
C        1.60894680       0.45439813       0.69606812
O        2.68887231       0.86225657       0.38945014
H       -1.27469813       0.06041702       1.76704247
H       -2.24113610      -1.16500558       0.92965993
H       -2.25184874       0.50271326       0.36945252
H       -0.36622532      -1.55185960      -0.58067288
H        1.59253183       0.17615215      -2.03011636
H       -0.19241631       0.75816066      -2.12913085
H        1.32931409       0.06659894       1.68830674
13
Frame=7 idx=004582 GeodesicLength=0.26954193225776324 rxn_smarts="[C:1]([C@@:2]1([H:10])[C:3]([H:11])([H:12])[N:4]1[C:5](=[O:6])[H:13])([H:7])([H:8])[H:9]>>[C:1]([C:2](=[N+:4]([C-:3]([H:11])[H:12])[C:5](=[O:6])[H:13])[H:10])([H:7])([H:8])[H:9]"
C       -1.61394805      -0.28662559       0.78164848
C       -0.45790080      -0.57422077      -0.11340688
C        0.62263728       0.35215388      -1.55921448
N        0.54029728       0.37389517      -0.20597082
C        1.61247334       0.45749764       0.69326071
O        2.69671982       0.84546943       0.37667373
H       -1.28140762       0.03831392       1.77182828
H       -2.24694772      -1.16592107       0.90505992
H       -2.24751409       0.51091874       0.37527504
H       -0.34706292      -1.55088401      -0.56163970
H        1.58469250       0.16687307      -2.01809500
H       -0.19530004       0.75666156      -2.13317916
H        1.33326101       0.07586802       1.68775988
13
Frame=8 idx=004582 GeodesicLength=0.3078070237279502 rxn_smarts="[C:1]([C@@:2]1([H:10])[C:3]([H:11])([H:12])[N:4]1[C:5](=[O:6])[H:13])([H:7])([H:8])[H:9]>>[C:1]([C:2](=[N+:4]([C-:3]([H:11])[H:12])[C:5](=[O:6])[H:13])[H:10])([H:7])([H:8])[H:9]"
C       -1.61482539      -0.28759044       0.77751596
C       -0.45457625      -0.56476611      -0.11683508
C        0.61230759       0.34731772      -1.55417535
N        0.53392037       0.39654995      -0.19993338
C        1.61596401       0.46027039       0.69045388
O        2.70365229       0.82979740       0.36417881
H       -1.28786530       0.01666694       1.77584935
H       -2.25259230      -1.16611768       0.88078406
H       -2.24257407       0.51899743       0.38061852
H       -0.32900849      -1.54975546      -0.54323630
H        1.57663435       0.15812939      -2.00627910
H       -0.19837865       0.75521997      -2.13633527
H        1.33734184       0.08528049       1.68739390
13
Frame=9 idx=004582 GeodesicLength=0.34609493696858024 rxn_smarts="[C:1]([C@@:2]1([H:10])[C:3]([H:11])([H:12])[N:4]1[C:5](=[O:6])[H:13])([H:7])([H:8])[H:9]>>[C:1]([C:2](=[N+:4]([C-:3]([H:11])[H:12])[C:5](=[O:6])[H:13])[H:10])([H:7])([H:8])[H:9]"
C       -1.61547524      -0.28852536       0.77331540
C       -0.45099820      -0.55609603      -0.11995433
C        0.60202781       0.34252828      -1.54887570
N        0.52813169       0.41774369      -0.19404701
C        1.61938363       0.46293361       0.68765184
O        2.70988314       0.81487831       0.35188143
H       -1.29417500      -0.00480274       1.77926675
H       -2.25813405      -1.16569048       0.85666669
H       -2.23711485       0.52702080       0.38575721
H       -0.31187331      -1.54847149      -0.52537616
H        1.56844009       0.14979118      -1.99463671
H       -0.20160614       0.75371962      -2.13882294
H        1.34151041       0.09497061       1.68717354
13
Frame=10 idx=004582 GeodesicLength=0.3844331270508895 rxn_smarts="[C:1]([C@@:2]1([H:10])[C:3]([H:11])([H:12])[N:4]1[C:5](=[O:6])[H:13])([H:7])([H:8])[H:9]>>[C:1]([C:2](=[N+:4]([C-:3]([H:11])[H:12])[C:5](=[O:6])[H:13])[H:10])([H:7])([H:8])[H:9]"
C       -1.61593079      -0.28946066       0.76908728
C       -0.44720613      -0.54806918      -0.12281290
C        0.59182668       0.33781475      -1.54337558
N        0.52282281       0.43773847      -0.18831843
C        1.62270771       0.46559097       0.68485229
O        2.71552931       0.80049159       0.33975735
H       -1.30034414      -0.02632369       1.78217202
H       -2.26363793      -1.16468288       0.83259048
H       -2.23116840       0.53504759       0.39091893
H       -0.29552535      -1.54704004      -0.50800619
H        1.56015440       0.14175009      -1.98314050
H       -0.20493662       0.75207874      -2.14082199
H        1.34570845       0.10506426       1.68709722
13
Frame=11 idx=004582 GeodesicLength=0.4228062003235319 rxn_smarts="[C:1]([C@@:2]1([H:10])[C:3]([H:11])([H:12])[N:4]1[C:5](=[O:6])[H:13])([H:7])([H:8])[H:9]>>[C:1]([C:2](=[N+:4]([C-:3]([H:11])[H:12])[C:5](=[O:6])[H:13])[H:10])([H:7])([H:8])[H:9]"
C       -1.61618997      -0.29041740       0.76484880
C       -0.44325694      -0.54058668      -0.12542839
C        0.58169973       0.33318901      -1.53771771
N        0.51787442       0.45667332      -0.18274482
C        1.62587215       0.46837156       0.68206952
O        2.72068373       0.78632535       0.32774723
H       -1.30638163      -0.04818763       1.78468162
H       -2.26908535      -1.16306917       0.80831995
H       -2.22466521       0.54315035       0.39631626
H       -0.27979659      -1.54544440      -0.49102854
H        1.55178748       0.13390808      -1.97179430
H       -0.20835616       0.75026551      -2.14243510
H        1.34981435       0.11582211       1.68716547
13
Frame=12 idx=004582 GeodesicLength=0.46124540334735764 rxn_smarts="[C:1]([C@@:2]1([H:10])[C:3]([H:11])([H:12])[N:4]1[C:5](=[O:6])[H:13])([H:7])([H:8])[H:9]>>[C:1]([C:2](=[N+:4]([C-:3]([H:11])[H:12])[C:5](=[O:6])[H:13])[H:10])([H:7])([H:8])[H:9]"
C       -1.61630114      -0.29136514       0.76062767
C       -0.43916566      -0.53359707      -0.12785071
C        0.57169361       0.32860787      -1.53192390
N        0.51328924       0.47467083      -0.17733147
C        1.62896228       0.47111563       0.67928406
O        2.72529623       0.77277674       0.31596077
H       -1.31230207      -0.07008092       1.78670033
H       -2.27447710      -1.16090848       0.78417288
H       -2.21781508       0.55120516       0.40185882
H       -0.26481394      -1.54372026      -0.47452880
H        1.54342707       0.12630305      -1.96053526
H       -0.21180053       0.74823326      -2.14374231
H        1.35400710       0.12675934       1.68730795
13
Frame=13 idx=004582 GeodesicLength=0.49974463544469827 rxn_smarts="[C:1]([C@@:2]1([H:10])[C:3]([H:11])([H:12])[N:4]1[C:5](=[O:6])[H:13])([H:7])([H:8])[H:9]>>[C:1]([C:2](=[N+:4]([C-:3]([H:11])[H:12])[C:5](=[O:6])[H:13])[H:10])([H:7])([H:8])[H:9]"
C       -1.61626343      -0.29232101       0.75642539
C       -0.43498312      -0.52701517      -0.13006933
C        0.56179407       0.32409040      -1.52600740
N        0.50898479       0.49182642      -0.17203805
C        1.63193578       0.47391400       0.67651072
O        2.72947085       0.75951812       0.30432377
H       -1.31812322      -0.09220625       1.78831177
H       -2.27975539      -1.15820692       0.75994683
H       -2.21057603       0.55924313       0.40767528
H       -0.25043995      -1.54183682      -0.45844597
H        1.53506589       0.11885750      -1.94936343
H       -0.21528337       0.74597657      -2.14477938
H        1.35817313       0.13816003       1.68750980
13
Frame=14 idx=004582 GeodesicLength=0.5382512956994109 rxn_smarts="[C:1]([C@@:2]1([H:10])[C:3]([H:11])([H:12])[N:4]1[C:5](=[O:6])[H:13])([H:7])([H:8])[H:9]>>[C:1]([C:2](=[N+:4]([C-:3]([H:11])[H:12])[C:5](=[O:6])[H:13])[H:10])([H:7])([H:8])[H:9]"
C       -1.61611316      -0.29326849       0.75227859
C       -0.43072077      -0.52082246      -0.13213084
C        0.55204177       0.31962231      -1.52001600
N        0.50495143       0.50821406      -0.16689728
C        1.63482732       0.47666234       0.67374143
O        2.73318820       0.74676403       0.29290587
H       -1.32388961      -0.11435587       1.78950427
H       -2.28490457      -1.15501083       0.73588316
H       -2.20308175       0.56719434       0.41371121
H       -0.23671796      -1.53984873      -0.44282877
H        1.52677567       0.11161106      -1.93829002
H       -0.21874297       0.74350425      -2.14562300
H        1.36238639       0.14973401       1.68776137
13
Frame=15 idx=004582 GeodesicLength=0.5767307629625792 rxn_smarts="[C:1]([C@@:2]1([H:10])[C:3]([H:11])([H:12])[N:4]1[C:5](=[O:6])[H:13])([H:7])([H:8])[H:9]>>[C:1]([C:2](=[N+:4]([C-:3]([H:11])[H:12])[C:5](=[O:6])[H:13])[H:10])([H:7])([H:8])[H:9]"
C       -1.61587421      -0.29419444       0.74819072
C       -0.42641012      -0.51498104      -0.13403872
C        0.54244753       0.31520588      -1.51395157
N        0.50116558       0.52387691      -0.16187809
C        1.63765728       0.47929963       0.67097918
O        2.73649191       0.73455835       0.28170621
H       -1.32963519      -0.13633783       1.79025838
H       -2.28984988      -1.15138468       0.71213544
H       -2.19544946       0.57495664       0.41985592
H       -0.22365145      -1.53776997      -0.42769794
H        1.51858992       0.10458908      -1.92730478
H       -0.22216147       0.74085645      -2.14627637
H        1.36667955       0.16132503       1.68802162
13
Frame=16 idx=004582 GeodesicLength=0.6152671635316705 rxn_smarts="[C:1]([C@@:2]1([H:10])[C:3]([H:11])([H:12])[N:4]1[C:5](=[O:6])[H:13])([H:7])([H:8])[H:9]>>[C:1]([C:2](=[N+:4]([C-:3]([H:11])[H:12])[C:5](=[O:6])[H:13])[H:10])([H:7])([H:8])[H:9]"
C       -1.61552298      -0.29507824       0.74413159
C       -0.42207223      -0.50945374      -0.13581233
C        0.53298161       0.31082811      -1.50778373
N        0.49760697       0.53884594      -0.15695170
C        1.64043418       0.48177090       0.66823277
O        2.73936966       0.72295910       0.27077499
H       -1.33533843      -0.15793556       1.79052913
H       -2.29448570      -1.14738037       0.68881734
H       -2.18772040       0.58242797       0.42595560
H       -0.21126963      -1.53558605      -0.41307825
H        1.51046514       0.09782012      -1.91635498
H       -0.22555382       0.73802805      -2.14669884
H        1.37110561       0.17275376       1.68823839
