13
Frame=0 idx=000694 GeodesicLength=0.0 rxn_smarts="[C:1]([c:2]1[c:3]([H:10])[n:4]([H:11])[c:5]([H:12])[c:6]1[H:13])([H:7])([H:8])[H:9]>>[C+:1]([c:2]1[c:3]([H:10])[n:4]([H:11])[c-:5][c:6]1[H:13])([H:8])[H:9].[H:7][H:12]"
C        1.49823888       0.02780842       0.16341666
C        0.46287856       0.18170448      -0.80499803
C       -0.34980832      -0.99621109      -0.75175409
N       -1.49352671      -0.67620962      -0.22437365
C       -1.60980643       0.74723243       0.10977146
C       -0.41896501       1.23065855      -0.46315069
H        0.55237680       0.04758750       1.30431027
H        2.08588430      -0.88529839       0.20824193
H        2.03041909       0.91119928       0.50288887
H       -0.06888539      -2.02061604      -0.96802463
H       -2.23185321      -1.32866785      -0.01547802
H       -0.36942229       0.51333099       1.23721681
H       -0.08753022       2.24748133      -0.29806687
13
Frame=1 idx=000694 GeodesicLength=0.08448155017138097 rxn_smarts="[C:1]([c:2]1[c:3]([H:10])[n:4]([H:11])[c:5]([H:12])[c:6]1[H:13])([H:7])([H:8])[H:9]>>[C+:1]([c:2]1[c:3]([H:10])[n:4]([H:11])[c-:5][c:6]1[H:13])([H:8])[H:9].[H:7][H:12]"
C        1.50369513       0.02685764       0.16927310
C        0.46555434       0.17869299      -0.79761715
C       -0.35130588      -0.99618027      -0.75817630
N       -1.49768535      -0.67522988      -0.23213647
C       -1.60444870       0.74283536       0.11586342
C       -0.42279202       1.23003189      -0.46818300
H        0.55600490       0.05069461       1.32778013
H        2.09245785      -0.88614276       0.20075040
H        2.04818394       0.91202611       0.48413131
H       -0.06916017      -2.02126866      -0.96869098
H       -2.23781066      -1.32677815      -0.02760232
H       -0.38904503       0.51605166       1.26290461
H       -0.09364835       2.24840946      -0.30829675
13
Frame=2 idx=000694 GeodesicLength=0.16888246688617942 rxn_smarts="[C:1]([c:2]1[c:3]([H:10])[n:4]([H:11])[c:5]([H:12])[c:6]1[H:13])([H:7])([H:8])[H:9]>>[C+:1]([c:2]1[c:3]([H:10])[n:4]([H:11])[c-:5][c:6]1[H:13])([H:8])[H:9].[H:7][H:12]"
C        1.50928496       0.02601307       0.17516219
C        0.46823330       0.17570842      -0.79009826
C       -0.35270787      -0.99605024      -0.76481854
N       -1.50171115      -0.67419613      -0.23996078
C       -1.59886254       0.73830509       0.12199075
C       -0.42664406       1.22937065      -0.47333901
H        0.55979518       0.05416989       1.35166142
H        2.09878831      -0.88694872       0.19345001
H        2.06620351       0.91236888       0.46449076
H       -0.06934872      -2.02181982      -0.96945902
H       -2.24361179      -1.32481414      -0.03975963
H       -0.40961555       0.51865581       1.28910148
H       -0.09980358       2.24923723      -0.31842139
13
Frame=3 idx=000694 GeodesicLength=0.25321300153021364 rxn_smarts="[C:1]([c:2]1[c:3]([H:10])[n:4]([H:11])[c:5]([H:12])[c:6]1[H:13])([H:7])([H:8])[H:9]>>[C+:1]([c:2]1[c:3]([H:10])[n:4]([H:11])[c-:5][c:6]1[H:13])([H:8])[H:9].[H:7][H:12]"
C        1.51502279       0.02529671       0.18106040
C        0.47091589       0.17275671      -0.78245121
C       -0.35400572      -0.99581133      -0.77169296
N       -1.50559307      -0.67310467      -0.24784406
C       -1.59302019       0.73363549       0.12817636
C       -0.43052181       1.22867564      -0.47862646
H        0.56377170       0.05804608       1.37595221
H        2.10484820      -0.88773052       0.18638464
H        2.08446382       0.91218469       0.44394102
H       -0.06944457      -2.02225546      -0.97034815
H       -2.24923836      -1.32277597      -0.05193148
H       -0.43120313       0.52111456       1.31582186
H       -0.10599555       2.24996808      -0.32844217
13
Frame=4 idx=000694 GeodesicLength=0.3375029853323326 rxn_smarts="[C:1]([c:2]1[c:3]([H:10])[n:4]([H:11])[c:5]([H:12])[c:6]1[H:13])([H:7])([H:8])[H:9]>>[C+:1]([c:2]1[c:3]([H:10])[n:4]([H:11])[c-:5][c:6]1[H:13])([H:8])[H:9].[H:7][H:12]"
C        1.52092716       0.02473327       0.18693922
C        0.47360286       0.16984410      -0.77468626
C       -0.35518945      -0.99545348      -0.77880882
N       -1.50931741      -0.67195256      -0.25577626
C       -1.58689022       0.72881828       0.13444920
C       -0.43442588       1.22794709      -0.48405061
H        0.56796715       0.06236105       1.40065143
H        2.11061138      -0.88850604       0.17960018
H        2.10295089       0.91142878       0.42244910
H       -0.06943988      -2.02256385      -0.97137644
H       -2.25467813      -1.32066018      -0.06411281
H       -0.45389325       0.52339827       1.34308188
H       -0.11222522       2.25060526      -0.33835980
13
Frame=5 idx=000694 GeodesicLength=0.4217695680524186 rxn_smarts="[C:1]([c:2]1[c:3]([H:10])[n:4]([H:11])[c:5]([H:12])[c:6]1[H:13])([H:7])([H:8])[H:9]>>[C+:1]([c:2]1[c:3]([H:10])[n:4]([H:11])[c-:5][c:6]1[H:13])([H:8])[H:9].[H:7][H:12]"
C        1.52701818       0.02434950       0.19276795
C        0.47629491       0.16697652      -0.76681401
C       -0.35624848      -0.99496768      -0.78617069
N       -1.51287093      -0.67073590      -0.26374688
C       -1.58044174       0.72384605       0.14083451
C       -0.43835689       1.22718496      -0.48961531
H        0.57241608       0.06714910       1.42575710
H        2.11605710      -0.88929076       0.17313646
H        2.12164746       0.91005344       0.39998988
H       -0.06932757      -2.02273198      -0.97255930
H       -2.25992244      -1.31846283      -0.07629756
H       -0.47777154       0.52547710       1.37089333
H       -0.11849413       2.25115248      -0.34817548
13
Frame=6 idx=000694 GeodesicLength=0.5060532080778442 rxn_smarts="[C:1]([c:2]1[c:3]([H:10])[n:4]([H:11])[c:5]([H:12])[c:6]1[H:13])([H:7])([H:8])[H:9]>>[C+:1]([c:2]1[c:3]([H:10])[n:4]([H:11])[c-:5][c:6]1[H:13])([H:8])[H:9].[H:7][H:12]"
C        1.53332073       0.02417149       0.19850907
C        0.47899462       0.16415931      -0.75884795
C       -0.35717199      -0.99434590      -0.79377934
N       -1.51623850      -0.66945226      -0.27173613
C       -1.57363963       0.71870992       0.14736340
C       -0.44231373       1.22638747      -0.49531936
H        0.57716827       0.07244896       1.45126580
H        2.12116811      -0.89010181       0.16703255
H        2.14053063       0.90801008       0.37654187
H       -0.06910200      -2.02274788      -0.97391512
H       -2.26496416      -1.31617441      -0.08848736
H       -0.50294837       0.52732264       1.39926535
H       -0.12480397       2.25161239      -0.35789276
13
Frame=7 idx=000694 GeodesicLength=0.5903696700108079 rxn_smarts="[C:1]([c:2]1[c:3]([H:10])[n:4]([H:11])[c:5]([H:12])[c:6]1[H:13])([H:7])([H:8])[H:9]>>[C+:1]([c:2]1[c:3]([H:10])[n:4]([H:11])[c-:5][c:6]1[H:13])([H:8])[H:9].[H:7][H:12]"
C        1.53985969       0.02422381       0.20412353
C        0.48170463       0.16139738      -0.75080159
C       -0.35794977      -0.99357851      -0.80163668
N       -1.51940485      -0.66809695      -0.27972624
C       -1.56644679       0.71340286       0.15406429
C       -0.44629475       1.22555319      -0.50116142
H        0.58226804       0.07830768       1.47717259
H        2.12592922      -0.89096326       0.16132429
H        2.15958112       0.90525655       0.35209021
H       -0.06875780      -2.02259934      -0.97546457
H       -2.26979503      -1.31378602      -0.10067251
H       -0.52953773       0.52889434       1.42820354
H       -0.13115599       2.25198826      -0.36751542
13
Frame=8 idx=000694 GeodesicLength=0.6747071736192961 rxn_smarts="[C:1]([c:2]1[c:3]([H:10])[n:4]([H:11])[c:5]([H:12])[c:6]1[H:13])([H:7])([H:8])[H:9]>>[C+:1]([c:2]1[c:3]([H:10])[n:4]([H:11])[c-:5][c:6]1[H:13])([H:8])[H:9].[H:7][H:12]"
C        1.54666130       0.02453111       0.20956690
C        0.48442968       0.15869501      -0.74269346
C       -0.35857246      -0.99265689      -0.80974238
N       -1.52235439      -0.66666423      -0.28769482
C       -1.55881642       0.70791577       0.16097858
C       -0.45029857       1.22467868      -0.50713905
H        0.58776134       0.08479377       1.50346895
H        2.13032524      -0.89189463       0.15605171
H        2.17877398       0.90174604       0.32662581
H       -0.06829140      -2.02227646      -0.97722869
H       -2.27441260      -1.31128195      -0.11285255
H       -0.55765278       0.53013166       1.45770984
H       -0.13755292       2.25228211      -0.37705084
13
Frame=9 idx=000694 GeodesicLength=0.7592663968572008 rxn_smarts="[C:1]([c:2]1[c:3]([H:10])[n:4]([H:11])[c:5]([H:12])[c:6]1[H:13])([H:7])([H:8])[H:9]>>[C+:1]([c:2]1[c:3]([H:10])[n:4]([H:11])[c-:5][c:6]1[H:13])([H:8])[H:9].[H:7][H:12]"
C        1.55379477       0.02506808       0.21473958
C        0.48717842       0.15603833      -0.73453134
C       -0.35903090      -0.99159120      -0.81805514
N       -1.52506451      -0.66516993      -0.29557683
C       -1.55071954       0.70223737       0.16812285
C       -0.45430060       1.22374943      -0.51319324
H        0.59379258       0.09194258       1.53013750
H        2.13437878      -0.89288867       0.15120567
H        2.19808420       0.89749127       0.30014767
H       -0.06771076      -2.02178914      -0.97920465
H       -2.27886250      -1.30863281      -0.12508394
H       -0.58757298       0.53106187       1.48774557
H       -0.14396696       2.25248281      -0.38645372
13
Frame=10 idx=000694 GeodesicLength=0.843874569229071 rxn_smarts="[C:1]([c:2]1[c:3]([H:10])[n:4]([H:11])[c:5]([H:12])[c:6]1[H:13])([H:7])([H:8])[H:9]>>[C+:1]([c:2]1[c:3]([H:10])[n:4]([H:11])[c-:5][c:6]1[H:13])([H:8])[H:9].[H:7][H:12]"
C        1.56125358       0.02590091       0.21964645
C        0.48995791       0.15344736      -0.72633876
C       -0.35931261      -0.99035865      -0.82659953
N       -1.52752344      -0.66359194      -0.30338107
C       -1.54209002       0.69635262       0.17556422
C       -0.45831735       1.22277046      -0.51934946
H        0.60034671       0.09982274       1.55718125
H        2.13805783      -0.89398649       0.14685668
H        2.21749622       0.89238749       0.27261676
H       -0.06700004      -2.02110988      -0.98143421
H       -2.28310109      -1.30582817      -0.13731948
H       -0.61933909       0.53159065       1.51832068
H       -0.15042860       2.25260291      -0.39576354
13
Frame=11 idx=000694 GeodesicLength=0.928530551300533 rxn_smarts="[C:1]([c:2]1[c:3]([H:10])[n:4]([H:11])[c:5]([H:12])[c:6]1[H:13])([H:7])([H:8])[H:9]>>[C+:1]([c:2]1[c:3]([H:10])[n:4]([H:11])[c-:5][c:6]1[H:13])([H:8])[H:9].[H:7][H:12]"
C        1.56906672       0.02703953       0.22424088
C        0.49277944       0.15092334      -0.71813461
C       -0.35940882      -0.98895117      -0.83537052
N       -1.52971416      -0.66192493      -0.31107866
C       -1.53288191       0.69025086       0.18332834
C       -0.46234024       1.22173715      -0.52558661
H        0.60748457       0.10848078       1.58459625
H        2.14136279      -0.89521065       0.14302216
H        2.23699136       0.88640251       0.24402697
H       -0.06615938      -2.02022671      -0.98394808
H       -2.28711935      -1.30285469      -0.14953248
H       -0.65312653       0.53169168       1.54940985
H       -0.15693448       2.25264230      -0.40497348
13
Frame=12 idx=000694 GeodesicLength=1.0131990177303372 rxn_smarts="[C:1]([c:2]1[c:3]([H:10])[n:4]([H:11])[c:5]([H:12])[c:6]1[H:13])([H:7])([H:8])[H:9]>>[C+:1]([c:2]1[c:3]([H:10])[n:4]([H:11])[c-:5][c:6]1[H:13])([H:8])[H:9].[H:7][H:12]"
C        1.57726611       0.02849896       0.22847349
C        0.49565708       0.14846955      -0.70993936
C       -0.35930910      -0.98736150      -0.84435861
N       -1.53161753      -0.66016581      -0.31863270
C       -1.52304042       0.68391553       0.19145787
C       -0.46636322       1.22064407      -0.53187437
H        0.61526832       0.11799047       1.61237129
H        2.14429424      -0.89657674       0.13973113
H        2.25654900       0.87948005       0.21435451
H       -0.06518497      -2.01913023      -0.98677501
H       -2.29091575      -1.29968823      -0.16171732
H       -0.68911764       0.53132237       1.58098120
H       -0.16348613       2.25260153      -0.41407212
13
Frame=13 idx=000694 GeodesicLength=1.0978740114174226 rxn_smarts="[C:1]([c:2]1[c:3]([H:10])[n:4]([H:11])[c:5]([H:12])[c:6]1[H:13])([H:7])([H:8])[H:9]>>[C+:1]([c:2]1[c:3]([H:10])[n:4]([H:11])[c-:5][c:6]1[H:13])([H:8])[H:9].[H:7][H:12]"
C        1.58588744       0.03028530       0.23229035
C        0.49860705       0.14608638      -0.70177409
C       -0.35900453      -0.98558168      -0.85355198
N       -1.53321255      -0.65831016      -0.32600292
C       -1.51251446       0.67733481       0.19998447
C       -0.47037345       1.21948581      -0.53817299
H        0.62377378       0.12839830       1.64049961
H        2.14686606      -0.89810669       0.13698497
H        2.27615701       0.87158284       0.18358893
H       -0.06407545      -2.01781170      -0.98994526
H       -2.29448239      -1.29631340      -0.17383911
H       -0.72755111       0.53047065       1.61297313
H       -0.17007739       2.25247953      -0.42303511
13
Frame=14 idx=000694 GeodesicLength=1.1825366177698018 rxn_smarts="[C:1]([c:2]1[c:3]([H:10])[n:4]([H:11])[c:5]([H:12])[c:6]1[H:13])([H:7])([H:8])[H:9]>>[C+:1]([c:2]1[c:3]([H:10])[n:4]([H:11])[c-:5][c:6]1[H:13])([H:8])[H:9].[H:7][H:12]"
C        1.59497294       0.03240693       0.23562964
C        0.50164934       0.14377571      -0.69366233
C       -0.35848380      -0.98360525      -0.86293435
N       -1.53447403      -0.65635872      -0.33313537
C       -1.50124467       0.67048774       0.20895787
C       -0.47435939       1.21825604      -0.54443012
H        0.63308820       0.13976121       1.66897087
H        2.14909343      -0.89980991       0.13479194
H        2.29579747       0.86264572       0.15170417
H       -0.06282496      -2.01626333      -0.99349133
H       -2.29781592      -1.29270595      -0.18588153
H       -0.76869209       0.52913437       1.64531015
H       -0.17670652       2.25227545      -0.43182962
13
Frame=15 idx=000694 GeodesicLength=1.2671361952839613 rxn_smarts="[C:1]([c:2]1[c:3]([H:10])[n:4]([H:11])[c:5]([H:12])[c:6]1[H:13])([H:7])([H:8])[H:9]>>[C+:1]([c:2]1[c:3]([H:10])[n:4]([H:11])[c-:5][c:6]1[H:13])([H:8])[H:9].[H:7][H:12]"
C        1.60456458       0.03486476       0.23842829
C        0.50480661       0.14153808      -0.68562996
C       -0.35773819      -0.98142415      -0.87249043
N       -1.53537525      -0.65431225      -0.33997290
C       -1.48916917       0.66335340       0.21842777
C       -0.47830720       1.21694809      -0.55058473
H        0.64329636       0.15212703       1.69777278
H        2.15099707      -0.90170111       0.13314563
H        2.31545772       0.85261676       0.11868460
H       -0.06143023      -2.01447574      -0.99744830
H       -2.30090613      -1.28884574      -0.19780471
H       -0.81282690       0.52732370       1.67788513
H       -0.18336925       2.25198716      -0.44041318
13
Frame=16 idx=000694 GeodesicLength=1.3516351073794894 rxn_smarts="[C:1]([c:2]1[c:3]([H:10])[n:4]([H:11])[c:5]([H:12])[c:6]1[H:13])([H:7])([H:8])[H:9]>>[C+:1]([c:2]1[c:3]([H:10])[n:4]([H:11])[c-:5][c:6]1[H:13])([H:8])[H:9].[H:7][H:12]"
C        1.61471399       0.03766060       0.24061433
C        0.50810602       0.13937667      -0.67770362
C       -0.35675598      -0.97903005      -0.88220227
N       -1.53588359      -0.65217888      -0.34644409
C       -1.47622072       0.65590023       0.22845882
C       -0.48220312       1.21555542      -0.55655412
H        0.65450292       0.16553269       1.72689253
H        2.15260076      -0.90378742       0.13203894
H        2.33513020       0.84141879       0.08448909
H       -0.05987964      -2.01244026      -1.00185798
H       -2.30374173      -1.28471517      -0.20957152
H       -0.86030489       0.52509454       1.71055656
H       -0.19006422       2.25161284      -0.44871666
