17
Frame=0 idx=008379 GeodesicLength=0.0 rxn_smarts="[C:1]([C:2]12[C:3]([H:11])([H:12])[C:4]([H:13])([C:5]1([H:14])[H:15])[C:6]([H:16])=[C:7]2[H:17])([H:8])([H:9])[H:10]>>[C:1]([H:8])([H:9])([H:10])[H:17].[C:2]12=[C:7]=[C:6]([H:16])[C:4]([H:13])([C:3]1([H:11])[H:12])[C:5]2([H:14])[H:15]"
C        2.13888645       0.21655950       0.05318862
C        0.22596920       0.19394377       0.05134729
C       -0.48119330      -0.74865866       0.99446991
C       -1.56413243      -0.40284424      -0.09792839
C       -0.39593409      -0.45778281      -1.15735781
C       -1.68347562       1.11226416       0.10483358
C       -0.43074975       1.60126343       0.21994692
H        2.41682818       0.22990416      -0.99447081
H        2.76451011       0.90319388       0.63452944
H        2.19901449      -0.76719044       0.49877517
H       -0.67194173      -0.39351423       2.00298751
H       -0.14138362      -1.78719634       0.95880030
H       -2.42492469      -1.05649304      -0.22138205
H       -0.51029392       0.15589419      -2.04629798
H       -0.04957033      -1.47184515      -1.37230125
H       -2.62143130       1.65243231       0.14335546
H        1.22982233       1.02006958       0.22750407
17
Frame=1 idx=008379 GeodesicLength=0.12773967363361455 rxn_smarts="[C:1]([C:2]12[C:3]([H:11])([H:12])[C:4]([H:13])([C:5]1([H:14])[H:15])[C:6]([H:16])=[C:7]2[H:17])([H:8])([H:9])[H:10]>>[C:1]([H:8])([H:9])([H:10])[H:17].[C:2]12=[C:7]=[C:6]([H:16])[C:4]([H:13])([C:3]1([H:11])[H:12])[C:5]2([H:14])[H:15]"
C        2.15215093       0.22901143       0.04551260
C        0.22047863       0.18087475       0.06201946
C       -0.49802628      -0.75771623       1.00125545
C       -1.57345953      -0.40423181      -0.09672410
C       -0.39995954      -0.46799825      -1.14988865
C       -1.68257007       1.11258273       0.10357035
C       -0.42609863       1.58588721       0.23103219
H        2.42693845       0.26302111      -1.00311223
H        2.78485275       0.89872378       0.63848935
H        2.23078035      -0.76591508       0.46484841
H       -0.69294394      -0.40270000       2.00910226
H       -0.16400142      -1.79804883       0.96698396
H       -2.43817933      -1.05210588      -0.22478925
H       -0.50070492       0.14767044      -2.03916780
H       -0.05978943      -1.48457924      -1.36235366
H       -2.61443688       1.66406606       0.12337267
H        1.23496887       1.05145780       0.22984899
17
Frame=2 idx=008379 GeodesicLength=0.25531920703108457 rxn_smarts="[C:1]([C:2]12[C:3]([H:11])([H:12])[C:4]([H:13])([C:5]1([H:14])[H:15])[C:6]([H:16])=[C:7]2[H:17])([H:8])([H:9])[H:10]>>[C:1]([H:8])([H:9])([H:10])[H:17].[C:2]12=[C:7]=[C:6]([H:16])[C:4]([H:13])([C:3]1([H:11])[H:12])[C:5]2([H:14])[H:15]"
C        2.16543259       0.24183812       0.03753015
C        0.21502461       0.16696801       0.07345520
C       -0.51570024      -0.76722461       1.00836084
C       -1.58285869      -0.40559669      -0.09564509
C       -0.40371149      -0.47867258      -1.14197716
C       -1.68114727       1.11288646       0.10227680
C       -0.42109235       1.56989672       0.24267021
H        2.43657222       0.29727755      -1.01174358
H        2.80540009       0.89430528       0.64153622
H        2.26311941      -0.76364781       0.42916411
H       -0.71504036      -0.41222931       2.01543118
H       -0.18794694      -1.80947121       0.97556871
H       -2.45166745      -1.04729006      -0.22878327
H       -0.49019973       0.13895019      -2.03151010
H       -0.07007368      -1.49786732      -1.35189335
H       -2.60622899       1.67595440       0.10308656
H        1.24011825       1.08392285       0.23247255
17
Frame=3 idx=008379 GeodesicLength=0.3828063671841089 rxn_smarts="[C:1]([C:2]12[C:3]([H:11])([H:12])[C:4]([H:13])([C:5]1([H:14])[H:15])[C:6]([H:16])=[C:7]2[H:17])([H:8])([H:9])[H:10]>>[C:1]([H:8])([H:9])([H:10])[H:17].[C:2]12=[C:7]=[C:6]([H:16])[C:4]([H:13])([C:3]1([H:11])[H:12])[C:5]2([H:14])[H:15]"
C        2.17869153       0.25508798       0.02923600
C        0.20961171       0.15211199       0.08568675
C       -0.53427318      -0.77724663       1.01577177
C       -1.59232529      -0.40693271      -0.09471321
C       -0.40718456      -0.48985938      -1.13361235
C       -1.67911167       1.11317141       0.10097040
C       -0.41564838       1.55320762       0.25491428
H        2.44567924       0.33262333      -1.02032902
H        2.82614448       0.89005395       0.64355986
H        2.29600705      -0.76019158       0.39179365
H       -0.73828174      -0.42216049       2.02195609
H       -0.21333795      -1.82153525       0.98452112
H       -2.46540503      -1.04198144      -0.23342133
H       -0.47871539       0.12967471      -2.02328137
H       -0.08048129      -1.51177117      -1.34092869
H       -2.59664721       1.68813822       0.08256669
H        1.24527768       1.11760943       0.23530935
17
Frame=4 idx=008379 GeodesicLength=0.5102709726384288 rxn_smarts="[C:1]([C:2]12[C:3]([H:11])([H:12])[C:4]([H:13])([C:5]1([H:14])[H:15])[C:6]([H:16])=[C:7]2[H:17])([H:8])([H:9])[H:10]>>[C:1]([H:8])([H:9])([H:10])[H:17].[C:2]12=[C:7]=[C:6]([H:16])[C:4]([H:13])([C:3]1([H:11])[H:12])[C:5]2([H:14])[H:15]"
C        2.19188198       0.26881457       0.02063170
C        0.20424483       0.13618344       0.09874731
C       -0.55380783      -0.78784802       1.02347255
C       -1.60184881      -0.40822888      -0.09394831
C       -0.41037282      -0.50162059      -1.12478132
C       -1.67634766       1.11343479       0.09967163
C       -0.40967091       1.53572086       0.26781894
H        2.45420089       0.36901629      -1.02883463
H        2.84706971       0.88610538       0.64445659
H        2.32940636      -0.75535242       0.35279068
H       -0.76272428      -0.43255044       2.02865626
H       -0.24031055      -1.83431628       0.99380597
H       -2.47939900      -1.03610194      -0.23875707
H       -0.46618446       0.11976883      -2.01443498
H       -0.09108038      -1.52635794      -1.32946741
H       -2.58550281       1.70065102       0.06188457
H        1.25044574       1.15268133       0.23828751
17
Frame=5 idx=008379 GeodesicLength=0.6377509116513038 rxn_smarts="[C:1]([C:2]12[C:3]([H:11])([H:12])[C:4]([H:13])([C:5]1([H:14])[H:15])[C:6]([H:16])=[C:7]2[H:17])([H:8])([H:9])[H:10]>>[C:1]([H:8])([H:9])([H:10])[H:17].[C:2]12=[C:7]=[C:6]([H:16])[C:4]([H:13])([C:3]1([H:11])[H:12])[C:5]2([H:14])[H:15]"
C        2.20495344       0.28309526       0.01172882
C        0.19893448       0.11901124       0.11266064
C       -0.57437596      -0.79912439       1.03143153
C       -1.61142463      -0.40946712      -0.09337240
C       -0.41328777      -0.51403672      -1.11548270
C       -1.67270121       1.11368095       0.09841532
C       -0.40302170       1.51731040       0.28143711
H        2.46210014       0.40637244      -1.03721861
H        2.86812164       0.88268378       0.64412853
H        2.36331169      -0.74886754       0.31231705
H       -0.78841199      -0.44348858       2.03549930
H       -0.26901723      -1.84792451       1.00336140
H       -2.49368082      -1.02954055      -0.24484479
H       -0.45253910       0.10914185      -2.00492659
H       -0.10198768      -1.54172045      -1.31754147
H       -2.57255917       1.71356980       0.04116922
H        1.25558586       1.18930414       0.24123764
17
Frame=6 idx=008379 GeodesicLength=0.7653000045360407 rxn_smarts="[C:1]([C:2]12[C:3]([H:11])([H:12])[C:4]([H:13])([C:5]1([H:14])[H:15])[C:6]([H:16])=[C:7]2[H:17])([H:8])([H:9])[H:10]>>[C:1]([H:8])([H:9])([H:10])[H:17].[C:2]12=[C:7]=[C:6]([H:16])[C:4]([H:13])([C:3]1([H:11])[H:12])[C:5]2([H:14])[H:15]"
C        2.21785004       0.29799917       0.00253779
C        0.19369381       0.10043287       0.12746001
C       -0.59605046      -0.81115622       1.03962514
C       -1.62102770      -0.41062712      -0.09300407
C       -0.41592661      -0.52718869      -1.10570357
C       -1.66800842       1.11390103       0.09724737
C       -0.39556319       1.49784391       0.29583062
H        2.46930438       0.44463684      -1.04546082
H        2.88926524       0.87998972       0.64246883
H        2.39766250      -0.74051190       0.27047227
H       -0.81540167      -0.45504214       2.04245764
H       -0.29963686      -1.86245422       1.01313448
H       -2.50824850      -1.02218616      -0.25174041
H       -0.43771023       0.09769155      -1.99470065
H       -0.11330279      -1.55794197      -1.30517157
H       -2.55755745       1.72693644       0.02050745
H        1.26065789       1.22767689       0.24403949
17
Frame=7 idx=008379 GeodesicLength=0.8929337018119049 rxn_smarts="[C:1]([C:2]12[C:3]([H:11])([H:12])[C:4]([H:13])([C:5]1([H:14])[H:15])[C:6]([H:16])=[C:7]2[H:17])([H:8])([H:9])[H:10]>>[C:1]([H:8])([H:9])([H:10])[H:17].[C:2]12=[C:7]=[C:6]([H:16])[C:4]([H:13])([C:3]1([H:11])[H:12])[C:5]2([H:14])[H:15]"
C        2.23049826       0.31360310      -0.00692770
C        0.18854206       0.08025266       0.14317469
C       -0.61890745      -0.82403461       1.04801817
C       -1.63063045      -0.41168387      -0.09286665
C       -0.41829457      -0.54116516      -1.09543938
C       -1.66208207       1.11407807       0.09622865
C       -0.38711724       1.47717129       0.31106001
H        2.47575895       0.48370916      -1.05353943
H        2.91041815       0.87827960       0.63938689
H        2.43240775      -0.73001608       0.22745584
H       -0.84372913      -0.46729609       2.04949600
H       -0.33237046      -1.87801350       1.02305110
H       -2.52309629      -1.01389490      -0.25951076
H       -0.42163305       0.08530668      -1.98370454
H       -0.12515689      -1.57511893      -1.29239537
H       -2.54018758       1.74080457       0.00005485
H        1.26558002       1.26801803       0.24645761
17
Frame=8 idx=008379 GeodesicLength=1.0206197015383598 rxn_smarts="[C:1]([C:2]12[C:3]([H:11])([H:12])[C:4]([H:13])([C:5]1([H:14])[H:15])[C:6]([H:16])=[C:7]2[H:17])([H:8])([H:9])[H:10]>>[C:1]([H:8])([H:9])([H:10])[H:17].[C:2]12=[C:7]=[C:6]([H:16])[C:4]([H:13])([C:3]1([H:11])[H:12])[C:5]2([H:14])[H:15]"
C        2.24282700       0.32998689      -0.01664805
C        0.18350512       0.05826325       0.15983038
C       -0.64302314      -0.83784710       1.05657146
C       -1.64018392      -0.41260010      -0.09298073
C       -0.42038839      -0.55607557      -1.08468203
C       -1.65468470       1.11421794       0.09542692
C       -0.37749363       1.45513114       0.32717942
H        2.48138480       0.52352131      -1.06144994
H        2.93149123       0.87783458       0.63480643
H        2.46746697      -0.71714071       0.18342626
H       -0.87343978      -0.48030959       2.05657269
H       -0.36742723      -1.89470625       1.03303600
H       -2.53820510      -1.00450508      -0.26821627
H       -0.40423726       0.07184781      -1.97187754
H       -0.13767958      -1.59336331      -1.27925247
H       -2.52012504       1.75521943      -0.02003021
H        1.27021266       1.31052535       0.24828767
17
Frame=9 idx=008379 GeodesicLength=1.1482302011908856 rxn_smarts="[C:1]([C:2]12[C:3]([H:11])([H:12])[C:4]([H:13])([C:5]1([H:14])[H:15])[C:6]([H:16])=[C:7]2[H:17])([H:8])([H:9])[H:10]>>[C:1]([H:8])([H:9])([H:10])[H:17].[C:2]12=[C:7]=[C:6]([H:16])[C:4]([H:13])([C:3]1([H:11])[H:12])[C:5]2([H:14])[H:15]"
C        2.25475940       0.34706422      -0.02660301
C        0.17858230       0.03446332       0.17746895
C       -0.66840606      -0.85239990       1.06524491
C       -1.64944599      -0.41333034      -0.09335903
C       -0.42209353      -0.57188740      -1.07339138
C       -1.64567650       1.11415978       0.09494360
C       -0.36662813       1.43157972       0.34425467
H        2.48609007       0.56397143      -1.06917475
H        2.95229536       0.87855481       0.62875027
H        2.50238385      -0.70212696       0.13828658
H       -0.90454127      -0.49387618       2.06363827
H       -0.40500207      -1.91222935       1.04301552
H       -2.55319001      -0.99393907      -0.27792895
H       -0.38546615       0.05726612      -1.95915530
H       -0.15073741      -1.61251857      -1.26574702
H       -2.49732077       1.76977405      -0.03952193
H        1.27439690       1.35547433       0.24927859
17
Frame=10 idx=008379 GeodesicLength=1.2759290129123644 rxn_smarts="[C:1]([C:2]12[C:3]([H:11])([H:12])[C:4]([H:13])([C:5]1([H:14])[H:15])[C:6]([H:16])=[C:7]2[H:17])([H:8])([H:9])[H:10]>>[C:1]([H:8])([H:9])([H:10])[H:17].[C:2]12=[C:7]=[C:6]([H:16])[C:4]([H:13])([C:3]1([H:11])[H:12])[C:5]2([H:14])[H:15]"
C        2.26619354       0.36515694      -0.03676732
C        0.17382352       0.00828059       0.19606576
C       -0.69521132      -0.86804531       1.07397050
C       -1.65850320      -0.41380930      -0.09402075
C       -0.42354626      -0.58892462      -1.06161868
C       -1.63457784       1.11401814       0.09486262
C       -0.35403797       1.40620767       0.36225182
H        2.48976282       0.60510059      -1.07673985
H        2.97273516       0.88122147       0.62109327
H        2.53749082      -0.68422523       0.09256927
H       -0.93705865      -0.50829254       2.07063460
H       -0.44544866      -1.93104322       1.05285484
H       -2.56834611      -0.98182030      -0.28867058
H       -0.36522617       0.04122304      -1.94551791
H       -0.16486129      -1.63302555      -1.25198980
H       -2.47096463       1.78497312      -0.05821292
H        1.27777625       1.40300452       0.24923512
17
Frame=11 idx=008379 GeodesicLength=1.4036455565770043 rxn_smarts="[C:1]([C:2]12[C:3]([H:11])([H:12])[C:4]([H:13])([C:5]1([H:14])[H:15])[C:6]([H:16])=[C:7]2[H:17])([H:8])([H:9])[H:10]>>[C:1]([H:8])([H:9])([H:10])[H:17].[C:2]12=[C:7]=[C:6]([H:16])[C:4]([H:13])([C:3]1([H:11])[H:12])[C:5]2([H:14])[H:15]"
C        2.27703493       0.38439596      -0.04714763
C        0.16924960      -0.02057360       0.21562637
C       -0.72351360      -0.88483006       1.08270103
C       -1.66726039      -0.41397358      -0.09498238
C       -0.42476155      -0.60735601      -1.04936596
C       -1.62104344       1.11375691       0.09523772
C       -0.33943138       1.37877788       0.38112997
H        2.49225321       0.64701953      -1.08416890
H        2.99266801       0.88612235       0.61182717
H        2.57271384      -0.66322556       0.04638755
H       -0.97099319      -0.52354656       2.07750559
H       -0.48905232      -1.95117386       1.06247180
H       -2.58359107      -0.96789292      -0.30046730
H       -0.34341686       0.02346128      -1.93094518
H       -0.18026593      -1.65503899      -1.23800338
H       -2.44058549       1.80085360      -0.07588495
H        1.27999563       1.45322363       0.24807848
17
Frame=12 idx=008379 GeodesicLength=1.5313591612064283 rxn_smarts="[C:1]([C:2]12[C:3]([H:11])([H:12])[C:4]([H:13])([C:5]1([H:14])[H:15])[C:6]([H:16])=[C:7]2[H:17])([H:8])([H:9])[H:10]>>[C:1]([H:8])([H:9])([H:10])[H:17].[C:2]12=[C:7]=[C:6]([H:16])[C:4]([H:13])([C:3]1([H:11])[H:12])[C:5]2([H:14])[H:15]"
C        2.28716885       0.40489867      -0.05776399
C        0.16487674      -0.05238371       0.23613976
C       -0.75337683      -0.90274101       1.09138429
C       -1.67557658      -0.41374981      -0.09626311
C       -0.42573446      -0.62737120      -1.03663529
C       -1.60470685       1.11332499       0.09613275
C       -0.32251919       1.34904971       0.40080704
H        2.49333853       0.68992703      -1.09149021
H        3.01196046       0.89346740       0.60097268
H        2.60791400      -0.63897839      -0.00027154
H       -1.00632924      -0.53953847       2.08418699
H       -0.53607904      -1.97258248       1.07180121
H       -2.59879240      -0.95189395      -0.31334548
H       -0.31993839       0.00366701      -1.91540341
H       -0.19715554      -1.67873105      -1.22381064
H       -2.40567475       1.81740434      -0.09235410
H        1.28062470       1.50623090       0.24591305
17
Frame=13 idx=008379 GeodesicLength=1.6589857948469948 rxn_smarts="[C:1]([C:2]12[C:3]([H:11])([H:12])[C:4]([H:13])([C:5]1([H:14])[H:15])[C:6]([H:16])=[C:7]2[H:17])([H:8])([H:9])[H:10]>>[C:1]([H:8])([H:9])([H:10])[H:17].[C:2]12=[C:7]=[C:6]([H:16])[C:4]([H:13])([C:3]1([H:11])[H:12])[C:5]2([H:14])[H:15]"
C        2.29648133       0.42676719      -0.06863230
C        0.16071279      -0.08742317       0.25756927
C       -0.78483962      -0.92170880       1.09996966
C       -1.68328773      -0.41306091      -0.09787944
C       -0.42646595      -0.64916440      -1.02343921
C       -1.58519068       1.11265750       0.09758647
C       -0.30298709       1.31679631       0.42113669
H        2.49275713       0.73409858      -1.09869533
H        3.03048112       0.90338842       0.58858061
H        2.64290655      -0.61133828      -0.04753437
H       -1.04300639      -0.55609023       2.09060962
H       -0.58676279      -1.99515280       1.08080122
H       -2.61377060      -0.93354064      -0.32730374
H       -0.29469146      -0.01850116      -1.89889015
H       -0.21573641      -1.70426852      -1.20941767
H       -2.36572661       1.83455385      -0.10746505
H        1.27912642       1.56198706       0.24300371
17
Frame=14 idx=008379 GeodesicLength=1.7864752753343964 rxn_smarts="[C:1]([C:2]12[C:3]([H:11])([H:12])[C:4]([H:13])([C:5]1([H:14])[H:15])[C:6]([H:16])=[C:7]2[H:17])([H:8])([H:9])[H:10]>>[C:1]([H:8])([H:9])([H:10])[H:17].[C:2]12=[C:7]=[C:6]([H:16])[C:4]([H:13])([C:3]1([H:11])[H:12])[C:5]2([H:14])[H:15]"
C        2.30491227       0.45002149      -0.07981746
C        0.15674588      -0.12583946       0.27990100
C       -0.81790616      -0.94156019       1.10842670
C       -1.69020767      -0.41185623      -0.09986522
C       -0.42692461      -0.67291138      -1.00976109
C       -1.56220581       1.11166098       0.09959017
C       -0.28062130       1.28185778       0.44194503
H        2.49022752       0.77990219      -1.10575616
H        3.04819509       0.91578578       0.57469018
H        2.67738496      -0.58026112      -0.09577025
H       -1.08096676      -0.57288935       2.09671185
H       -0.64127635      -2.01862037       1.08946248
H       -2.62827059      -0.91267525      -0.34238164
H       -0.26756013      -0.04339035      -1.88136984
H       -0.23610451      -1.73177165      -1.19478566
H       -2.32042600       1.85217888      -0.12112596
H        1.27500417       1.62036825       0.23990585
17
Frame=15 idx=008379 GeodesicLength=1.913770800890291 rxn_smarts="[C:1]([C:2]12[C:3]([H:11])([H:12])[C:4]([H:13])([C:5]1([H:14])[H:15])[C:6]([H:16])=[C:7]2[H:17])([H:8])([H:9])[H:10]>>[C:1]([H:8])([H:9])([H:10])[H:17].[C:2]12=[C:7]=[C:6]([H:16])[C:4]([H:13])([C:3]1([H:11])[H:12])[C:5]2([H:14])[H:15]"
C        2.31239906       0.47464653      -0.09138979
C        0.15294274      -0.16772872       0.30307063
C       -0.85253409      -0.96202644       1.11671649
C       -1.69611961      -0.41008602      -0.10225913
C       -0.42707759      -0.69878072      -0.99560667
C       -1.53549214       1.11022735       0.10209018
C       -0.25522960       1.24411870       0.46295438
H        2.48544202       0.82776754      -1.11256495
H        3.06509037       0.93041452       0.55936349
H        2.71100474      -0.54571765      -0.14547464
H       -1.12007827      -0.58951084       2.10241300
H       -0.69969783      -2.04260165       1.09780782
H       -2.64199441      -0.88916719      -0.35858077
H       -0.23845642      -0.07137109      -1.86284842
H       -0.25833382      -1.76134743      -1.17985993
H       -2.26953658       1.87009479      -0.13328304
H        1.26767143       1.68106832       0.23745139
17
Frame=16 idx=008379 GeodesicLength=2.040937289995924 rxn_smarts="[C:1]([C:2]12[C:3]([H:11])([H:12])[C:4]([H:13])([C:5]1([H:14])[H:15])[C:6]([H:16])=[C:7]2[H:17])([H:8])([H:9])[H:10]>>[C:1]([H:8])([H:9])([H:10])[H:17].[C:2]12=[C:7]=[C:6]([H:16])[C:4]([H:13])([C:3]1([H:11])[H:12])[C:5]2([H:14])[H:15]"
C        2.31892481       0.50055539      -0.10345075
C        0.14923319      -0.21306515       0.32699445
C       -0.88864768      -0.98271765       1.12481907
C       -1.70077908      -0.40773157      -0.10510425
C       -0.42686935      -0.72693887      -0.98097433
C       -1.50485473       1.10822440       0.10495470
C       -0.22671505       1.20352188       0.48379626
H        2.47801945       0.87829343      -1.11892764
H        3.08127189       0.94678375       0.54264715
H        2.74326624      -0.50770861      -0.19749445
H       -1.16020044      -0.60536095       2.10763786
H       -0.76205615      -2.06656014       1.10591898
H       -2.65455423      -0.86299951      -0.37589737
H       -0.20728595      -0.10286606      -1.84333898
H       -0.28241202      -1.79307722      -1.16453258
H       -2.21293698       1.88800961      -0.14402370
H        1.25659608       1.74363728       0.23697558
