15
Frame=0 idx=010857 GeodesicLength=0.0 rxn_smarts="[C:1]([C@@:2]12[C:3]([H:11])([H:12])[C@:4]1([O:5][H:13])[C:6]([H:14])([H:15])[O:7]2)([H:8])([H:9])[H:10]>>[C:1]([C@@:2]1([C:3]([C:4][O:5][H:13])([H:11])[H:12])[C:6]([H:14])([H:15])[O:7]1)([H:8])([H:9])[H:10]"
C        1.44507879       0.00031251       0.69945504
C        0.48291062       0.24891186      -0.41534492
C       -0.08916303      -0.85954518      -1.19177059
C       -1.27191181      -0.56526686      -0.29296265
O       -1.15575526      -1.27370976       0.87499808
C       -0.75577846       1.33204885      -0.10827424
O        0.41445389       1.55281642      -0.87886275
H        2.44090559      -0.15310682       0.27749013
H        1.16464805      -0.88633786       1.26580974
H        1.48721010       0.86074058       1.36864034
H       -0.27105196      -0.66171003      -2.24369426
H        0.39496645      -1.81550554      -1.01526742
H       -1.96600529      -1.13139750       1.36573274
H       -1.63823778       1.67458338      -0.62936960
H       -0.68226984       1.67716591       0.92342032
15
Frame=1 idx=010857 GeodesicLength=0.06356622057595906 rxn_smarts="[C:1]([C@@:2]12[C:3]([H:11])([H:12])[C@:4]1([O:5][H:13])[C:6]([H:14])([H:15])[O:7]2)([H:8])([H:9])[H:10]>>[C:1]([C@@:2]1([C:3]([C:4][O:5][H:13])([H:11])[H:12])[C:6]([H:14])([H:15])[O:7]1)([H:8])([H:9])[H:10]"
C        1.45742854       0.00422566       0.70029477
C        0.48368997       0.25047216      -0.40470381
C       -0.09369465      -0.85700903      -1.18170432
C       -1.26643518      -0.56158927      -0.27307739
O       -1.17063230      -1.29423446       0.87869832
C       -0.75333421       1.34329491      -0.11365392
O        0.42104680       1.55130292      -0.88304850
H        2.44790957      -0.15676181       0.26871854
H        1.17976164      -0.87845788       1.27442667
H        1.50950624       0.86732854       1.36523464
H       -0.28934619      -0.65413300      -2.23049172
H        0.39091011      -1.81405962      -1.01226926
H       -2.00121698      -1.19080974       1.34479168
H       -1.63076018       1.68440609      -0.64555256
H       -0.68483318       1.70602453       0.91233689
15
Frame=2 idx=010857 GeodesicLength=0.1260415627212423 rxn_smarts="[C:1]([C@@:2]12[C:3]([H:11])([H:12])[C@:4]1([O:5][H:13])[C:6]([H:14])([H:15])[O:7]2)([H:8])([H:9])[H:10]>>[C:1]([C@@:2]1([C:3]([C:4][O:5][H:13])([H:11])[H:12])[C:6]([H:14])([H:15])[O:7]1)([H:8])([H:9])[H:10]"
C        1.46994855       0.00812874       0.70114333
C        0.48437811       0.25215233      -0.39360159
C       -0.09843169      -0.85437941      -1.17110298
C       -1.26074358      -0.55797816      -0.25219213
O       -1.18629319      -1.31552534       0.88193393
C       -0.75103580       1.35442701      -0.11888978
O        0.42741368       1.54964604      -0.88698166
H        2.45478355      -0.16064075       0.25977620
H        1.19516840      -0.87042234       1.28321830
H        1.53232730       0.87391779       1.36160135
H       -0.30812175      -0.64659150      -2.21650758
H        0.38672536      -1.81247354      -1.00900492
H       -2.03516609      -1.24914772       1.32133232
H       -1.62345529       1.69364473      -0.66158121
H       -0.68749755       1.73524213       0.90085640
15
Frame=3 idx=010857 GeodesicLength=0.18759747014791658 rxn_smarts="[C:1]([C@@:2]12[C:3]([H:11])([H:12])[C@:4]1([O:5][H:13])[C:6]([H:14])([H:15])[O:7]2)([H:8])([H:9])[H:10]>>[C:1]([C@@:2]1([C:3]([C:4][O:5][H:13])([H:11])[H:12])[C:6]([H:14])([H:15])[O:7]1)([H:8])([H:9])[H:10]"
C        1.48268732       0.01203876       0.70197354
C        0.48500074       0.25396067      -0.38203147
C       -0.10335894      -0.85166557      -1.15992838
C       -1.25478148      -0.55446148      -0.23023265
O       -1.20277786      -1.33757585       0.88464060
C       -0.74888896       1.36541489      -0.12395121
O        0.43352712       1.54784322      -0.89066295
H        2.46155560      -0.16472645       0.25062068
H        1.21094619      -0.86220453       1.29217623
H        1.55573354       0.88052743       1.35768822
H       -0.32739511      -0.63911438      -2.20169088
H        0.38243721      -1.81074872      -1.00544442
H       -2.06807530      -1.30631991       1.29526814
H       -1.61635734       1.70223910      -0.67739904
H       -0.69025274       1.76479282       0.88897357
15
Frame=4 idx=010857 GeodesicLength=0.24833241498303313 rxn_smarts="[C:1]([C@@:2]12[C:3]([H:11])([H:12])[C@:4]1([O:5][H:13])[C:6]([H:14])([H:15])[O:7]2)([H:8])([H:9])[H:10]>>[C:1]([C@@:2]1([C:3]([C:4][O:5][H:13])([H:11])[H:12])[C:6]([H:14])([H:15])[O:7]1)([H:8])([H:9])[H:10]"
C        1.49567839       0.01596092       0.70276150
C        0.48558058       0.25589726      -0.36998686
C       -0.10843696      -0.84888253      -1.14816855
C       -1.24848297      -0.55110774      -0.20716545
O       -1.22014277      -1.36041929       0.88668679
C       -0.74692433       1.37619430      -0.12879742
O        0.43934037       1.54589392      -0.89406564
H        2.46824421      -0.16899326       0.24122253
H        1.22716336      -0.85380326       1.30127440
H        1.57975172       0.88715575       1.35345904
H       -0.34714704      -0.63172169      -2.18601192
H        0.37810027      -1.80888957      -1.00159171
H       -2.10006420      -1.36196992       1.26662143
H       -1.60952552       1.71009218      -0.69293858
H       -0.69313510       1.79459293       0.87670043
15
Frame=5 idx=010857 GeodesicLength=0.30829996811872956 rxn_smarts="[C:1]([C@@:2]12[C:3]([H:11])([H:12])[C@:4]1([O:5][H:13])[C:6]([H:14])([H:15])[O:7]2)([H:8])([H:9])[H:10]>>[C:1]([C@@:2]1([C:3]([C:4][O:5][H:13])([H:11])[H:12])[C:6]([H:14])([H:15])[O:7]1)([H:8])([H:9])[H:10]"
C        1.50895397       0.01990148       0.70348090
C        0.48614035       0.25795767      -0.35746241
C       -0.11361536      -0.84604691      -1.13581495
C       -1.24176633      -0.54799913      -0.18296602
O       -1.23845062      -1.38407190       0.88792200
C       -0.74517801       1.38668011      -0.13337967
O        0.44479255       1.54379014      -0.89715816
H        2.47486239      -0.17340543       0.23155087
H        1.24389558      -0.84521461       1.31048216
H        1.60440074       0.89379571       1.34887712
H       -0.36734917      -0.62443591      -2.16944300
H        0.37377786      -1.80689574      -0.99744916
H       -2.13124787      -1.41566517       1.23541927
H       -1.60302671       1.71708393      -0.70811932
H       -0.69618938       1.82452575       0.86406038
15
Frame=6 idx=010857 GeodesicLength=0.3676239738915612 rxn_smarts="[C:1]([C@@:2]12[C:3]([H:11])([H:12])[C@:4]1([O:5][H:13])[C:6]([H:14])([H:15])[O:7]2)([H:8])([H:9])[H:10]>>[C:1]([C@@:2]1([C:3]([C:4][O:5][H:13])([H:11])[H:12])[C:6]([H:14])([H:15])[O:7]1)([H:8])([H:9])[H:10]"
C        1.52257564       0.02388534       0.70409382
C        0.48671691       0.26014526      -0.34445078
C       -0.11885358      -0.84318568      -1.12282932
C       -1.23455274      -0.54520086      -0.15756603
O       -1.25777582      -1.40849896       0.88823148
C       -0.74367231       1.39681935      -0.13764675
O        0.44984146       1.54153519      -0.89992835
H        2.48145346      -0.17792002       0.22155113
H        1.26125353      -0.83641633       1.31977004
H        1.62973814       0.90047574       1.34388016
H       -0.38798741      -0.61730634      -2.15192632
H        0.36951986      -1.80478717      -0.99298099
H       -2.16189734      -1.46720073       1.20158577
H       -1.59692204       1.72312667      -0.72285393
H       -0.69943776       1.85452856       0.85107008
15
Frame=7 idx=010857 GeodesicLength=0.42637042155984584 rxn_smarts="[C:1]([C@@:2]12[C:3]([H:11])([H:12])[C@:4]1([O:5][H:13])[C:6]([H:14])([H:15])[O:7]2)([H:8])([H:9])[H:10]>>[C:1]([C@@:2]1([C:3]([C:4][O:5][H:13])([H:11])[H:12])[C:6]([H:14])([H:15])[O:7]1)([H:8])([H:9])[H:10]"
C        1.53660182       0.02793641       0.70455998
C        0.48734522       0.26245605      -0.33094435
C       -0.12409801      -0.84033077      -1.10917695
C       -1.22674726      -0.54279813      -0.13090916
O       -1.27820986      -1.43363988       0.88748461
C       -0.74244040       1.40653185      -0.14153636
O        0.45442551       1.53912235      -0.90235593
H        2.48805413      -0.18248226       0.21116789
H        1.27935630      -0.82738732       1.32910192
H        1.65580733       0.90721547       1.33840744
H       -0.40903589      -0.61038676      -2.13340592
H        0.36538558      -1.80258314      -0.98814714
H       -2.19223863      -1.51625168       1.16503000
H       -1.59128663       1.72810276      -0.73703840
H       -0.70291920       1.88449505       0.83776237
15
Frame=8 idx=010857 GeodesicLength=0.48458410650177 rxn_smarts="[C:1]([C@@:2]12[C:3]([H:11])([H:12])[C@:4]1([O:5][H:13])[C:6]([H:14])([H:15])[O:7]2)([H:8])([H:9])[H:10]>>[C:1]([C@@:2]1([C:3]([C:4][O:5][H:13])([H:11])[H:12])[C:6]([H:14])([H:15])[O:7]1)([H:8])([H:9])[H:10]"
C        1.55108751       0.03207844       0.70483906
C        0.48806158       0.26487943      -0.31693434
C       -0.12928039      -0.83752196      -1.09483583
C       -1.21824538      -0.54090144      -0.10295892
O       -1.29985604      -1.45943476       0.88549747
C       -0.74152770       1.41571746      -0.14497772
O        0.45847478       1.53654334      -0.90440546
H        2.49470124      -0.18702077       0.20034858
H        1.29833137      -0.81811715       1.33842636
H        1.68263432       0.91403179       1.33240687
H       -0.43044198      -0.60373696      -2.11383709
H        0.36145131      -1.80030886      -0.98292231
H       -2.22248426      -1.56237178       1.12573314
H       -1.58620632       1.73187222      -0.75056245
H       -0.70670002       1.91429101       0.82418262
15
Frame=9 idx=010857 GeodesicLength=0.5423127933378652 rxn_smarts="[C:1]([C@@:2]12[C:3]([H:11])([H:12])[C@:4]1([O:5][H:13])[C:6]([H:14])([H:15])[O:7]2)([H:8])([H:9])[H:10]>>[C:1]([C@@:2]1([C:3]([C:4][O:5][H:13])([H:11])[H:12])[C:6]([H:14])([H:15])[O:7]1)([H:8])([H:9])[H:10]"
C        1.56610106       0.03633770       0.70488214
C        0.48890876       0.26739971      -0.30241466
C       -0.13431152      -0.83481182      -1.07978483
C       -1.20893002      -0.53964532      -0.07368404
O       -1.32284725      -1.48578727       0.88208399
C       -0.74099381       1.42426231      -0.14788885
O        0.46190716       1.53379420      -0.90604143
H        2.50145130      -0.19144817       0.18902818
H        1.31833188      -0.80860176       1.34768341
H        1.71024268       0.92094425       1.32582146
H       -0.45213251      -0.59742814      -2.09317692
H        0.35781318      -1.79800619      -0.97726786
H       -2.25287758      -1.60504382       1.08366020
H       -1.58178975       1.73428290      -0.76329766
H       -0.71087358       1.94375142       0.81039688
15
Frame=10 idx=010857 GeodesicLength=0.5995808932717801 rxn_smarts="[C:1]([C@@:2]12[C:3]([H:11])([H:12])[C@:4]1([O:5][H:13])[C:6]([H:14])([H:15])[O:7]2)([H:8])([H:9])[H:10]>>[C:1]([C@@:2]1([C:3]([C:4][O:5][H:13])([H:11])[H:12])[C:6]([H:14])([H:15])[O:7]1)([H:8])([H:9])[H:10]"
C        1.58170448       0.04074618       0.70464090
C        0.48992774       0.26999329      -0.28737351
C       -0.13909356      -0.83226036      -1.06400762
C       -1.19867204      -0.53918560      -0.04306557
O       -1.34732729      -1.51258224       0.87699828
C       -0.74090402       1.43203051      -0.15017711
O        0.46463148       1.53086061      -0.90721420
H        2.50835035      -0.19566452       0.17714302
H        1.33951493      -0.79883107       1.35680562
H        1.73864853       0.92798112       1.31859225
H       -0.47401237      -0.59154339      -2.07138675
H        0.35457516      -1.79571918      -0.97114916
H       -2.28365021      -1.64367126       1.03881908
H       -1.57814710       1.73515518      -0.77510635
H       -0.71554608       1.97269074       0.79648112
15
Frame=11 idx=010857 GeodesicLength=0.656425989044015 rxn_smarts="[C:1]([C@@:2]12[C:3]([H:11])([H:12])[C@:4]1([O:5][H:13])[C:6]([H:14])([H:15])[O:7]2)([H:8])([H:9])[H:10]>>[C:1]([C@@:2]1([C:3]([C:4][O:5][H:13])([H:11])[H:12])[C:6]([H:14])([H:15])[O:7]1)([H:8])([H:9])[H:10]"
C        1.59797388       0.04534107       0.70405711
C        0.49116687       0.27262862      -0.27180109
C       -0.14350359      -0.82994656      -1.04749224
C       -1.18732824      -0.53971139      -0.01109273
O       -1.37347313      -1.53965684       0.86998023
C       -0.74133934       1.43886951      -0.15173656
O        0.46654592       1.52773209      -0.90787001
H        2.51546902      -0.19954368       0.16461574
H        1.36206785      -0.78880386       1.36570974
H        1.76785763       0.93517744       1.31066087
H       -0.49595836      -0.58618436      -2.04843409
H        0.35186586      -1.79351660      -0.96452158
H       -2.31507548      -1.67756858       0.99122009
H       -1.57541092       1.73429205      -0.78583246
H       -0.72085797       2.00089108       0.78253698
15
Frame=12 idx=010857 GeodesicLength=0.7128822678260236 rxn_smarts="[C:1]([C@@:2]12[C:3]([H:11])([H:12])[C@:4]1([O:5][H:13])[C:6]([H:14])([H:15])[O:7]2)([H:8])([H:9])[H:10]>>[C:1]([C@@:2]1([C:3]([C:4][O:5][H:13])([H:11])[H:12])[C:6]([H:14])([H:15])[O:7]1)([H:8])([H:9])[H:10]"
C        1.61499024       0.05017225       0.70306935
C        0.49267025       0.27526772      -0.25567347
C       -0.14742950      -0.82795778      -1.03019795
C       -1.17474724      -0.54141170       0.02227735
O       -1.40148439      -1.56674941       0.86078322
C       -0.74237735       1.44461864      -0.15244853
O        0.46753926       1.52437762      -0.90795757
H        2.52286425      -0.20297243       0.15135461
H        1.38619155      -0.77848459       1.37432850
H        1.79790740       0.94259655       1.30193320
H       -0.51785628      -0.58147675      -2.02426053
H        0.34979470      -1.79147455      -0.95729630
H       -2.34740905      -1.70612715       0.94072245
H       -1.57371199       1.73148111      -0.79530423
H       -0.72694183       2.02814048       0.76866990
15
Frame=13 idx=010857 GeodesicLength=0.7689487631035478 rxn_smarts="[C:1]([C@@:2]12[C:3]([H:11])([H:12])[C@:4]1([O:5][H:13])[C:6]([H:14])([H:15])[O:7]2)([H:8])([H:9])[H:10]>>[C:1]([C@@:2]1([C:3]([C:4][O:5][H:13])([H:11])[H:12])[C:6]([H:14])([H:15])[O:7]1)([H:8])([H:9])[H:10]"
C        1.63282017       0.05528468       0.70161124
C        0.49448881       0.27784613      -0.23898426
C       -0.15068286      -0.82641237      -1.01216321
C       -1.16073956      -0.54458333       0.05698001
O       -1.43157810      -1.59361237       0.84899626
C       -0.74413776       1.44903777      -0.15217768
O        0.46747347       1.52076932      -0.90737785
H        2.53061867      -0.20573875       0.13728225
H        1.41210658      -0.76790121       1.38251924
H        1.82871905       0.95026843       1.29239518
H       -0.53948472      -0.57755535      -1.99888910
H        0.34855804      -1.78969537      -0.94946528
H       -2.38091320      -1.72821931       0.88756294
H       -1.57321605       1.72642393      -0.80333636
H       -0.73403253       2.05408781       0.75504663
15
Frame=14 idx=010857 GeodesicLength=0.8247091799886893 rxn_smarts="[C:1]([C@@:2]12[C:3]([H:11])([H:12])[C@:4]1([O:5][H:13])[C:6]([H:14])([H:15])[O:7]2)([H:8])([H:9])[H:10]>>[C:1]([C@@:2]1([C:3]([C:4][O:5][H:13])([H:11])[H:12])[C:6]([H:14])([H:15])[O:7]1)([H:8])([H:9])[H:10]"
C        1.65155689       0.06074157       0.69960779
C        0.49666308       0.28030085      -0.22169144
C       -0.15312586      -0.82544135      -0.99333131
C       -1.14513914      -0.54948271       0.09306843
O       -1.46402435      -1.61979130       0.83435667
C       -0.74672796       1.45192830      -0.15077087
O        0.46620910       1.51685960      -0.90606589
H        2.53880051      -0.20771843       0.12227649
H        1.44005087      -0.75700329       1.39021134
H        1.86034057       0.95829681       1.28191447
H       -0.56068104      -0.57459678      -1.97225796
H        0.34828491      -1.78831360      -0.94088838
H       -2.41579753      -1.74312377       0.83147226
H       -1.57408983       1.71886038      -0.80971553
H       -0.74232024       2.07848372       0.74181393
15
Frame=15 idx=010857 GeodesicLength=0.880213387104176 rxn_smarts="[C:1]([C@@:2]12[C:3]([H:11])([H:12])[C@:4]1([O:5][H:13])[C:6]([H:14])([H:15])[O:7]2)([H:8])([H:9])[H:10]>>[C:1]([C@@:2]1([C:3]([C:4][O:5][H:13])([H:11])[H:12])[C:6]([H:14])([H:15])[O:7]1)([H:8])([H:9])[H:10]"
C        1.67126334       0.06660447       0.69698530
C        0.49923078       0.28253194      -0.20376605
C       -0.15454695      -0.82521090      -0.97373587
C       -1.12773999      -0.55649020       0.13047409
O       -1.49909369      -1.64479167       0.81641684
C       -0.75029773       1.45298849      -0.14805705
O        0.46357389       1.51258330      -0.90389777
H        2.54748262      -0.20868507       0.10623791
H        1.47026655      -0.74579120       1.39726051
H        1.89268770       0.96675527       1.27044859
H       -0.58116811      -0.57279328      -1.94440440
H        0.34918781      -1.78748745      -0.93152082
H       -2.45221710      -1.74953898       0.77259117
H       -1.57652719       1.70841097      -0.81421895
H       -0.75210194       2.10091431       0.72918651
15
Frame=16 idx=010857 GeodesicLength=0.935545420002553 rxn_smarts="[C:1]([C@@:2]12[C:3]([H:11])([H:12])[C@:4]1([O:5][H:13])[C:6]([H:14])([H:15])[O:7]2)([H:8])([H:9])[H:10]>>[C:1]([C@@:2]1([C:3]([C:4][O:5][H:13])([H:11])[H:12])[C:6]([H:14])([H:15])[O:7]1)([H:8])([H:9])[H:10]"
C        1.69198199       0.07293403       0.69367314
C        0.50221049       0.28440931      -0.18516734
C       -0.15472259      -0.82590519      -0.95342198
C       -1.10832769      -0.56604262       0.16909662
O       -1.53704792      -1.66793258       0.79469905
C       -0.75501909       1.45185843      -0.14385577
O        0.45936425       1.50783783      -0.90072825
H        2.55671347      -0.20840022       0.08907212
H        1.50299280      -0.73425859       1.40351824
H        1.92564241       0.97571684       1.25795837
H       -0.60063161      -0.57235226      -1.91539355
H        0.35149028      -1.78738846      -0.92131251
H       -2.49019235      -1.74599347       0.71108032
H       -1.58073728       1.69462939      -0.81661864
H       -0.76371716       2.12088756       0.71740018
