11
Frame=0 idx=011747 GeodesicLength=0.0 rxn_smarts="[C:1](#[C:2][c:3]1[c:4]([H:9])[c:5]([H:10])[n:6][n:7]1[H:11])[H:8]>>[C:1](#[C:2][c:3]1[c:4]([H:9])[c:5]([H:10])[n:6]([H:11])[n:7]1)[H:8]"
C        2.75174704       0.17443000      -0.94666235
C        1.63240087       0.17618915      -0.52205622
C        0.29775442       0.15328259      -0.02349150
C       -0.43791426      -0.93920354       0.42509691
C       -1.69051499      -0.43434288       0.71419545
N       -1.71359057       0.89589134       0.56000631
N       -0.42662972       1.28179612       0.08233348
H        3.74632605       0.18099249      -1.32598436
H       -0.09206660      -1.95581323       0.51925106
H       -2.57644639      -0.95239352       1.05002510
H       -1.49106587       1.41917147      -0.53271390
11
Frame=1 idx=011747 GeodesicLength=0.036121228668319856 rxn_smarts="[C:1](#[C:2][c:3]1[c:4]([H:9])[c:5]([H:10])[n:6][n:7]1[H:11])[H:8]>>[C:1](#[C:2][c:3]1[c:4]([H:9])[c:5]([H:10])[n:6]([H:11])[n:7]1)[H:8]"
C        2.75145349       0.17430961      -0.94807675
C        1.63161889       0.17575260      -0.52463130
C        0.29827353       0.15052397      -0.02322815
C       -0.43585045      -0.94138352       0.43017285
C       -1.68989765      -0.43632288       0.71435075
N       -1.70964357       0.89339099       0.55772332
N       -0.42875578       1.27701750       0.08206872
H        3.74710441       0.18230522      -1.32453109
H       -0.09091987      -1.95838296       0.52233678
H       -2.57734607      -0.95253640       1.04873691
H       -1.49603692       1.43532587      -0.53492206
11
Frame=2 idx=011747 GeodesicLength=0.07224271112074514 rxn_smarts="[C:1](#[C:2][c:3]1[c:4]([H:9])[c:5]([H:10])[n:6][n:7]1[H:11])[H:8]>>[C:1](#[C:2][c:3]1[c:4]([H:9])[c:5]([H:10])[n:6]([H:11])[n:7]1)[H:8]"
C        2.75079841       0.17413512      -0.95022160
C        1.63119235       0.17554056      -0.52604664
C        0.29907417       0.14792304      -0.02202889
C       -0.43350744      -0.94341683       0.43610652
C       -1.68936493      -0.43844975       0.71418520
N       -1.70599474       0.89069950       0.55488790
N       -0.43089170       1.27226279       0.08202885
H        3.74741582       0.18332643      -1.32407790
H       -0.08959490      -1.96087250       0.52588377
H       -2.57853192      -0.95302890       1.04625130
H       -1.50059510       1.45188055      -0.53696851
11
Frame=3 idx=011747 GeodesicLength=0.10837961988599651 rxn_smarts="[C:1](#[C:2][c:3]1[c:4]([H:9])[c:5]([H:10])[n:6][n:7]1[H:11])[H:8]>>[C:1](#[C:2][c:3]1[c:4]([H:9])[c:5]([H:10])[n:6]([H:11])[n:7]1)[H:8]"
C        2.75054772       0.17380403      -0.95160024
C        1.62972848       0.17462256      -0.53051029
C        0.29951572       0.14498568      -0.02210078
C       -0.43134398      -0.94564450       0.44134447
C       -1.68875735      -0.44062773       0.71410404
N       -1.70210449       0.88799349       0.55252399
N       -0.43300717       1.26733011       0.08156270
H        3.74839770       0.18481066      -1.32208194
H       -0.08782398      -1.96316779       0.53071156
H       -2.57963882      -0.95354537       1.04387013
H       -1.50551385       1.46943885      -0.53782363
11
Frame=4 idx=011747 GeodesicLength=0.1445875196552079 rxn_smarts="[C:1](#[C:2][c:3]1[c:4]([H:9])[c:5]([H:10])[n:6][n:7]1[H:11])[H:8]>>[C:1](#[C:2][c:3]1[c:4]([H:9])[c:5]([H:10])[n:6]([H:11])[n:7]1)[H:8]"
C        2.74976890       0.17325387      -0.95426740
C        1.62828877       0.17367138      -0.53479438
C        0.30007425       0.14203046      -0.02178300
C       -0.42920649      -0.94798346       0.44647096
C       -1.68837777      -0.44310977       0.71320957
N       -1.69834095       0.88505852       0.55003384
N       -0.43497108       1.26237125       0.08171042
H        3.74913314       0.18617348      -1.32058664
H       -0.08511388      -1.96498767       0.53834674
H       -2.58132141      -0.95462649       1.03928653
H       -1.50993347       1.48814845      -0.53762663
11
Frame=5 idx=011747 GeodesicLength=0.18078497394226323 rxn_smarts="[C:1](#[C:2][c:3]1[c:4]([H:9])[c:5]([H:10])[n:6][n:7]1[H:11])[H:8]>>[C:1](#[C:2][c:3]1[c:4]([H:9])[c:5]([H:10])[n:6]([H:11])[n:7]1)[H:8]"
C        2.74858098       0.17254225      -0.95818120
C        1.62592580       0.17222401      -0.54169537
C        0.30039344       0.13884743      -0.02231537
C       -0.42721870      -0.95056114       0.45083341
C       -1.68804402      -0.44582318       0.71191839
N       -1.69439207       0.88200211       0.54810596
N       -0.43680786       1.25731730       0.08210663
H        3.75050553       0.18750793      -1.31735100
H       -0.08117727      -1.96617535       0.54934294
H       -2.58341273      -0.95619473       1.03282654
H       -1.51435308       1.50831337      -0.53559092
11
Frame=6 idx=011747 GeodesicLength=0.21690045166264654 rxn_smarts="[C:1](#[C:2][c:3]1[c:4]([H:9])[c:5]([H:10])[n:6][n:7]1[H:11])[H:8]>>[C:1](#[C:2][c:3]1[c:4]([H:9])[c:5]([H:10])[n:6]([H:11])[n:7]1)[H:8]"
C        2.74607079       0.17134409      -0.96533637
C        1.62357024       0.17070036      -0.54817098
C        0.30099942       0.13568584      -0.02195827
C       -0.42530445      -0.95334783       0.45493486
C       -1.68810697      -0.44905455       0.70914281
N       -1.69056352       0.87861080       0.54618106
N       -0.43827297       1.25228398       0.08393771
H        3.75140009       0.18866780      -1.31471937
H       -0.07538499      -1.96629520       0.56602010
H       -2.58670085      -0.95884157       1.02156446
H       -1.51770680       1.53024629      -0.53159602
11
Frame=7 idx=011747 GeodesicLength=0.25314857321039747 rxn_smarts="[C:1](#[C:2][c:3]1[c:4]([H:9])[c:5]([H:10])[n:6][n:7]1[H:11])[H:8]>>[C:1](#[C:2][c:3]1[c:4]([H:9])[c:5]([H:10])[n:6]([H:11])[n:7]1)[H:8]"
C        2.74475385       0.17035305      -0.96927546
C        1.62032044       0.16849019      -0.55725290
C        0.30136892       0.13228939      -0.02253389
C       -0.42303146      -0.95592764       0.45998576
C       -1.68779662      -0.45208135       0.70736006
N       -1.68666300       0.87527307       0.54411588
N       -0.43998434       1.24704917       0.08439707
H        3.75240112       0.19016436      -1.31178381
H       -0.07032268      -1.96669428       0.58052667
H       -2.58942113      -0.96118595       1.01179375
H       -1.52162509       1.55226999      -0.52733313
11
Frame=8 idx=011747 GeodesicLength=0.2893176673341381 rxn_smarts="[C:1](#[C:2][c:3]1[c:4]([H:9])[c:5]([H:10])[n:6][n:7]1[H:11])[H:8]>>[C:1](#[C:2][c:3]1[c:4]([H:9])[c:5]([H:10])[n:6]([H:11])[n:7]1)[H:8]"
C        2.74343908       0.16927160      -0.97300232
C        1.61676098       0.16599031      -0.56700939
C        0.30179087       0.12878976      -0.02302115
C       -0.42057879      -0.95853472       0.46554138
C       -1.68749336      -0.45525800       0.70537509
N       -1.68285592       0.87182004       0.54181247
N       -0.44167851       1.24175895       0.08480231
H        3.75308270       0.19169107      -1.30940159
H       -0.06479617      -1.96676531       0.59650672
H       -2.59241897      -0.96387389       1.00041658
H       -1.52525190       1.57511018      -0.52202009
11
Frame=9 idx=011747 GeodesicLength=0.3255663142650667 rxn_smarts="[C:1](#[C:2][c:3]1[c:4]([H:9])[c:5]([H:10])[n:6][n:7]1[H:11])[H:8]>>[C:1](#[C:2][c:3]1[c:4]([H:9])[c:5]([H:10])[n:6]([H:11])[n:7]1)[H:8]"
C        2.74160097       0.16779835      -0.97770298
C        1.61321022       0.16322594      -0.57632415
C        0.30249498       0.12536767      -0.02261874
C       -0.41784047      -0.96084800       0.47221321
C       -1.68730002      -0.45868106       0.70280137
N       -1.67927329       0.86804328       0.53898178
N       -0.44326389       1.23636967       0.08558908
H        3.75311983       0.19327206      -1.30818687
H       -0.05870062      -1.96622118       0.61467749
H       -2.59585185      -0.96729807       0.98612158
H       -1.52819588       1.59897133      -0.51555177
11
Frame=10 idx=011747 GeodesicLength=0.36181642846885953 rxn_smarts="[C:1](#[C:2][c:3]1[c:4]([H:9])[c:5]([H:10])[n:6][n:7]1[H:11])[H:8]>>[C:1](#[C:2][c:3]1[c:4]([H:9])[c:5]([H:10])[n:6]([H:11])[n:7]1)[H:8]"
C        2.73949629       0.16604483      -0.98277882
C        1.60977861       0.16033598      -0.58497269
C        0.30345883       0.12198316      -0.02139516
C       -0.41486023      -0.96303583       0.47983527
C       -1.68719577      -0.46231954       0.69976041
N       -1.67597074       0.86404178       0.53550183
N       -0.44483928       1.23093436       0.08650106
H        3.75251738       0.19490726      -1.30833850
H       -0.05229187      -1.96528758       0.63432507
H       -2.59954039      -0.97122581       0.96971870
H       -1.53055282       1.62362139      -0.50815717
11
Frame=11 idx=011747 GeodesicLength=0.3981012222501761 rxn_smarts="[C:1](#[C:2][c:3]1[c:4]([H:9])[c:5]([H:10])[n:6][n:7]1[H:11])[H:8]>>[C:1](#[C:2][c:3]1[c:4]([H:9])[c:5]([H:10])[n:6]([H:11])[n:7]1)[H:8]"
C        2.73718034       0.16408942      -0.98814868
C        1.60636769       0.15734785      -0.59327115
C        0.30459462       0.11867239      -0.01964238
C       -0.41160473      -0.96499234       0.48841736
C       -1.68705449      -0.46608937       0.69658763
N       -1.67296110       0.85984078       0.53130004
N       -0.44655223       1.22544609       0.08708871
H        3.75161015       0.19647373      -1.30895130
H       -0.04586987      -1.96416219       0.65422905
H       -2.60308176      -0.97550643       0.95239308
H       -1.53262862       1.64888007      -0.50000237
11
Frame=12 idx=011747 GeodesicLength=0.43435869636200575 rxn_smarts="[C:1](#[C:2][c:3]1[c:4]([H:9])[c:5]([H:10])[n:6][n:7]1[H:11])[H:8]>>[C:1](#[C:2][c:3]1[c:4]([H:9])[c:5]([H:10])[n:6]([H:11])[n:7]1)[H:8]"
C        2.73471807       0.16191001      -0.99359128
C        1.60309489       0.15430330      -0.60083243
C        0.30597506       0.11548903      -0.01710145
C       -0.40808597      -0.96667949       0.49805008
C       -1.68689719      -0.46999579       0.69324213
N       -1.67031056       0.85542449       0.52621877
N       -0.44841534       1.21992218       0.08738303
H        3.75020879       0.19796289      -1.31062134
H       -0.03947328      -1.96285984       0.67443911
H       -2.60648462      -0.98019637       0.93390962
H       -1.53432985       1.67471959      -0.49109623
11
Frame=13 idx=011747 GeodesicLength=0.47064027105395756 rxn_smarts="[C:1](#[C:2][c:3]1[c:4]([H:9])[c:5]([H:10])[n:6][n:7]1[H:11])[H:8]>>[C:1](#[C:2][c:3]1[c:4]([H:9])[c:5]([H:10])[n:6]([H:11])[n:7]1)[H:8]"
C        2.73213475       0.15964989      -0.99914975
C        1.59973510       0.15118398      -0.60841563
C        0.30739765       0.11240863      -0.01447274
C       -0.40431023      -0.96803708       0.50844979
C       -1.68657859      -0.47395234       0.69009274
N       -1.66797258       0.85083333       0.52030193
N       -0.45058903       1.21433718       0.08681685
H        3.74885831       0.19918776      -1.31178413
H       -0.03327396      -1.96157296       0.69378515
H       -2.60932233      -0.98510783       0.91582585
H       -1.53607908       1.70106943      -0.48145005
11
Frame=14 idx=011747 GeodesicLength=0.5069168183737615 rxn_smarts="[C:1](#[C:2][c:3]1[c:4]([H:9])[c:5]([H:10])[n:6][n:7]1[H:11])[H:8]>>[C:1](#[C:2][c:3]1[c:4]([H:9])[c:5]([H:10])[n:6]([H:11])[n:7]1)[H:8]"
C        2.72949230       0.15727102      -1.00464554
C        1.59638105       0.14800427      -0.61574910
C        0.30890154       0.10945732      -0.01161109
C       -0.40031050      -0.96903564       0.51962761
C       -1.68613533      -0.47797231       0.68705618
N       -1.66599372       0.84603283       0.51340234
N       -0.45307234       1.20868168       0.08540398
H        3.74741892       0.20017588      -1.31289459
H       -0.02726442      -1.96028201       0.71240986
H       -2.61163640      -0.99029746       0.89798840
H       -1.53778110       1.72796444      -0.47098804
11
Frame=15 idx=011747 GeodesicLength=0.5431882690954916 rxn_smarts="[C:1](#[C:2][c:3]1[c:4]([H:9])[c:5]([H:10])[n:6][n:7]1[H:11])[H:8]>>[C:1](#[C:2][c:3]1[c:4]([H:9])[c:5]([H:10])[n:6]([H:11])[n:7]1)[H:8]"
C        2.72682855       0.15487956      -1.01000849
C        1.59304760       0.14482733      -0.62282939
C        0.31045221       0.10666547      -0.00861705
C       -0.39611257      -0.96964665       0.53145085
C       -1.68556913      -0.48207418       0.68410451
N       -1.66441374       0.84098102       0.50542144
N       -0.45591963       1.20294498       0.08303987
H        3.74594218       0.20071783      -1.31388523
H       -0.02140070      -1.95894884       0.73027253
H       -2.61337580      -0.99580431       0.88061330
H       -1.53947899       1.75545778      -0.45956233
11
Frame=16 idx=011747 GeodesicLength=0.579436780769179 rxn_smarts="[C:1](#[C:2][c:3]1[c:4]([H:9])[c:5]([H:10])[n:6][n:7]1[H:11])[H:8]>>[C:1](#[C:2][c:3]1[c:4]([H:9])[c:5]([H:10])[n:6]([H:11])[n:7]1)[H:8]"
C        2.72406692       0.15252880      -1.01545540
C        1.58969760       0.14168283      -0.62976073
C        0.31202964       0.10406116      -0.00555893
C       -0.39173158      -0.96987029       0.54377287
C       -1.68487443      -0.48627924       0.68119696
N       -1.66325985       0.83564575       0.49629525
N       -0.45916815       1.19713317       0.07968777
H        3.74449528       0.20062167      -1.31453961
H       -0.01553533      -1.95746738       0.74765401
H       -2.61453069      -1.00169947       0.86359404
H       -1.54118943       1.78364300      -0.44688623
