12
Frame=0 idx=003763 GeodesicLength=0.0 rxn_smarts="[C:1]([C@@:2]1([C:5]#[N:6])[C:3]([H:10])([H:11])[N:4]1[H:12])([H:7])([H:8])[H:9]>>[C:1]([C@@:2]1([C-:5]=[N:6][H:11])[C+:3]([H:10])[N:4]1[H:12])([H:7])([H:8])[H:9]"
C        1.45997296      -0.24264698       0.37176968
C        0.02692612       0.21210620       0.34500047
C       -1.11424639      -0.56363094      -0.22289753
N       -0.88597365      -0.55856352       1.21651712
C       -0.23876959       1.23573239      -0.62450386
N       -0.38496184       1.19884197      -1.81003649
H        1.91459630      -0.14595310      -0.61463995
H        1.48485620      -1.28312265       0.69059919
H        2.03374714       0.35473232       1.08147591
H       -2.03342415      -0.02413711      -0.43541337
H       -0.66887893      -0.18078414      -1.68499750
H       -1.59384414      -0.00257441       1.68712630
12
Frame=1 idx=003763 GeodesicLength=0.07179628034195769 rxn_smarts="[C:1]([C@@:2]1([C:5]#[N:6])[C:3]([H:10])([H:11])[N:4]1[H:12])([H:7])([H:8])[H:9]>>[C:1]([C@@:2]1([C-:5]=[N:6][H:11])[C+:3]([H:10])[N:4]1[H:12])([H:7])([H:8])[H:9]"
C        1.46366698      -0.24733960       0.37258497
C        0.03069386       0.20593181       0.34021721
C       -1.11061111      -0.57998346      -0.22162865
N       -0.88863002      -0.54734996       1.21739760
C       -0.23934735       1.24147578      -0.61312686
N       -0.39094034       1.22486893      -1.79834951
H        1.92200763      -0.15409725      -0.61244825
H        1.48672096      -1.28726905       0.69328322
H        2.03389017       0.35461290       1.08126141
H       -2.03902236      -0.05789873      -0.44029303
H       -0.67854656      -0.17880279      -1.69658765
H       -1.58988187       0.02585141       1.67768954
12
Frame=2 idx=003763 GeodesicLength=0.14360209544444863 rxn_smarts="[C:1]([C@@:2]1([C:5]#[N:6])[C:3]([H:10])([H:11])[N:4]1[H:12])([H:7])([H:8])[H:9]>>[C:1]([C@@:2]1([C-:5]=[N:6][H:11])[C+:3]([H:10])[N:4]1[H:12])([H:7])([H:8])[H:9]"
C        1.46735108      -0.25200126       0.37344771
C        0.03450245       0.19995570       0.33532175
C       -1.10692603      -0.59622878      -0.22015431
N       -0.89122326      -0.53587523       1.21791725
C       -0.23953177       1.24725168      -0.60177197
N       -0.39726522       1.25100023      -1.78620292
H        1.92949623      -0.16249762      -0.61016207
H        1.48851354      -1.29133344       0.69615189
H        2.03407860       0.35452985       1.08099913
H       -2.04424425      -0.09175992      -0.44486316
H       -0.68874509      -0.17700673      -1.70808816
H       -1.58600628       0.05396552       1.66740486
12
Frame=3 idx=003763 GeodesicLength=0.21541337715917025 rxn_smarts="[C:1]([C@@:2]1([C:5]#[N:6])[C:3]([H:10])([H:11])[N:4]1[H:12])([H:7])([H:8])[H:9]>>[C:1]([C@@:2]1([C-:5]=[N:6][H:11])[C+:3]([H:10])[N:4]1[H:12])([H:7])([H:8])[H:9]"
C        1.47101827      -0.25662496       0.37436067
C        0.03833864       0.19418803       0.33030217
C       -1.10320278      -0.61235159      -0.21847448
N       -0.89374138      -0.52416364       1.21806795
C       -0.23929739       1.25307053      -0.59047517
N       -0.40389121       1.27724645      -1.77362484
H        1.93707642      -0.17115297      -0.60777265
H        1.49023259      -1.29531056       0.69920351
H        2.03429747       0.35448906       1.08069543
H       -2.04911048      -0.12568771      -0.44907844
H       -0.69949006      -0.17541665      -1.71951604
H       -1.58223008       0.08171401       1.65631188
12
Frame=4 idx=003763 GeodesicLength=0.2872783235134432 rxn_smarts="[C:1]([C@@:2]1([C:5]#[N:6])[C:3]([H:10])([H:11])[N:4]1[H:12])([H:7])([H:8])[H:9]>>[C:1]([C@@:2]1([C-:5]=[N:6][H:11])[C+:3]([H:10])[N:4]1[H:12])([H:7])([H:8])[H:9]"
C        1.47466947      -0.26121170       0.37532806
C        0.04220422       0.18862756       0.32514342
C       -1.09944251      -0.62836263      -0.21659301
N       -0.89618788      -0.51223246       1.21783513
C       -0.23861715       1.25895486      -0.57925554
N       -0.41081047       1.30365439      -1.76061610
H        1.94475544      -0.18007125      -0.60526794
H        1.49187111      -1.29920325       0.70245770
H        2.03455017       0.35449359       1.08035540
H       -2.05363241      -0.15970727      -0.45292256
H       -0.71081473      -0.17404023      -1.73088689
H       -1.57854526       0.10909839       1.64442234
12
Frame=5 idx=003763 GeodesicLength=0.3591466506229703 rxn_smarts="[C:1]([C@@:2]1([C:5]#[N:6])[C:3]([H:10])([H:11])[N:4]1[H:12])([H:7])([H:8])[H:9]>>[C:1]([C@@:2]1([C-:5]=[N:6][H:11])[C+:3]([H:10])[N:4]1[H:12])([H:7])([H:8])[H:9]"
C        1.47830102      -0.26576306       0.37634636
C        0.04609603       0.18327700       0.31982944
C       -1.09562895      -0.64426548      -0.21451666
N       -0.89855600      -0.50007294       1.21719702
C       -0.23747645       1.26490196      -0.56810786
N       -0.41801434       1.33024426      -1.74713321
H        1.95253734      -0.18926479      -0.60263486
H        1.49342788      -1.30299839       0.70591374
H        2.03483155       0.35453291       1.07997204
H       -2.05781383      -0.19385289      -0.45638647
H       -0.72274611      -0.17287610      -1.74219649
H       -1.57495814       0.13613751       1.63171695
12
Frame=6 idx=003763 GeodesicLength=0.43107384240325747 rxn_smarts="[C:1]([C@@:2]1([C:5]#[N:6])[C:3]([H:10])([H:11])[N:4]1[H:12])([H:7])([H:8])[H:9]>>[C:1]([C@@:2]1([C-:5]=[N:6][H:11])[C+:3]([H:10])[N:4]1[H:12])([H:7])([H:8])[H:9]"
C        1.48190738      -0.27027598       0.37741994
C        0.05001184       0.17814080       0.31434772
C       -1.09176609      -0.66006512      -0.21224935
N       -0.90084195      -0.48770740       1.21615098
C       -0.23584505       1.27093674      -0.55706348
N       -0.42547104       1.35706000      -1.73319484
H        1.96042624      -0.19873337      -0.59986748
H        1.49489045      -1.30670013       0.70958329
H        2.03513938       0.35461436       1.07955908
H       -2.06166363      -0.22813276      -0.45944506
H       -0.73531970      -0.17194370      -1.75347075
H       -1.57146784       0.16280657       1.61822994
12
Frame=7 idx=003763 GeodesicLength=0.5030443469278941 rxn_smarts="[C:1]([C@@:2]1([C:5]#[N:6])[C:3]([H:10])([H:11])[N:4]1[H:12])([H:7])([H:8])[H:9]>>[C:1]([C@@:2]1([C-:5]=[N:6][H:11])[C+:3]([H:10])[N:4]1[H:12])([H:7])([H:8])[H:9]"
C        1.48548220      -0.27474752       0.37854787
C        0.05394681       0.17322059       0.30867948
C       -1.08785017      -0.67576074      -0.20979461
N       -0.90304097      -0.47514592       1.21467814
C       -0.23370308       1.27706663      -0.54614097
N       -0.43314883       1.38412939      -1.71878489
H        1.96842712      -0.20847744      -0.59695101
H        1.49625249      -1.31030049       0.71346551
H        2.03546274       0.35473638       1.07911781
H       -2.06518631      -0.26255702      -0.46207345
H       -0.74856688      -0.17125927      -1.76471156
H       -1.56807511       0.18909539       1.60396768
12
Frame=8 idx=003763 GeodesicLength=0.5750605899602053 rxn_smarts="[C:1]([C@@:2]1([C:5]#[N:6])[C:3]([H:10])([H:11])[N:4]1[H:12])([H:7])([H:8])[H:9]>>[C:1]([C@@:2]1([C-:5]=[N:6][H:11])[C+:3]([H:10])[N:4]1[H:12])([H:7])([H:8])[H:9]"
C        1.48902323      -0.27917124       0.37972856
C        0.05789440       0.16851785       0.30281053
C       -1.08389035      -0.69134902      -0.20715424
N       -0.90515279      -0.46240524       1.21276479
C       -0.23102477       1.28330100      -0.53536277
N       -0.44100098       1.41148034      -1.70389976
H        1.97654798      -0.21849373      -0.59387832
H        1.49750894      -1.31378821       0.71756068
H        2.03580004       0.35490301       1.07865135
H       -2.06839714      -0.29712339      -0.46423849
H       -0.76251618      -0.17084625      -1.77592939
H       -1.56479237       0.21497487       1.58894706
12
Frame=9 idx=003763 GeodesicLength=0.6470715733628316 rxn_smarts="[C:1]([C@@:2]1([C:5]#[N:6])[C:3]([H:10])([H:11])[N:4]1[H:12])([H:7])([H:8])[H:9]>>[C:1]([C@@:2]1([C-:5]=[N:6][H:11])[C+:3]([H:10])[N:4]1[H:12])([H:7])([H:8])[H:9]"
C        1.49251279      -0.28355144       0.38096219
C        0.06185759       0.16403623       0.29671032
C       -1.07985703      -0.70683548      -0.20433570
N       -0.90715451      -0.44947659       1.21038024
C       -0.22780531       1.28964074      -0.52473305
N       -0.44903607       1.43914276      -1.68848806
H        1.98478261      -0.22878245      -0.59061624
H        1.49864741      -1.31716615       0.72185711
H        2.03611152       0.35509600       1.07816653
H       -2.07127201      -0.33186450      -0.46592725
H       -0.77719795      -0.17071846      -1.78711218
H       -1.56158903       0.24047932       1.57313610
12
Frame=10 idx=003763 GeodesicLength=0.7191931051384894 rxn_smarts="[C:1]([C@@:2]1([C:5]#[N:6])[C:3]([H:10])([H:11])[N:4]1[H:12])([H:7])([H:8])[H:9]>>[C:1]([C@@:2]1([C-:5]=[N:6][H:11])[C+:3]([H:10])[N:4]1[H:12])([H:7])([H:8])[H:9]"
C        1.49597047      -0.28788132       0.38225251
C        0.06583796       0.15977313       0.29036841
C       -1.07578078      -0.72223744      -0.20134445
N       -0.90907048      -0.43638168       1.20754399
C       -0.22400176       1.29611022      -0.51428458
N       -0.45719114       1.46718117      -1.67257141
H        1.99316768      -0.23933077      -0.58717625
H        1.49966464      -1.32043490       0.72637020
H        2.03644174       0.35532709       1.07769020
H       -2.07385990      -0.36681810      -0.46712175
H       -0.79268065      -0.17089419      -1.79831007
H       -1.55849777       0.26558680       1.55658321
12
Frame=11 idx=003763 GeodesicLength=0.7913127461255733 rxn_smarts="[C:1]([C@@:2]1([C:5]#[N:6])[C:3]([H:10])([H:11])[N:4]1[H:12])([H:7])([H:8])[H:9]>>[C:1]([C@@:2]1([C-:5]=[N:6][H:11])[C+:3]([H:10])[N:4]1[H:12])([H:7])([H:8])[H:9]"
C        1.49936637      -0.29216404       0.38358703
C        0.06982399       0.15572342       0.28375362
C       -1.07161051      -0.73754815      -0.19817210
N       -0.91088295      -0.42311443       1.20419905
C       -0.21961700       1.30270585      -0.50403129
N       -0.46542735       1.49563295      -1.65607583
H        2.00167174      -0.25015620      -0.58352813
H        1.50055372      -1.32357904       0.73109190
H        2.03673499       0.35559079       1.07718339
H       -2.07609842      -0.40199418      -0.46778132
H       -0.80899030      -0.17139600      -1.80945465
H       -1.55552428       0.29029901       1.53922833
12
Frame=12 idx=003763 GeodesicLength=0.8634941512377848 rxn_smarts="[C:1]([C@@:2]1([C:5]#[N:6])[C:3]([H:10])([H:11])[N:4]1[H:12])([H:7])([H:8])[H:9]>>[C:1]([C@@:2]1([C-:5]=[N:6][H:11])[C+:3]([H:10])[N:4]1[H:12])([H:7])([H:8])[H:9]"
C        1.50271207      -0.29639909       0.38497436
C        0.07383083       0.15189069       0.27683991
C       -1.06735992      -0.75278426      -0.19484148
N       -0.91258726      -0.40966955       1.20033917
C       -0.21462650       1.30943317      -0.49396579
N       -0.47375341       1.52454234      -1.63895643
H        2.01032395      -0.26126333      -0.57965650
H        1.50130843      -1.32659610       0.73603905
H        2.03700386       0.35588020       1.07667813
H       -2.07802647      -0.43745481      -0.46790677
H       -0.82618700      -0.17223124      -1.82060269
H       -1.55263857       0.31465197       1.52105902
12
Frame=13 idx=003763 GeodesicLength=0.9357600189679689 rxn_smarts="[C:1]([C@@:2]1([C:5]#[N:6])[C:3]([H:10])([H:11])[N:4]1[H:12])([H:7])([H:8])[H:9]>>[C:1]([C@@:2]1([C-:5]=[N:6][H:11])[C+:3]([H:10])[N:4]1[H:12])([H:7])([H:8])[H:9]"
C        1.50600550      -0.30058344       0.38640910
C        0.07785219       0.14826727       0.26960019
C       -1.06301793      -0.76795927      -0.19135320
N       -0.91419874      -0.39606462       1.19594940
C       -0.20900202       1.31630885      -0.48412938
N       -0.48209483       1.55399220      -1.62118668
H        2.01912793      -0.27266299      -0.57556374
H        1.50192178      -1.32947869       0.74123411
H        2.03725359       0.35621329       1.07616433
H       -2.07962717      -0.47323135      -0.46746615
H       -0.84434108      -0.17342389      -1.83173615
H       -1.54987920       0.33862263       1.50207817
12
Frame=14 idx=003763 GeodesicLength=1.0080997054436664 rxn_smarts="[C:1]([C@@:2]1([C:5]#[N:6])[C:3]([H:10])([H:11])[N:4]1[H:12])([H:7])([H:8])[H:9]>>[C:1]([C@@:2]1([C-:5]=[N:6][H:11])[C+:3]([H:10])[N:4]1[H:12])([H:7])([H:8])[H:9]"
C        1.50923744      -0.30471385       0.38788991
C        0.08189171       0.14484549       0.26199761
C       -1.05857548      -0.78307579      -0.18771621
N       -0.91570553      -0.38230203       1.19099369
C       -0.20273237       1.32332732      -0.47453175
N       -0.49041091       1.58403306      -1.60270951
H        2.02808562      -0.28435729      -0.57121895
H        1.50238364      -1.33221105       0.74668144
H        2.03746242       0.35659039       1.07564219
H       -2.08089543      -0.50934908      -0.46642795
H       -0.86351238      -0.17500121      -1.84285213
H       -1.54722874       0.36221404       1.48225168
12
Frame=15 idx=003763 GeodesicLength=1.0805081960739942 rxn_smarts="[C:1]([C@@:2]1([C:5]#[N:6])[C:3]([H:10])([H:11])[N:4]1[H:12])([H:7])([H:8])[H:9]>>[C:1]([C@@:2]1([C-:5]=[N:6][H:11])[C+:3]([H:10])[N:4]1[H:12])([H:7])([H:8])[H:9]"
C        1.51240157      -0.30878497       0.38941103
C        0.08594545       0.14162899       0.25400415
C       -1.05402906      -0.79813867      -0.18393155
N       -0.91710630      -0.36838654       1.18545149
C       -0.19580616       1.33049520      -0.46519396
N       -0.49864077       1.61471003      -1.58347241
H        2.03720370      -0.29633133      -0.56661307
H        1.50268731      -1.33479015       0.75236724
H        2.03761628       0.35700892       1.07512054
H       -2.08182053      -0.54581788      -0.46475673
H       -0.88374836      -0.17701237      -1.85394495
H       -1.54470314       0.38541877       1.46155823
12
Frame=16 idx=003763 GeodesicLength=1.1529767334704342 rxn_smarts="[C:1]([C@@:2]1([C:5]#[N:6])[C:3]([H:10])([H:11])[N:4]1[H:12])([H:7])([H:8])[H:9]>>[C:1]([C@@:2]1([C-:5]=[N:6][H:11])[C+:3]([H:10])[N:4]1[H:12])([H:7])([H:8])[H:9]"
C        1.51548749      -0.31278845       0.39096546
C        0.09000817       0.13861328       0.24558504
C       -1.04937897      -0.81315216      -0.18000312
N       -0.91839982      -0.35432791       1.17929816
C       -0.18822047       1.33781037      -0.45613739
N       -0.50670368       1.64607479      -1.56342294
H        2.04648538      -0.30856219      -0.56172920
H        1.50282207      -1.33720682       0.75827426
H        2.03769422       0.35746941       1.07460788
H       -2.08239606      -0.58264436      -0.46241845
H       -0.90509812      -0.17951505      -1.86500523
H       -1.54230022       0.40822910       1.43998554
