17
Frame=0 idx=011516 GeodesicLength=0.0 rxn_smarts="[C:1]([C@@:2]1([H:11])[N:3]([H:12])[C@:4]1([C@@:5]1([H:14])[C:6]([H:15])([H:16])[N:7]1[H:17])[H:13])([H:8])([H:9])[H:10]>>[C:1]([C@@:2]1([H:11])[N:3]([H:12])[C@:4]1([C:5]([N:7]([C:6][H:15])[H:17])([H:14])[H:16])[H:13])([H:8])([H:9])[H:10]"
C       -1.99524473      -0.28178851       0.13729067
C       -1.10352603      -0.23344153      -1.07391854
N       -0.32466870       0.95583322      -1.41872552
C        0.37655443      -0.24927187      -0.99985848
C        1.13028793      -0.40354025       0.30183990
C        2.27782207       0.72166580       1.28136006
N        0.87317587       0.54050165       1.39848913
H       -2.91669760       0.27333941      -0.05060334
H       -1.52096172       0.12678277       1.02923700
H       -2.27158507      -1.31507195       0.35709888
H       -1.53604347      -0.70342420      -1.95279067
H       -0.37446069       1.65014891      -0.68223456
H        0.90186058      -0.73029712      -1.81946125
H        1.11238375      -1.42621888       0.67198131
H        2.71785590      -0.13295226       1.83088663
H        2.22700602      -0.15903788      -0.02599443
H        0.42624139       1.36677276       1.01540323
17
Frame=1 idx=011516 GeodesicLength=0.06067199821719188 rxn_smarts="[C:1]([C@@:2]1([H:11])[N:3]([H:12])[C@:4]1([C@@:5]1([H:14])[C:6]([H:15])([H:16])[N:7]1[H:17])[H:13])([H:8])([H:9])[H:10]>>[C:1]([C@@:2]1([H:11])[N:3]([H:12])[C@:4]1([C:5]([N:7]([C:6][H:15])[H:17])([H:14])[H:16])[H:13])([H:8])([H:9])[H:10]"
C       -2.00246937      -0.27602071       0.13183826
C       -1.10415678      -0.23315477      -1.07449066
N       -0.31749780       0.95197012      -1.41658035
C        0.37502133      -0.25761860      -0.99566245
C        1.13203791      -0.40898246       0.30371800
C        2.27225968       0.72969390       1.27388706
N        0.87619981       0.52593106       1.40605159
H       -2.92255983       0.27875657      -0.06359370
H       -1.53269536       0.13821670       1.02348513
H       -2.28011517      -1.30792719       0.35644939
H       -1.53626456      -0.70034926      -1.95514645
H       -0.36434134       1.64459657      -0.67814739
H        0.89762781      -0.74354305      -1.81438724
H        1.11655701      -1.43324388       0.67053956
H        2.74758597      -0.11090528       1.81327708
H        2.23867256      -0.14746571      -0.03285525
H        0.40413813       1.35004600       1.05161741
17
Frame=2 idx=011516 GeodesicLength=0.1214058133777525 rxn_smarts="[C:1]([C@@:2]1([H:11])[N:3]([H:12])[C@:4]1([C@@:5]1([H:14])[C:6]([H:15])([H:16])[N:7]1[H:17])[H:13])([H:8])([H:9])[H:10]>>[C:1]([C@@:2]1([H:11])[N:3]([H:12])[C@:4]1([C:5]([N:7]([C:6][H:15])[H:17])([H:14])[H:16])[H:13])([H:8])([H:9])[H:10]"
C       -2.00962621      -0.27011017       0.12638651
C       -1.10474090      -0.23283870      -1.07504312
N       -0.31014694       0.94803962      -1.41426918
C        0.37348176      -0.26616783      -0.99144558
C        1.13380034      -0.41474919       0.30561690
C        2.26624425       0.73765288       1.26635212
N        0.87929882       0.51128807       1.41340122
H       -2.92824753       0.28443197      -0.07655934
H       -1.54429941       0.14969982       1.01769089
H       -2.28876804      -1.30058292       0.35578669
H       -1.53646076      -0.69710674      -1.95753464
H       -0.35394774       1.63885533      -0.67377231
H        0.89339198      -0.75690559      -1.80932267
H        1.12066374      -1.44055507       0.66920349
H        2.77655626      -0.08751040       1.79524660
H        2.25029399      -0.13543659      -0.03995711
H        0.38250638       1.33199551       1.08821952
17
Frame=3 idx=011516 GeodesicLength=0.18208582196093254 rxn_smarts="[C:1]([C@@:2]1([H:11])[N:3]([H:12])[C@:4]1([C@@:5]1([H:14])[C:6]([H:15])([H:16])[N:7]1[H:17])[H:13])([H:8])([H:9])[H:10]>>[C:1]([C@@:2]1([H:11])[N:3]([H:12])[C@:4]1([C:5]([N:7]([C:6][H:15])[H:17])([H:14])[H:16])[H:13])([H:8])([H:9])[H:10]"
C       -2.01662773      -0.26404591       0.12089713
C       -1.10527634      -0.23250843      -1.07555087
N       -0.30263086       0.94396833      -1.41172824
C        0.37188146      -0.27489881      -0.98717004
C        1.13553458      -0.42080951       0.30752005
C        2.25976189       0.74549649       1.25876903
N        0.88249460       0.49655739       1.42049764
H       -2.93364326       0.29030751      -0.08954081
H       -1.55566462       0.16128343       1.01177509
H       -2.29744716      -1.29297329       0.35506547
H       -1.53665907      -0.69372022      -1.95989745
H       -0.34325945       1.63283281      -0.66907605
H        0.88903590      -0.77034040      -1.80419636
H        1.12462280      -1.44807251       0.66790677
H        2.80463366      -0.06274010       1.77681473
H        2.26177937      -0.12289292      -0.04727171
H        0.36146424       1.31255615       1.12518562
17
Frame=4 idx=011516 GeodesicLength=0.24278625643670837 rxn_smarts="[C:1]([C@@:2]1([H:11])[N:3]([H:12])[C@:4]1([C@@:5]1([H:14])[C:6]([H:15])([H:16])[N:7]1[H:17])[H:13])([H:8])([H:9])[H:10]>>[C:1]([C@@:2]1([H:11])[N:3]([H:12])[C@:4]1([C:5]([N:7]([C:6][H:15])[H:17])([H:14])[H:16])[H:13])([H:8])([H:9])[H:10]"
C       -2.02350773      -0.25782088       0.11544059
C       -1.10575422      -0.23215974      -1.07604041
N       -0.29497575       0.93982676      -1.40908057
C        0.37028363      -0.28378386      -0.98290615
C        1.13728369      -0.42718748       0.30941195
C        2.25282582       0.75316089       1.25119160
N        0.88573936       0.48175604       1.42736383
H       -2.93886094       0.29636984      -0.10248120
H       -1.56686342       0.17305920       1.00580268
H       -2.30610375      -1.28514992       0.35445331
H       -1.53682003      -0.69023495      -1.96226129
H       -0.33236909       1.62664174      -0.66418249
H        0.88469205      -0.78383146      -1.79911653
H        1.12845752      -1.45588029       0.66667200
H        2.83174364      -0.03672958       1.75807871
H        2.27319297      -0.10982627      -0.05482450
H        0.34103625       1.29178997       1.16247848
17
Frame=5 idx=011516 GeodesicLength=0.3034719864051541 rxn_smarts="[C:1]([C@@:2]1([H:11])[N:3]([H:12])[C@:4]1([C@@:5]1([H:14])[C:6]([H:15])([H:16])[N:7]1[H:17])[H:13])([H:8])([H:9])[H:10]>>[C:1]([C@@:2]1([H:11])[N:3]([H:12])[C@:4]1([C:5]([N:7]([C:6][H:15])[H:17])([H:14])[H:16])[H:13])([H:8])([H:9])[H:10]"
C       -2.03024298      -0.25142904       0.11005609
C       -1.10616596      -0.23179546      -1.07652165
N       -0.28720295       0.93563624      -1.40638588
C        0.36870485      -0.29279612      -0.97869353
C        1.13905203      -0.43388263       0.31126110
C        2.24543984       0.76058436       1.24365320
N        0.88901445       0.46689263       1.43398697
H       -2.94391109       0.30258715      -0.11534259
H       -1.57788854       0.18510791       0.99979564
H       -2.31465776      -1.27713046       0.35404782
H       -1.53693016      -0.68669219      -1.96462425
H       -0.32132019       1.62032735      -0.65916163
H        0.88039146      -0.79735264      -1.79413615
H        1.13213901      -1.46399302       0.66547217
H        2.85776203      -0.00955021       1.73915631
H        2.28452819      -0.09621040      -0.06260751
H        0.32128775       1.26969653       1.20004389
17
Frame=6 idx=011516 GeodesicLength=0.36416658953505493 rxn_smarts="[C:1]([C@@:2]1([H:11])[N:3]([H:12])[C@:4]1([C@@:5]1([H:14])[C:6]([H:15])([H:16])[N:7]1[H:17])[H:13])([H:8])([H:9])[H:10]>>[C:1]([C@@:2]1([H:11])[N:3]([H:12])[C@:4]1([C:5]([N:7]([C:6][H:15])[H:17])([H:14])[H:16])[H:13])([H:8])([H:9])[H:10]"
C       -2.03670831      -0.24486098       0.10466954
C       -1.10651420      -0.23143249      -1.07695361
N       -0.27932927       0.93128278      -1.40355816
C        0.36708747      -0.30190568      -0.97446730
C        1.14076253      -0.44084014       0.31309360
C        2.23757259       0.76773645       1.23623440
N        0.89232462       0.45195945       1.44033684
H       -2.94864847       0.30885209      -0.12819908
H       -1.58855519       0.19746779       0.99358924
H       -2.32296496      -1.26879227       0.35376377
H       -1.53704191      -0.68312787      -1.96688013
H       -0.31006979       1.61375267      -0.65398639
H        0.87600367      -0.81084822      -1.78913035
H        1.13548959      -1.47226943       0.66426951
H        2.88262176       0.01873857       1.71989300
H        2.29569789      -0.08196218      -0.07060709
H        0.30227198       1.24624946       1.23793221
17
Frame=7 idx=011516 GeodesicLength=0.42483318534843173 rxn_smarts="[C:1]([C@@:2]1([H:11])[N:3]([H:12])[C@:4]1([C@@:5]1([H:14])[C:6]([H:15])([H:16])[N:7]1[H:17])[H:13])([H:8])([H:9])[H:10]>>[C:1]([C@@:2]1([H:11])[N:3]([H:12])[C@:4]1([C:5]([N:7]([C:6][H:15])[H:17])([H:14])[H:16])[H:13])([H:8])([H:9])[H:10]"
C       -2.04296135      -0.23809723       0.09938593
C       -1.10678636      -0.23106404      -1.07738076
N       -0.27137269       0.92686465      -1.40076343
C        0.36550230      -0.31110606      -0.97032821
C        1.14249045      -0.44810672       0.31486221
C        2.22924716       0.77457128       1.22893918
N        0.89561057       0.43693919       1.44645360
H       -2.95320478       0.31520680      -0.14095688
H       -1.59897685       0.21024803       0.98730921
H       -2.33101302      -1.26021299       0.35381507
H       -1.53710703      -0.67957940      -1.96909944
H       -0.29870373       1.60707534      -0.64880383
H        0.87167441      -0.82434291      -1.78425963
H        1.13863135      -1.48085523       0.66306396
H        2.90624703       0.04804382       1.70052377
H        2.30675616      -0.06705725      -0.07884016
H        0.28396638       1.22147273       1.27607942
17
Frame=8 idx=011516 GeodesicLength=0.48551352009489057 rxn_smarts="[C:1]([C@@:2]1([H:11])[N:3]([H:12])[C@:4]1([C@@:5]1([H:14])[C:6]([H:15])([H:16])[N:7]1[H:17])[H:13])([H:8])([H:9])[H:10]>>[C:1]([C@@:2]1([H:11])[N:3]([H:12])[C@:4]1([C:5]([N:7]([C:6][H:15])[H:17])([H:14])[H:16])[H:13])([H:8])([H:9])[H:10]"
C       -2.04897392      -0.23111276       0.09420602
C       -1.10697921      -0.23069237      -1.07778405
N       -0.26330971       0.92235489      -1.39799829
C        0.36394536      -0.32039939      -0.96626644
C        1.14422546      -0.45568934       0.31654698
C        2.22043805       0.78108240       1.22177520
N        0.89884302       0.42177392       1.45232325
H       -2.95754753       0.32165226      -0.15361947
H       -1.60910485       0.22350359       0.98091391
H       -2.33878109      -1.25134381       0.35423025
H       -1.53714452      -0.67605661      -1.97123390
H       -0.28717513       1.60027312      -0.64364071
H        0.86738051      -0.83784190      -1.77949413
H        1.14154568      -1.48975014       0.66179931
H        2.92860034       0.07841495       1.68106135
H        2.31768922      -0.05141578      -0.08728251
H        0.26634832       1.19524697       1.31446322
17
Frame=9 idx=011516 GeodesicLength=0.546463912693735 rxn_smarts="[C:1]([C@@:2]1([H:11])[N:3]([H:12])[C@:4]1([C@@:5]1([H:14])[C:6]([H:15])([H:16])[N:7]1[H:17])[H:13])([H:8])([H:9])[H:10]>>[C:1]([C@@:2]1([H:11])[N:3]([H:12])[C@:4]1([C:5]([N:7]([C:6][H:15])[H:17])([H:14])[H:16])[H:13])([H:8])([H:9])[H:10]"
C       -2.05483020      -0.22386503       0.08916898
C       -1.10709439      -0.23031202      -1.07818120
N       -0.25510888       0.91780018      -1.39535981
C        0.36249046      -0.32981616      -0.96231684
C        1.14604003      -0.46365243       0.31816159
C        2.21113459       0.78730059       1.21475367
N        0.90196757       0.40639343       1.45800674
H       -2.96181782       0.32825368      -0.16617968
H       -1.61903449       0.23732357       0.97442332
H       -2.34634904      -1.24217756       0.35513319
H       -1.53714402      -0.67257483      -1.97330672
H       -0.27548777       1.59343185      -0.63859591
H        0.86325921      -0.85141551      -1.77488843
H        1.14434715      -1.49909745       0.66050983
H        2.94972917       0.10987244       1.66146014
H        2.32859894      -0.03496132      -0.09600254
H        0.24929949       1.16749657       1.35321368
17
Frame=10 idx=011516 GeodesicLength=0.6062801382160252 rxn_smarts="[C:1]([C@@:2]1([H:11])[N:3]([H:12])[C@:4]1([C@@:5]1([H:14])[C:6]([H:15])([H:16])[N:7]1[H:17])[H:13])([H:8])([H:9])[H:10]>>[C:1]([C@@:2]1([H:11])[N:3]([H:12])[C@:4]1([C:5]([N:7]([C:6][H:15])[H:17])([H:14])[H:16])[H:13])([H:8])([H:9])[H:10]"
C       -2.06004826      -0.21637361       0.08419057
C       -1.10711006      -0.22998791      -1.07851130
N       -0.24695004       0.91290985      -1.39265515
C        0.36086110      -0.33922476      -0.95843368
C        1.14774511      -0.47171390       0.31956962
C        2.20124250       0.79300406       1.20802292
N        0.90511077       0.39087362       1.46329816
H       -2.96541200       0.33465978      -0.17867184
H       -1.62820906       0.25183453       0.96762515
H       -2.35307281      -1.23250923       0.35640009
H       -1.53721231      -0.66926303      -1.97514796
H       -0.26360688       1.58619716      -0.63355171
H        0.85871841      -0.86482725      -1.77030853
H        1.14679567      -1.50832592       0.65885348
H        2.96892236       0.14208336       1.64215717
H        2.33876045      -0.01754817      -0.10468509
H        0.23346504       1.13821142       1.39184810
17
Frame=11 idx=011516 GeodesicLength=0.6666130276833151 rxn_smarts="[C:1]([C@@:2]1([H:11])[N:3]([H:12])[C@:4]1([C@@:5]1([H:14])[C:6]([H:15])([H:16])[N:7]1[H:17])[H:13])([H:8])([H:9])[H:10]>>[C:1]([C@@:2]1([H:11])[N:3]([H:12])[C@:4]1([C:5]([N:7]([C:6][H:15])[H:17])([H:14])[H:16])[H:13])([H:8])([H:9])[H:10]"
C       -2.06508594      -0.20853260       0.07939580
C       -1.10703211      -0.22965608      -1.07883731
N       -0.23860477       0.90795084      -1.39016292
C        0.35936934      -0.34880652      -0.95469998
C        1.14955078      -0.48023127       0.32088866
C        2.19074703       0.79844089       1.20144820
N        0.90805718       0.37500209       1.46844025
H       -2.96892312       0.34132436      -0.19102781
H       -1.63711885       0.26703711       0.96071260
H       -2.35959658      -1.22243220       0.35827395
H       -1.53725759      -0.66600754      -1.97690997
H       -0.25149203       1.57893187      -0.62873257
H        0.85438762      -0.87840596      -1.76593046
H        1.14919294      -1.51811729       0.65713214
H        2.98681565       0.17558294       1.62271044
H        2.34891132       0.00082180      -0.11367156
H        0.21807912       1.10709757       1.43097053
17
Frame=12 idx=011516 GeodesicLength=0.7270640747134948 rxn_smarts="[C:1]([C@@:2]1([H:11])[N:3]([H:12])[C@:4]1([C@@:5]1([H:14])[C:6]([H:15])([H:16])[N:7]1[H:17])[H:13])([H:8])([H:9])[H:10]>>[C:1]([C@@:2]1([H:11])[N:3]([H:12])[C@:4]1([C:5]([N:7]([C:6][H:15])[H:17])([H:14])[H:16])[H:13])([H:8])([H:9])[H:10]"
C       -2.06978218      -0.20027995       0.07475661
C       -1.10684786      -0.22934645      -1.07912697
N       -0.23008128       0.90278480      -1.38781568
C        0.35792175      -0.35858358      -0.95109507
C        1.15142988      -0.48915977       0.32205641
C        2.17951949       0.80361897       1.19504228
N        0.91083276       0.35868276       1.47339652
H       -2.97211244       0.34825150      -0.20327093
H       -1.64554445       0.28302577       0.95360318
H       -2.36577715      -1.21178187       0.36072306
H       -1.53733553      -0.66285149      -1.97851920
H       -0.23903799       1.57148310      -0.62409938
H        0.85003936      -0.89216752      -1.76170310
H        1.15158667      -1.52834788       0.65516739
H        3.00314090       0.21047925       1.60323694
H        2.35877182       0.02029495      -0.12284982
H        0.20327626       1.07389742       1.47049775
17
Frame=13 idx=011516 GeodesicLength=0.7876457643962487 rxn_smarts="[C:1]([C@@:2]1([H:11])[N:3]([H:12])[C@:4]1([C@@:5]1([H:14])[C:6]([H:15])([H:16])[N:7]1[H:17])[H:13])([H:8])([H:9])[H:10]>>[C:1]([C@@:2]1([H:11])[N:3]([H:12])[C@:4]1([C:5]([N:7]([C:6][H:15])[H:17])([H:14])[H:16])[H:13])([H:8])([H:9])[H:10]"
C       -2.07410544      -0.19153988       0.07028730
C       -1.10654631      -0.22906406      -1.07936137
N       -0.22133137       0.89735985      -1.38562644
C        0.35652156      -0.36860629      -0.94761902
C        1.15341801      -0.49853825       0.32304319
C        2.16743974       0.80858347       1.18876571
N        0.91341775       0.34178947       1.47816750
H       -2.97492453       0.35553781      -0.21538935
H       -1.65340899       0.29988053       0.94626744
H       -2.37163188      -1.20043755       0.36379902
H       -1.53747332      -0.65979298      -1.97993652
H       -0.22614882       1.56380580      -0.61968454
H        0.84564330      -0.90618277      -1.75761444
H        1.15408398      -1.53905752       0.65288497
H        3.01776334       0.24698763       1.58375442
H        2.36827480       0.04097550      -0.13218966
H        0.18900817       1.03829922       1.51045180
17
Frame=14 idx=011516 GeodesicLength=0.84827615532549 rxn_smarts="[C:1]([C@@:2]1([H:11])[N:3]([H:12])[C@:4]1([C@@:5]1([H:14])[C:6]([H:15])([H:16])[N:7]1[H:17])[H:13])([H:8])([H:9])[H:10]>>[C:1]([C@@:2]1([H:11])[N:3]([H:12])[C@:4]1([C:5]([N:7]([C:6][H:15])[H:17])([H:14])[H:16])[H:13])([H:8])([H:9])[H:10]"
C       -2.07795721      -0.18228547       0.06605050
C       -1.10611109      -0.22881779      -1.07954757
N       -0.21238885       0.89165966      -1.38369446
C        0.35517842      -0.37884538      -0.94433544
C        1.15550466      -0.50834724       0.32380514
C        2.15445586       0.81323520       1.18273476
N        0.91573571       0.32432123       1.48272135
H       -2.97731268       0.36311845      -0.22730687
H       -1.66059105       0.31772668       0.93869698
H       -2.37696372      -1.18835806       0.36766098
H       -1.53767845      -0.65689999      -1.98113213
H       -0.21283905       1.55591662      -0.61561214
H        0.84120056      -0.92043093      -1.75373486
H        1.15665335      -1.55022916       0.65022733
H        3.03044124       0.28494685       1.56441577
H        2.37731218       0.06299477      -0.14164538
H        0.17536012       1.00029457       1.55069604
17
Frame=15 idx=011516 GeodesicLength=0.9091302794590097 rxn_smarts="[C:1]([C@@:2]1([H:11])[N:3]([H:12])[C@:4]1([C@@:5]1([H:14])[C:6]([H:15])([H:16])[N:7]1[H:17])[H:13])([H:8])([H:9])[H:10]>>[C:1]([C@@:2]1([H:11])[N:3]([H:12])[C@:4]1([C:5]([N:7]([C:6][H:15])[H:17])([H:14])[H:16])[H:13])([H:8])([H:9])[H:10]"
C       -2.08136421      -0.17242348       0.06206285
C       -1.10556272      -0.22861122      -1.07967581
N       -0.20319482       0.88566211      -1.38206374
C        0.35391236      -0.38937929      -0.94125422
C        1.15776566      -0.51866815       0.32431739
C        2.14046461       0.81766273       1.17689957
N        0.91777565       0.30612320       1.48706805
H       -2.97930170       0.37115019      -0.23901254
H       -1.66703957       0.33664911       0.93086565
H       -2.38187654      -1.17543051       0.37237652
H       -1.53803108      -0.65417293      -1.98207754
H       -0.19898951       1.54781659      -0.61194558
H        0.83671095      -0.93502771      -1.75006590
H        1.15946962      -1.56198812       0.64713047
H        3.04110019       0.32468163       1.54527433
H        2.38590736       0.08645969      -0.15116890
H        0.16225377       0.95949616       1.59126940
17
Frame=16 idx=011516 GeodesicLength=0.9701750786994799 rxn_smarts="[C:1]([C@@:2]1([H:11])[N:3]([H:12])[C@:4]1([C@@:5]1([H:14])[C:6]([H:15])([H:16])[N:7]1[H:17])[H:13])([H:8])([H:9])[H:10]>>[C:1]([C@@:2]1([H:11])[N:3]([H:12])[C@:4]1([C:5]([N:7]([C:6][H:15])[H:17])([H:14])[H:16])[H:13])([H:8])([H:9])[H:10]"
C       -2.08411857      -0.16182116       0.05837547
C       -1.10481372      -0.22845955      -1.07971011
N       -0.19367958       0.87921400      -1.38073858
C        0.35269806      -0.40028555      -0.93839701
C        1.16016370      -0.52952955       0.32451583
C        2.12512867       0.82188497       1.17122909
N        0.91944986       0.28704733       1.49120357
H       -2.98059039       0.37978610      -0.25041825
H       -1.67248546       0.35675802       0.92277786
H       -2.38620551      -1.16139941       0.37801873
H       -1.53847993      -0.65161780      -1.98270992
H       -0.18445211       1.53934585      -0.60869826
H        0.83206499      -0.95007281      -1.74663671
H        1.16259554      -1.57430175       0.64344423
H        3.04929787       0.36653030       1.52628935
H        2.39379439       0.11147828      -0.16072285
H        0.14963219       0.91544272       1.63217755
