11
Frame=0 idx=002301 GeodesicLength=0.0 rxn_smarts="[C:1]([N:2](/[C:3](=[N:4]/[H:11])[C:5]#[N:6])[H:10])([H:7])([H:8])[H:9]>>[C:1](/[N:2]=[C:3](/[N:4]([H:10])[H:11])[C:5]#[N:6])([H:7])([H:8])[H:9]"
C       -1.35122327      -0.52544695      -0.78749647
N       -0.56881771      -0.26167074       0.39351742
C        0.63228972       0.24959028       0.44933584
N        0.80192359       0.73194038       1.66442224
C        1.57909719       0.28782820      -0.63977079
N        2.31729656       0.30655465      -1.51715476
H       -0.71614255      -0.60064135      -1.67444831
H       -2.08265435       0.26924015      -0.95738907
H       -1.89163807      -1.46471718      -0.66961238
H       -0.43854374       0.18851625       1.66044966
H        1.71841268       0.81880626       2.07814664
11
Frame=1 idx=002301 GeodesicLength=0.04835506071833022 rxn_smarts="[C:1]([N:2](/[C:3](=[N:4]/[H:11])[C:5]#[N:6])[H:10])([H:7])([H:8])[H:9]>>[C:1](/[N:2]=[C:3](/[N:4]([H:10])[H:11])[C:5]#[N:6])([H:7])([H:8])[H:9]"
C       -1.34786088      -0.53490488      -0.79023738
N       -0.58931730      -0.21203222       0.38959742
C        0.63600477       0.23383436       0.45804237
N        0.82621988       0.68778649       1.68162356
C        1.56768509       0.34208591      -0.63990860
N        2.29465137       0.34405991      -1.52690024
H       -0.69847694      -0.65956022      -1.66112177
H       -2.07087913       0.25442982      -1.01201670
H       -1.89573324      -1.46427794      -0.63403612
H       -0.47363462       0.26044361       1.65488866
H        1.75134099       0.74813517       2.08006879
11
Frame=2 idx=002301 GeodesicLength=0.09618749269370305 rxn_smarts="[C:1]([N:2](/[C:3](=[N:4]/[H:11])[C:5]#[N:6])[H:10])([H:7])([H:8])[H:9]>>[C:1](/[N:2]=[C:3](/[N:4]([H:10])[H:11])[C:5]#[N:6])([H:7])([H:8])[H:9]"
C       -1.34527338      -0.54490976      -0.79128649
N       -0.61040722      -0.15337757       0.38100872
C        0.63906675       0.21517464       0.46363646
N        0.84787041       0.63685231       1.69630202
C        1.55905484       0.38738653      -0.63691480
N        2.27367218       0.39898144      -1.53383142
H       -0.68158136      -0.72469868      -1.64154365
H       -2.05827054       0.23500985      -1.07065828
H       -1.90200928      -1.46038104      -0.59050344
H       -0.50255943       0.34078069       1.64397561
H        1.78043703       0.66918159       2.07981526
11
Frame=3 idx=002301 GeodesicLength=0.14441534398869338 rxn_smarts="[C:1]([N:2](/[C:3](=[N:4]/[H:11])[C:5]#[N:6])[H:10])([H:7])([H:8])[H:9]>>[C:1](/[N:2]=[C:3](/[N:4]([H:10])[H:11])[C:5]#[N:6])([H:7])([H:8])[H:9]"
C       -1.34466735      -0.55356497      -0.79050316
N       -0.62829379      -0.09387461       0.36718926
C        0.64079311       0.19596809       0.46486235
N        0.86360390       0.58211936       1.70725066
C        1.55410164       0.42536718      -0.63203908
N        2.26320329       0.45382899      -1.53300649
H       -0.67046246      -0.78058630      -1.62095355
H       -2.05209217       0.21129146      -1.12024255
H       -1.90563116      -1.45582861      -0.54635132
H       -0.52341241       0.41743027       1.62923231
H        1.80285741       0.59784914       2.07456156
11
Frame=4 idx=002301 GeodesicLength=0.1942228556983331 rxn_smarts="[C:1]([N:2](/[C:3](=[N:4]/[H:11])[C:5]#[N:6])[H:10])([H:7])([H:8])[H:9]>>[C:1](/[N:2]=[C:3](/[N:4]([H:10])[H:11])[C:5]#[N:6])([H:7])([H:8])[H:9]"
C       -1.34584503      -0.56032388      -0.78825175
N       -0.64140689      -0.03886076       0.34968706
C        0.64145053       0.17802124       0.46213878
N        0.87303599       0.53057031       1.71343347
C        1.55389253       0.45438222      -0.62596418
N        2.26362262       0.50312196      -1.52564603
H       -0.66581492      -0.82283180      -1.60346010
H       -2.05427707       0.18569437      -1.15617595
H       -1.90465985      -1.45237024      -0.50466562
H       -0.53775889       0.48517356       1.61264811
H        1.81776100       0.53742302       2.06625622
11
Frame=5 idx=002301 GeodesicLength=0.24548928644947987 rxn_smarts="[C:1]([N:2](/[C:3](=[N:4]/[H:11])[C:5]#[N:6])[H:10])([H:7])([H:8])[H:9]>>[C:1](/[N:2]=[C:3](/[N:4]([H:10])[H:11])[C:5]#[N:6])([H:7])([H:8])[H:9]"
C       -1.34814579      -0.56593809      -0.78480047
N       -0.65033075       0.01120689       0.32968622
C        0.64137062       0.16164835       0.45631891
N        0.87757408       0.48315695       1.71556499
C        1.55734681       0.47692985      -0.61943703
N        2.27192546       0.54885663      -1.51371239
H       -0.66592799      -0.85584768      -1.58892928
H       -2.06220720       0.15953836      -1.18127754
H       -1.90035723      -1.44961213      -0.46436687
H       -0.54775202       0.54636593       1.59442022
H        1.82650402       0.48369495       2.05653325
11
Frame=6 idx=002301 GeodesicLength=0.29750336049440473 rxn_smarts="[C:1]([N:2](/[C:3](=[N:4]/[H:11])[C:5]#[N:6])[H:10])([H:7])([H:8])[H:9]>>[C:1](/[N:2]=[C:3](/[N:4]([H:10])[H:11])[C:5]#[N:6])([H:7])([H:8])[H:9]"
C       -1.35102044      -0.57062319      -0.78070171
N       -0.65560301       0.05493434       0.30871052
C        0.64104026       0.14658866       0.44863374
N        0.87851936       0.44122208       1.71468768
C        1.56337078       0.49532197      -0.61256692
N        2.28500552       0.58938036      -1.49909290
H       -0.66945301      -0.88092661      -1.57789166
H       -2.07418645       0.13427439      -1.19682199
H       -1.89321815      -1.44776850      -0.42683568
H       -0.55503387       0.60129554       1.57544316
H        1.83057901       0.43630096       2.04643575
11
Frame=7 idx=002301 GeodesicLength=0.3503949061592142 rxn_smarts="[C:1]([N:2](/[C:3](=[N:4]/[H:11])[C:5]#[N:6])[H:10])([H:7])([H:8])[H:9]>>[C:1](/[N:2]=[C:3](/[N:4]([H:10])[H:11])[C:5]#[N:6])([H:7])([H:8])[H:9]"
C       -1.35447893      -0.57516340      -0.77583789
N       -0.65807590       0.09420054       0.28652539
C        0.64069191       0.13158321       0.43940107
N        0.87689771       0.40240290       1.71147466
C        1.57138595       0.50954266      -0.60559361
N        2.30128290       0.63148644      -1.48188234
H       -0.67552787      -0.90391215      -1.56796186
H       -2.08754692       0.10986950      -1.20696940
H       -1.88605433      -1.44521124      -0.38968860
H       -0.55985484       0.65368188       1.55452803
H        1.83128033       0.39151965       2.03600455
11
Frame=8 idx=002301 GeodesicLength=0.4038157732903535 rxn_smarts="[C:1]([N:2](/[C:3](=[N:4]/[H:11])[C:5]#[N:6])[H:10])([H:7])([H:8])[H:9]>>[C:1](/[N:2]=[C:3](/[N:4]([H:10])[H:11])[C:5]#[N:6])([H:7])([H:8])[H:9]"
C       -1.35818169      -0.57956283      -0.77045955
N       -0.65841464       0.12956314       0.26362466
C        0.64028014       0.11752998       0.42889132
N        0.87330877       0.36701858       1.70640101
C        1.58072460       0.52187245      -0.59860355
N        2.31944188       0.67290047      -1.46285223
H       -0.68330908      -0.92487896      -1.55916317
H       -2.10197920       0.08630361      -1.21258810
H       -1.87819090      -1.44228656      -0.35324989
H       -0.56298455       0.70332219       1.53249173
H        1.82930467       0.34821794       2.02550778
11
Frame=9 idx=002301 GeodesicLength=0.45793083716557803 rxn_smarts="[C:1]([N:2](/[C:3](=[N:4]/[H:11])[C:5]#[N:6])[H:10])([H:7])([H:8])[H:9]>>[C:1](/[N:2]=[C:3](/[N:4]([H:10])[H:11])[C:5]#[N:6])([H:7])([H:8])[H:9]"
C       -1.36223538      -0.58415657      -0.76444765
N       -0.65704475       0.16187503       0.23977475
C        0.63987699       0.10431421       0.41701668
N        0.86826900       0.33451570       1.69950980
C        1.59094158       0.53276547      -0.59203267
N        2.33958595       0.71619226      -1.44132369
H       -0.69256194      -0.94629939      -1.55020030
H       -2.11653810       0.06339026      -1.21540867
H       -1.87096936      -1.43817586      -0.31642063
H       -0.56459384       0.75112215       1.50899958
H        1.82526985       0.30445673       2.01453280
11
Frame=10 idx=002301 GeodesicLength=0.5122101142116595 rxn_smarts="[C:1]([N:2](/[C:3](=[N:4]/[H:11])[C:5]#[N:6])[H:10])([H:7])([H:8])[H:9]>>[C:1](/[N:2]=[C:3](/[N:4]([H:10])[H:11])[C:5]#[N:6])([H:7])([H:8])[H:9]"
C       -1.36623299      -0.58882017      -0.75796863
N       -0.65419792       0.19140193       0.21528931
C        0.63959679       0.09208514       0.40419603
N        0.86207084       0.30484109       1.69127542
C        1.60216824       0.54263580      -0.58537245
N        2.35948508       0.76047454      -1.41866480
H       -0.70255660      -0.96817321      -1.54084832
H       -2.13053516       0.04131942      -1.21616496
H       -1.86402948      -1.43283555      -0.27959556
H       -0.56513052       0.79712794       1.48442144
H        1.81936171       0.25994307       2.00343253
11
Frame=11 idx=002301 GeodesicLength=0.5673532783511568 rxn_smarts="[C:1]([N:2](/[C:3](=[N:4]/[H:11])[C:5]#[N:6])[H:10])([H:7])([H:8])[H:9]>>[C:1](/[N:2]=[C:3](/[N:4]([H:10])[H:11])[C:5]#[N:6])([H:7])([H:8])[H:9]"
C       -1.37072840      -0.59384064      -0.75076353
N       -0.65013832       0.21879152       0.18954154
C        0.63944252       0.08043418       0.38978675
N        0.85500526       0.27662345       1.68122620
C        1.61382029       0.55182764      -0.57956493
N        2.38150768       0.80807411      -1.39214282
H       -0.71394271      -0.99213433      -1.53019166
H       -2.14424549       0.01965146      -1.21548256
H       -1.85845208      -1.42566981      -0.24153292
H       -0.56430107       0.84191166       1.45810028
H        1.81203231       0.21433076       1.99102365
11
Frame=12 idx=002301 GeodesicLength=0.6229824353443608 rxn_smarts="[C:1]([N:2](/[C:3](=[N:4]/[H:11])[C:5]#[N:6])[H:10])([H:7])([H:8])[H:9]>>[C:1](/[N:2]=[C:3](/[N:4]([H:10])[H:11])[C:5]#[N:6])([H:7])([H:8])[H:9]"
C       -1.37530190      -0.59906419      -0.74296628
N       -0.64491673       0.24416267       0.16274343
C        0.63957926       0.06944651       0.37418218
N        0.84718335       0.25006173       1.66979142
C        1.62628832       0.56046406      -0.57403673
N        2.40340695       0.85810206      -1.36320411
H       -0.72608701      -1.01780012      -1.51818508
H       -2.15728896      -0.00151824      -1.21370965
H       -1.85362983      -1.41670485      -0.20264883
H       -0.56240741       0.88568613       1.43020623
H        1.80317395       0.16716424       1.97782743
11
Frame=13 idx=002301 GeodesicLength=0.6790988806662559 rxn_smarts="[C:1]([N:2](/[C:3](=[N:4]/[H:11])[C:5]#[N:6])[H:10])([H:7])([H:8])[H:9]>>[C:1](/[N:2]=[C:3](/[N:4]([H:10])[H:11])[C:5]#[N:6])([H:7])([H:8])[H:9]"
C       -1.38007469      -0.60441759      -0.73464974
N       -0.63879577       0.26745663       0.13500889
C        0.64001595       0.05911748       0.35727082
N        0.83887759       0.22458929       1.65691308
C        1.63902378       0.56948214      -0.56902963
N        2.42603486       0.90911365      -1.33103579
H       -0.73910655      -1.04468224      -1.50499241
H       -2.17002680      -0.02212191      -1.21067848
H       -1.84940732      -1.40611053      -0.16325869
H       -0.55978057       0.92771302       1.40116565
H        1.79323953       0.11986005       1.96328631
11
Frame=14 idx=002301 GeodesicLength=0.7351161326852768 rxn_smarts="[C:1]([N:2](/[C:3](=[N:4]/[H:11])[C:5]#[N:6])[H:10])([H:7])([H:8])[H:9]>>[C:1](/[N:2]=[C:3](/[N:4]([H:10])[H:11])[C:5]#[N:6])([H:7])([H:8])[H:9]"
C       -1.38462581      -0.60966528      -0.72604511
N       -0.63161542       0.28859222       0.10662419
C        0.64094141       0.04900163       0.33974655
N        0.83010831       0.20036249       1.64321485
C        1.65279909       0.57748881      -0.56364829
N        2.44656514       0.96077766      -1.29755484
H       -0.75256040      -1.07184953      -1.49107021
H       -2.18212903      -0.04182833      -1.20639162
H       -1.84502528      -1.39414780      -0.12416311
H       -0.55653245       0.96839100       1.37096852
H        1.78207443       0.07287714       1.94831907
11
Frame=15 idx=002301 GeodesicLength=0.791654329003639 rxn_smarts="[C:1]([N:2](/[C:3](=[N:4]/[H:11])[C:5]#[N:6])[H:10])([H:7])([H:8])[H:9]>>[C:1](/[N:2]=[C:3](/[N:4]([H:10])[H:11])[C:5]#[N:6])([H:7])([H:8])[H:9]"
C       -1.38945000      -0.61502094      -0.71693472
N       -0.62398593       0.30786969       0.07739645
C        0.64213344       0.03972235       0.32062723
N        0.82117940       0.17634789       1.62782007
C        1.66581745       0.58796193      -0.55895494
N        2.46897261       1.01147588      -1.25984919
H       -0.76686604      -1.10009186      -1.47567862
H       -2.19415110      -0.06114753      -1.20096112
H       -1.84109302      -1.38057883      -0.08469102
H       -0.55299752       1.00678106       1.34007285
H        1.77044070       0.02668037       1.93115301
11
Frame=16 idx=002301 GeodesicLength=0.8481015479355914 rxn_smarts="[C:1]([N:2](/[C:3](=[N:4]/[H:11])[C:5]#[N:6])[H:10])([H:7])([H:8])[H:9]>>[C:1](/[N:2]=[C:3](/[N:4]([H:10])[H:11])[C:5]#[N:6])([H:7])([H:8])[H:9]"
C       -1.39401176      -0.62017925      -0.70765198
N       -0.61576680       0.32515408       0.04784820
C        0.64377052       0.03079189       0.30096727
N        0.81201956       0.15309877       1.61173128
C        1.67906789       0.59903793      -0.55374244
N        2.49000366       1.06053106      -1.22106577
H       -0.78136808      -1.12785504      -1.45984311
H       -2.20588609      -0.07959360      -1.19415732
H       -1.83645614      -1.36613957      -0.04600941
H       -0.54950602       1.04348906       1.30862598
H        1.75813325      -0.01833533       1.91329730
