12
Frame=0 idx=000613 GeodesicLength=0.0 rxn_smarts="[C:1]1([H:7])([H:8])[C@@:2]2([H:9])[C@:3]3([H:10])[O:4][C@@:5]2([H:11])[C@:6]13[H:12]>>[C:1]([C@@:6]1([H:12])[C@@:3]2([H:10])[C:2]([H:7])([H:9])[C@:5]1([H:11])[O:4]2)[H:8]"
C        1.52983703      -0.47171193      -0.37827210
C       -0.31316930      -0.71634465       0.66578628
C       -0.30619678       0.82106589       0.56939131
O       -1.61914670       0.79720485      -0.06004877
C       -0.88823656      -0.29703620      -0.69255845
C        0.43087455       0.51097241      -0.74213136
H        0.73700501      -1.29126415       0.40732402
H        2.15459448       0.00032744       0.40333584
H       -0.84938537      -1.28350570       1.42688478
H       -0.09978737       1.55620041       1.34457512
H       -1.39201142      -0.89649055      -1.44613715
H        0.61562247       1.27058213      -1.49814956
12
Frame=1 idx=000613 GeodesicLength=0.051194484796382375 rxn_smarts="[C:1]1([H:7])([H:8])[C@@:2]2([H:9])[C@:3]3([H:10])[O:4][C@@:5]2([H:11])[C@:6]13[H:12]>>[C:1]([C@@:6]1([H:12])[C@@:3]2([H:10])[C:2]([H:7])([H:9])[C@:5]1([H:11])[O:4]2)[H:8]"
C        1.52578536      -0.46848603      -0.36755717
C       -0.31159233      -0.71736379       0.66647335
C       -0.30770731       0.82001176       0.57060961
O       -1.61836484       0.79922871      -0.06162414
C       -0.88804780      -0.29698271      -0.69153954
C        0.43150979       0.51047768      -0.74342064
H        0.73920960      -1.31533821       0.40420630
H        2.16571193       0.01008296       0.39648091
H       -0.85621304      -1.27729270       1.42684438
H       -0.10047937       1.55756374       1.34323968
H       -1.39145237      -0.89516876      -1.44643220
H        0.61164037       1.27326736      -1.49728052
12
Frame=2 idx=000613 GeodesicLength=0.10239455396645497 rxn_smarts="[C:1]1([H:7])([H:8])[C@@:2]2([H:9])[C@:3]3([H:10])[O:4][C@@:5]2([H:11])[C@:6]13[H:12]>>[C:1]([C@@:6]1([H:12])[C@@:3]2([H:10])[C:2]([H:7])([H:9])[C@:5]1([H:11])[O:4]2)[H:8]"
C        1.52160196      -0.46534206      -0.35633950
C       -0.31009671      -0.71836182       0.66725706
C       -0.30932930       0.81900749       0.57187689
O       -1.61761417       0.80127603      -0.06327177
C       -0.88783477      -0.29691190      -0.69048943
C        0.43221563       0.50995214      -0.74458037
H        0.74128842      -1.33933507       0.40088590
H        2.17702853       0.01990724       0.38895775
H       -0.86297466      -1.27116235       1.42676659
H       -0.10132607       1.55897963       1.34194708
H       -1.39079126      -0.89385567      -1.44672381
H        0.60783239       1.27584634      -1.49628638
12
Frame=3 idx=000613 GeodesicLength=0.15360153654619133 rxn_smarts="[C:1]1([H:7])([H:8])[C@@:2]2([H:9])[C@:3]3([H:10])[O:4][C@@:5]2([H:11])[C@:6]13[H:12]>>[C:1]([C@@:6]1([H:12])[C@@:3]2([H:10])[C:2]([H:7])([H:9])[C@:5]1([H:11])[O:4]2)[H:8]"
C        1.51729517      -0.46225763      -0.34461341
C       -0.30869596      -0.71933696       0.66814527
C       -0.31107006       0.81805295       0.57319770
O       -1.61689485       0.80334609      -0.06500023
C       -0.88759233      -0.29682621      -0.68940769
C        0.43299591       0.50939482      -0.74559900
H        0.74326939      -1.36322554       0.39737752
H        2.18854333       0.02975297       0.38071535
H       -0.86969473      -1.26511595       1.42665529
H       -0.10233801       1.56044969       1.34070083
H       -1.39001388      -0.89255629      -1.44701508
H        0.60419604       1.27832205      -1.49515654
12
Frame=4 idx=000613 GeodesicLength=0.20481486690802128 rxn_smarts="[C:1]1([H:7])([H:8])[C@@:2]2([H:9])[C@:3]3([H:10])[O:4][C@@:5]2([H:11])[C@:6]13[H:12]>>[C:1]([C@@:6]1([H:12])[C@@:3]2([H:10])[C:2]([H:7])([H:9])[C@:5]1([H:11])[O:4]2)[H:8]"
C        1.51286871      -0.45921202      -0.33237637
C       -0.30740304      -0.72028794       0.66914521
C       -0.31293668       0.81714777       0.57457637
O       -1.61620692       0.80543810      -0.06681757
C       -0.88731615      -0.29672791      -0.68829404
C        0.43385453       0.50880446      -0.74646532
H        0.74518865      -1.38697714       0.39369526
H        2.20025375       0.03957127       0.37170818
H       -0.87639855      -1.25915355       1.42651344
H       -0.10352590       1.56197489       1.33950483
H       -1.38910800      -0.89127490      -1.44730920
H        0.60072961       1.28069697      -1.49388080
12
Frame=5 idx=000613 GeodesicLength=0.25602984613832563 rxn_smarts="[C:1]1([H:7])([H:8])[C@@:2]2([H:9])[C@:3]3([H:10])[O:4][C@@:5]2([H:11])[C@:6]13[H:12]>>[C:1]([C@@:6]1([H:12])[C@@:3]2([H:10])[C:2]([H:7])([H:9])[C@:5]1([H:11])[O:4]2)[H:8]"
C        1.50832826      -0.45618124      -0.31962570
C       -0.30622973      -0.72121101       0.67026401
C       -0.31493806       0.81629373       0.57601707
O       -1.61555217       0.80755017      -0.06873264
C       -0.88700070      -0.29661871      -0.68714856
C        0.43479474       0.50818320      -0.74716771
H        0.74708189      -1.41055821       0.38985588
H        2.21215352       0.04929938       0.36188852
H       -0.88310627      -1.25327674       1.42634499
H       -0.10490329       1.56355922       1.33836221
H       -1.38805856      -0.89001669      -1.44760969
H        0.59743036       1.28297689      -1.49244838
12
Frame=6 idx=000613 GeodesicLength=0.30724794231113706 rxn_smarts="[C:1]1([H:7])([H:8])[C@@:2]2([H:9])[C@:3]3([H:10])[O:4][C@@:5]2([H:11])[C@:6]13[H:12]>>[C:1]([C@@:6]1([H:12])[C@@:3]2([H:10])[C:2]([H:7])([H:9])[C@:5]1([H:11])[O:4]2)[H:8]"
C        1.50368123      -0.45313460      -0.30635644
C       -0.30518644      -0.72210220       0.67150971
C       -0.31708438       0.81549288       0.57752407
O       -1.61493305       0.80967913      -0.07075369
C       -0.88663953      -0.29650072      -0.68597079
C        0.43581866       0.50753552      -0.74769411
H        0.74899219      -1.43393655       0.38587634
H        2.22423320       0.05885998       0.35120473
H       -0.88984147      -1.24748189       1.42615169
H       -0.10648598       1.56520673       1.33727623
H       -1.38684755      -0.88878806      -1.44791934
H        0.59429310       1.28516979      -1.49084841
12
Frame=7 idx=000613 GeodesicLength=0.3584663770722344 rxn_smarts="[C:1]1([H:7])([H:8])[C@@:2]2([H:9])[C@:3]3([H:10])[O:4][C@@:5]2([H:11])[C@:6]13[H:12]>>[C:1]([C@@:6]1([H:12])[C@@:3]2([H:10])[C:2]([H:7])([H:9])[C@:5]1([H:11])[O:4]2)[H:8]"
C        1.49893242      -0.45004153      -0.29256462
C       -0.30428262      -0.72295561       0.67288930
C       -0.31938689       0.81474901       0.57910116
O       -1.61435292       0.81182170      -0.07288948
C       -0.88622648      -0.29637514      -0.68476066
C        0.43692816       0.50686764      -0.74803252
H        0.75096527      -1.45707891       0.38177300
H        2.23648063       0.06816792       0.33960903
H       -0.89662118      -1.24176818       1.42593635
H       -0.10829231       1.56692404       1.33624970
H       -1.38545776      -0.88759518      -1.44824145
H        0.59131369       1.28728424      -1.48906982
12
Frame=8 idx=000613 GeodesicLength=0.4096888924974392 rxn_smarts="[C:1]1([H:7])([H:8])[C@@:2]2([H:9])[C@:3]3([H:10])[O:4][C@@:5]2([H:11])[C@:6]13[H:12]>>[C:1]([C@@:6]1([H:12])[C@@:3]2([H:10])[C:2]([H:7])([H:9])[C@:5]1([H:11])[O:4]2)[H:8]"
C        1.49408871      -0.44686598      -0.27824561
C       -0.30352600      -0.72376428       0.67441065
C       -0.32185894       0.81406701       0.58075213
O       -1.61381673       0.81397304      -0.07514864
C       -0.88575402      -0.29624335      -0.68351775
C        0.43812410       0.50618895      -0.74816988
H        0.75305091      -1.47995471       0.37756383
H        2.24887984       0.07712477       0.32704872
H       -0.90346360      -1.23613144       1.42570060
H       -0.11034323       1.56871916       1.33528624
H       -1.38386802      -0.88644530      -1.44857893
H        0.58848697       1.28933213      -1.48710137
12
Frame=9 idx=000613 GeodesicLength=0.46091490773821114 rxn_smarts="[C:1]1([H:7])([H:8])[C@@:2]2([H:9])[C@:3]3([H:10])[O:4][C@@:5]2([H:11])[C@:6]13[H:12]>>[C:1]([C@@:6]1([H:12])[C@@:3]2([H:10])[C:2]([H:7])([H:9])[C@:5]1([H:11])[O:4]2)[H:8]"
C        1.48915649      -0.44358576      -0.26340437
C       -0.30292142      -0.72452038       0.67607969
C       -0.32450893       0.81345205       0.58247959
O       -1.61332924       0.81612811      -0.07753765
C       -0.88521721      -0.29610631      -0.68224194
C        0.43940597       0.50551002      -0.74809911
H        0.75529015      -1.50254877       0.37325627
H        2.26141434       0.08565663       0.31350297
H       -0.91038026      -1.23056715       1.42544927
H       -0.11265225       1.57059899       1.33438696
H       -1.38206407      -0.88534486      -1.44893393
H        0.58580643       1.29132742      -1.48493776
12
Frame=10 idx=000613 GeodesicLength=0.5121421999568777 rxn_smarts="[C:1]1([H:7])([H:8])[C@@:2]2([H:9])[C@:3]3([H:10])[O:4][C@@:5]2([H:11])[C@:6]13[H:12]>>[C:1]([C@@:6]1([H:12])[C@@:3]2([H:10])[C:2]([H:7])([H:9])[C@:5]1([H:11])[O:4]2)[H:8]"
C        1.48413854      -0.44014941      -0.24803244
C       -0.30247359      -0.72521453       0.67790469
C       -0.32735545       0.81291175       0.58428748
O       -1.61289749       0.81828017      -0.08006632
C       -0.88460600      -0.29596474      -0.68093251
C        0.44077477       0.50484429      -0.74780354
H        0.75775121      -1.52481267       0.36887043
H        2.27405784       0.09361833       0.29890730
H       -0.91738551      -1.22507086       1.42518145
H       -0.11525168       1.57257613       1.33355528
H       -1.38001878      -0.88430242      -1.44930852
H        0.58326616       1.29328396      -1.48256331
12
Frame=11 idx=000613 GeodesicLength=0.5633629989340104 rxn_smarts="[C:1]1([H:7])([H:8])[C@@:2]2([H:9])[C@:3]3([H:10])[O:4][C@@:5]2([H:11])[C@:6]13[H:12]>>[C:1]([C@@:6]1([H:12])[C@@:3]2([H:10])[C:2]([H:7])([H:9])[C@:5]1([H:11])[O:4]2)[H:8]"
C        1.47903923      -0.43652054      -0.23213122
C       -0.30218491      -0.72583664       0.67989192
C       -0.33041218       0.81245389       0.58617768
O       -1.61252815       0.82042256      -0.08274223
C       -0.88391277      -0.29581856      -0.67958883
C        0.44222944       0.50420649      -0.74727241
H        0.76049395      -1.54671297       0.36441733
H        2.28678333       0.10088913       0.28323035
H       -0.92448753      -1.21963849       1.42489870
H       -0.11816527       1.57466138       1.33279167
H       -1.37771190      -0.88332532      -1.44970357
H        0.58085678       1.29521906      -1.47996940
12
Frame=12 idx=000613 GeodesicLength=0.6145777327866331 rxn_smarts="[C:1]1([H:7])([H:8])[C@@:2]2([H:9])[C@:3]3([H:10])[O:4][C@@:5]2([H:11])[C@:6]13[H:12]>>[C:1]([C@@:6]1([H:12])[C@@:3]2([H:10])[C:2]([H:7])([H:9])[C@:5]1([H:11])[O:4]2)[H:8]"
C        1.47386728      -0.43264476      -0.21569337
C       -0.30205464      -0.72637346       0.68204869
C       -0.33369837       0.81208888       0.58815306
O       -1.61223123       0.82254594      -0.08557421
C       -0.88312610      -0.29566779      -0.67820984
C        0.44376820       0.50361769      -0.74649137
H        0.76358465      -1.56821209       0.35991095
H        2.29955403       0.10730786       0.26641961
H       -0.93169144      -1.21426348       1.42460189
H       -0.12142747       1.57687071       1.33209744
H       -1.37511321      -0.88242378      -1.45012036
H        0.57856830       1.29715428      -1.47714249
12
Frame=13 idx=000613 GeodesicLength=0.6657888980172579 rxn_smarts="[C:1]1([H:7])([H:8])[C@@:2]2([H:9])[C@:3]3([H:10])[O:4][C@@:5]2([H:11])[C@:6]13[H:12]>>[C:1]([C@@:6]1([H:12])[C@@:3]2([H:10])[C:2]([H:7])([H:9])[C@:5]1([H:11])[O:4]2)[H:8]"
C        1.46862830      -0.42848277      -0.19871197
C       -0.30208172      -0.72681168       0.68438368
C       -0.33723101       0.81182715       0.59021680
O       -1.61201653       0.82463991      -0.08857049
C       -0.88223659      -0.29551254      -0.67679451
C        0.44538918       0.50310010      -0.74544835
H        0.76708397      -1.58928433       0.35535771
H        2.31233713       0.11273876       0.24843240
H       -0.93900284      -1.20893943       1.42429411
H       -0.12506844       1.57921827       1.33147548
H       -1.37219620      -0.88160713      -1.45056082
H        0.57639474       1.29911369      -1.47407404
12
Frame=14 idx=000613 GeodesicLength=0.7169932357374911 rxn_smarts="[C:1]1([H:7])([H:8])[C@@:2]2([H:9])[C@:3]3([H:10])[O:4][C@@:5]2([H:11])[C@:6]13[H:12]>>[C:1]([C@@:6]1([H:12])[C@@:3]2([H:10])[C:2]([H:7])([H:9])[C@:5]1([H:11])[O:4]2)[H:8]"
C        1.46333053      -0.42397272      -0.18118485
C       -0.30226126      -0.72713528       0.68690324
C       -0.34103205       0.81168141       0.59237057
O       -1.61189477       0.82669381      -0.09174011
C       -0.88123031      -0.29535138      -0.67534103
C        0.44708946       0.50267948      -0.74412729
H        0.77107112      -1.60988394       0.35077251
H        2.32507974       0.11698765       0.22922021
H       -0.94641967      -1.20366053       1.42397368
H       -0.12912935       1.58172303       1.33092504
H       -1.36892582      -0.88088522      -1.45102437
H        0.57432238       1.30112369      -1.47074761
12
Frame=15 idx=000613 GeodesicLength=0.7681858303324742 rxn_smarts="[C:1]1([H:7])([H:8])[C@@:2]2([H:9])[C@:3]3([H:10])[O:4][C@@:5]2([H:11])[C@:6]13[H:12]>>[C:1]([C@@:6]1([H:12])[C@@:3]2([H:10])[C:2]([H:7])([H:9])[C@:5]1([H:11])[O:4]2)[H:8]"
C        1.45797945      -0.41906835      -0.16310939
C       -0.30258693      -0.72732837       0.68961451
C       -0.34511984       0.81166366       0.59461543
O       -1.61187613       0.82869601      -0.09509120
C       -0.88009536      -0.29518259      -0.67384740
C        0.44886502       0.50238323      -0.74251585
H        0.77561867      -1.62997639       0.34616226
H        2.33772875       0.11988623       0.20874828
H       -0.95393789      -1.19842134       1.42364093
H       -0.13364566       1.58440071       1.33044573
H       -1.36527105      -0.88026595      -1.45151028
H        0.57234098       1.30321315      -1.46715301
12
Frame=16 idx=000613 GeodesicLength=0.8193797565049717 rxn_smarts="[C:1]1([H:7])([H:8])[C@@:2]2([H:9])[C@:3]3([H:10])[O:4][C@@:5]2([H:11])[C@:6]13[H:12]>>[C:1]([C@@:6]1([H:12])[C@@:3]2([H:10])[C:2]([H:7])([H:9])[C@:5]1([H:11])[O:4]2)[H:8]"
C        1.45258001      -0.41370757      -0.14446750
C       -0.30305162      -0.72737096       0.69252864
C       -0.34952053       0.81178988       0.59695661
O       -1.61197663       0.83063028      -0.09863473
C       -0.87881482      -0.29500589      -0.67231224
C        0.45071521       0.50224678      -0.74059556
H        0.78080874      -1.64952133       0.34153633
H        2.35022586       0.12122295       0.18694245
H       -0.96155579      -1.19321474       1.42329824
H       -0.13866764       1.58727482       1.33004514
H       -1.36118710      -0.87976328      -1.45202370
H        0.57044431       1.30541907      -1.46327368
