16
Frame=0 idx=002563 GeodesicLength=0.0 rxn_smarts="[C:1]([C:2]([C:3]([H:11])([H:12])[H:13])([C@@:4]1([H:14])[C:5]([H:15])([H:16])[O:6]1)[H:10])([H:7])([H:8])[H:9]>>[C:1]([C:2]([C:3]([H:11])([H:12])[H:13])([C@@:4]([C:5][H:15])([O:6][H:16])[H:14])[H:10])([H:7])([H:8])[H:9]"
C       -0.52837351       1.37095469      -0.83512750
C       -0.46419728       0.17806145       0.11338631
C       -1.43782312      -0.92556780      -0.28447572
C        0.95237160      -0.33688020       0.16176415
C        1.97230678       0.29953246       1.01624372
O        1.24409048      -1.27380000       1.22038439
H        0.17163997       2.15225868      -0.53262985
H       -1.53058228       1.80227632      -0.84925315
H       -0.28288108       1.07212697      -1.85850403
H       -0.70447394       0.52287862       1.12478437
H       -2.46722956      -0.56353608      -0.25559439
H       -1.36110882      -1.78172711       0.38812566
H       -1.23761510      -1.27595298      -1.30114267
H        1.29294863      -0.78018044      -0.77508781
H        2.98086455       0.06438884       0.66110166
H        1.40006272      -0.52483344       2.00602486
16
Frame=1 idx=002563 GeodesicLength=0.045587937790194426 rxn_smarts="[C:1]([C:2]([C:3]([H:11])([H:12])[H:13])([C@@:4]1([H:14])[C:5]([H:15])([H:16])[O:6]1)[H:10])([H:7])([H:8])[H:9]>>[C:1]([C:2]([C:3]([H:11])([H:12])[H:13])([C@@:4]([C:5][H:15])([O:6][H:16])[H:14])[H:10])([H:7])([H:8])[H:9]"
C       -0.52889465       1.37124466      -0.83441615
C       -0.46289920       0.17712983       0.11245555
C       -1.43746474      -0.92594012      -0.28492945
C        0.95361188      -0.33814933       0.15710338
C        1.97352881       0.29209349       1.01490312
O        1.24904934      -1.27000435       1.21913319
H        0.17111119       2.15243890      -0.53162502
H       -1.53137993       1.80201758      -0.84665983
H       -0.28452536       1.07386589      -1.85846252
H       -0.70181187       0.52103444       1.12456506
H       -2.46678456      -0.56384087      -0.25383534
H       -1.35940796      -1.78294924       0.38646729
H       -1.23907976      -1.27499511      -1.30239905
H        1.29218158      -0.78176408      -0.78035217
H        2.98343966       0.06009718       0.66225109
H        1.38932555      -0.51227886       2.01580085
16
Frame=2 idx=002563 GeodesicLength=0.0911708790785288 rxn_smarts="[C:1]([C:2]([C:3]([H:11])([H:12])[H:13])([C@@:4]1([H:14])[C:5]([H:15])([H:16])[O:6]1)[H:10])([H:7])([H:8])[H:9]>>[C:1]([C:2]([C:3]([H:11])([H:12])[H:13])([C@@:4]([C:5][H:15])([O:6][H:16])[H:14])[H:10])([H:7])([H:8])[H:9]"
C       -0.52938584       1.37151449      -0.83367769
C       -0.46161817       0.17617314       0.11154422
C       -1.43713501      -0.92631133      -0.28540797
C        0.95482215      -0.33946078       0.15250974
C        1.97467377       0.28467998       1.01360782
O        1.25387222      -1.26627835       1.21792710
H        0.17061825       2.15258300      -0.53056527
H       -1.53213592       1.80175545      -0.84406937
H       -0.28610623       1.07558751      -1.85838305
H       -0.69919746       0.51916124       1.12435628
H       -2.46635783      -0.56412489      -0.25214429
H       -1.35779533      -1.78417238       0.38478239
H       -1.24053482      -1.27404079      -1.30366555
H        1.29139734      -0.78338597      -0.78554262
H        2.98592451       0.05592471       0.66338847
H        1.37895836      -0.49960504       2.02533979
16
Frame=3 idx=002563 GeodesicLength=0.13674701967987848 rxn_smarts="[C:1]([C:2]([C:3]([H:11])([H:12])[H:13])([C@@:4]1([H:14])[C:5]([H:15])([H:16])[O:6]1)[H:10])([H:7])([H:8])[H:9]>>[C:1]([C:2]([C:3]([H:11])([H:12])[H:13])([C@@:4]([C:5][H:15])([O:6][H:16])[H:14])[H:10])([H:7])([H:8])[H:9]"
C       -0.52984894       1.37176432      -0.83291305
C       -0.46035329       0.17519212       0.11065225
C       -1.43683320      -0.92668146      -0.28590893
C        0.95600410      -0.34081253       0.14797890
C        1.97574255       0.27728765       1.01235904
O        1.25856771      -1.26263572       1.21674617
H        0.17015986       2.15269178      -0.52945479
H       -1.53285251       1.80148951      -0.84148218
H       -0.28762824       1.07729125      -1.85826716
H       -0.69662733       0.51725921       1.12415883
H       -2.46594896      -0.56438793      -0.25052194
H       -1.35627203      -1.78539337       0.38307800
H       -1.24197774      -1.27309413      -1.30493830
H        1.29059924      -0.78503202      -0.79066884
H        2.98832140       0.05186381       0.66452324
H        1.36894740      -0.48680249       2.03465877
16
Frame=4 idx=002563 GeodesicLength=0.18231799994872452 rxn_smarts="[C:1]([C:2]([C:3]([H:11])([H:12])[H:13])([C@@:4]1([H:14])[C:5]([H:15])([H:16])[O:6]1)[H:10])([H:7])([H:8])[H:9]>>[C:1]([C:2]([C:3]([H:11])([H:12])[H:13])([C@@:4]([C:5][H:15])([O:6][H:16])[H:14])[H:10])([H:7])([H:8])[H:9]"
C       -0.53028568       1.37199418      -0.83212317
C       -0.45910374       0.17418751       0.10977964
C       -1.43655864      -0.92705039      -0.28642995
C        0.95715925      -0.34220256       0.14350673
C        1.97673546       0.26991149       1.01115886
O        1.26314416      -1.25909016       1.21557119
H        0.16973474       2.15276601      -0.52829767
H       -1.53353181       1.80121933      -0.83889903
H       -0.28909557       1.07897640      -1.85811628
H       -0.69409823       0.51532854       1.12397345
H       -2.46555755      -0.56462951      -0.24896943
H       -1.35483943      -1.78660880       0.38136136
H       -1.24340576      -1.27215931      -1.30621328
H        1.28979057      -0.78668841      -0.79574011
H        2.99063194       0.04790842       0.66566385
H        1.35928029      -0.47386272       2.04377385
16
Frame=5 idx=002563 GeodesicLength=0.2278826133403106 rxn_smarts="[C:1]([C:2]([C:3]([H:11])([H:12])[H:13])([C@@:4]1([H:14])[C:5]([H:15])([H:16])[O:6]1)[H:10])([H:7])([H:8])[H:9]>>[C:1]([C:2]([C:3]([H:11])([H:12])[H:13])([C@@:4]([C:5][H:15])([O:6][H:16])[H:14])[H:10])([H:7])([H:8])[H:9]"
C       -0.53069756       1.37220416      -0.83130887
C       -0.45786898       0.17316004       0.10892656
C       -1.43631093      -0.92741813      -0.28696896
C        0.95828877      -0.34362891       0.13908961
C        1.97765256       0.26254625       1.01000997
O        1.26760874      -1.25565469       1.21438489
H        0.16934184       2.15280650      -0.52709762
H       -1.53417572       1.80094453      -0.83632080
H       -0.29051191       1.08064227      -1.85793177
H       -0.69160750       0.51336949       1.12380107
H       -2.46518351      -0.56484927      -0.24748833
H       -1.35349930      -1.78781558       0.37963929
H       -1.24481626      -1.27124049      -1.30748700
H        1.28897442      -0.78834217      -0.80076494
H        2.99285724       0.04405352       0.66681831
H        1.34994808      -0.46077751       2.05269857
16
Frame=6 idx=002563 GeodesicLength=0.273442472844756 rxn_smarts="[C:1]([C:2]([C:3]([H:11])([H:12])[H:13])([C@@:4]1([H:14])[C:5]([H:15])([H:16])[O:6]1)[H:10])([H:7])([H:8])[H:9]>>[C:1]([C:2]([C:3]([H:11])([H:12])[H:13])([C@@:4]([C:5][H:15])([O:6][H:16])[H:14])[H:10])([H:7])([H:8])[H:9]"
C       -0.53108609       1.37239418      -0.83047103
C       -0.45664859       0.17211041       0.10809317
C       -1.43609003      -0.92778456      -0.28752399
C        0.95939398      -0.34508956       0.13472394
C        1.97849371       0.25518610       1.00891626
O        1.27196840      -1.25234241       1.21317039
H        0.16898024       2.15281387      -0.52585843
H       -1.53478623       1.80066467      -0.83374847
H       -0.29188088       1.08228792      -1.85771522
H       -0.68915274       0.51138235       1.12364280
H       -2.46482731      -0.56504658      -0.24608071
H       -1.35225408      -1.78901023       0.37791886
H       -1.24620658      -1.27034203      -1.30875609
H        1.28815427      -0.78998018      -0.80575184
H        2.99499840       0.04029546       0.66799440
H        1.34094354      -0.44753940       2.06144596
16
Frame=7 idx=002563 GeodesicLength=0.31895688292642643 rxn_smarts="[C:1]([C:2]([C:3]([H:11])([H:12])[H:13])([C@@:4]1([H:14])[C:5]([H:15])([H:16])[O:6]1)[H:10])([H:7])([H:8])[H:9]>>[C:1]([C:2]([C:3]([H:11])([H:12])[H:13])([C@@:4]([C:5][H:15])([O:6][H:16])[H:14])[H:10])([H:7])([H:8])[H:9]"
C       -0.53145279       1.37256503      -0.82961081
C       -0.45543817       0.17104166       0.10728099
C       -1.43588953      -0.92814926      -0.28808703
C        0.96047925      -0.34657894       0.13040781
C        1.97926623       0.24783165       1.00787091
O        1.27624126      -1.24916557       1.21190608
H        0.16864765       2.15279094      -0.52458707
H       -1.53536502       1.80037924      -0.83118238
H       -0.29320796       1.08391159      -1.85746705
H       -0.68672518       0.50937132       1.12349958
H       -2.46448233      -0.56522128      -0.24474186
H       -1.35109697      -1.79018797       0.37621378
H       -1.24756957      -1.26946970      -1.31000957
H        1.28733342      -0.79158553      -0.81070813
H        2.99706241       0.03662670       0.66919490
H        1.33219729      -0.43415988       2.07001986
16
Frame=8 idx=002563 GeodesicLength=0.3644520457630499 rxn_smarts="[C:1]([C:2]([C:3]([H:11])([H:12])[H:13])([C@@:4]1([H:14])[C:5]([H:15])([H:16])[O:6]1)[H:10])([H:7])([H:8])[H:9]>>[C:1]([C:2]([C:3]([H:11])([H:12])[H:13])([C@@:4]([C:5][H:15])([O:6][H:16])[H:14])[H:10])([H:7])([H:8])[H:9]"
C       -0.53179905       1.37271545      -0.82872762
C       -0.45423992       0.16995094       0.10648762
C       -1.43571401      -0.92851301      -0.28866405
C        0.96154380      -0.34809991       0.12613580
C        1.97996771       0.24047414       1.00687944
O        1.28041874      -1.24612484       1.21059376
H        0.16834336       2.15273545      -0.52328036
H       -1.53591491       1.80008546      -0.82862191
H       -0.29449471       1.08551555      -1.85718874
H       -0.68432695       0.50733114       1.12337099
H       -2.46415438      -0.56537573      -0.24346858
H       -1.35003094      -1.79135405       0.37451242
H       -1.24891273      -1.26861661      -1.31125774
H        1.28651321      -0.79315648      -0.81564109
H        2.99904892       0.03303507       0.67043299
H        1.32375187      -0.42060258       2.07843707
16
Frame=9 idx=002563 GeodesicLength=0.40998431837347693 rxn_smarts="[C:1]([C:2]([C:3]([H:11])([H:12])[H:13])([C@@:4]1([H:14])[C:5]([H:15])([H:16])[O:6]1)[H:10])([H:7])([H:8])[H:9]>>[C:1]([C:2]([C:3]([H:11])([H:12])[H:13])([C@@:4]([C:5][H:15])([O:6][H:16])[H:14])[H:10])([H:7])([H:8])[H:9]"
C       -0.53212795       1.37285634      -0.82782110
C       -0.45305424       0.16883444       0.10571235
C       -1.43556253      -0.92888273      -0.28925749
C        0.96259282      -0.34966156       0.12190368
C        1.98060642       0.23310613       1.00593032
O        1.28450863      -1.24323086       1.20924138
H        0.16806620       2.15265857      -0.52193802
H       -1.53644296       1.79979910      -0.82605669
H       -0.29574431       1.08711587      -1.85688693
H       -0.68196334       0.50525611       1.12326170
H       -2.46384730      -0.56551645      -0.24225335
H       -1.34904945      -1.79252756       0.37280934
H       -1.25023553      -1.26778278      -1.31251157
H        1.28570112      -0.79470672      -0.82055889
H        3.00097164       0.02949550       0.67170412
H        1.31558077      -0.40681338       2.08672117
16
Frame=10 idx=002563 GeodesicLength=0.4554519355340375 rxn_smarts="[C:1]([C:2]([C:3]([H:11])([H:12])[H:13])([C@@:4]1([H:14])[C:5]([H:15])([H:16])[O:6]1)[H:10])([H:7])([H:8])[H:9]>>[C:1]([C:2]([C:3]([H:11])([H:12])[H:13])([C@@:4]([C:5][H:15])([O:6][H:16])[H:14])[H:10])([H:7])([H:8])[H:9]"
C       -0.53243519       1.37297094      -0.82687970
C       -0.45188158       0.16768901       0.10495293
C       -1.43543587      -0.92925359      -0.28987997
C        0.96361184      -0.35125838       0.11771586
C        1.98117227       0.22572581       1.00502743
O        1.28849163      -1.24046928       1.20784773
H        0.16782048       2.15253802      -0.52054199
H       -1.53693344       1.79949897      -0.82347702
H       -0.29696062       1.08869589      -1.85654317
H       -0.67962851       0.50314100       1.12316198
H       -2.46355203      -0.56564406      -0.24111115
H       -1.34815847      -1.79369022       0.37108641
H       -1.25154680      -1.26696309      -1.31377427
H        1.28487574      -0.79622995      -0.82545073
H        3.00280695       0.02600696       0.67303392
H        1.30775360      -0.39275804       2.09483174
16
Frame=11 idx=002563 GeodesicLength=0.5009618174008929 rxn_smarts="[C:1]([C:2]([C:3]([H:11])([H:12])[H:13])([C@@:4]1([H:14])[C:5]([H:15])([H:16])[O:6]1)[H:10])([H:7])([H:8])[H:9]>>[C:1]([C:2]([C:3]([H:11])([H:12])[H:13])([C@@:4]([C:5][H:15])([O:6][H:16])[H:14])[H:10])([H:7])([H:8])[H:9]"
C       -0.53271803       1.37305270      -0.82590381
C       -0.45070953       0.16651496       0.10421020
C       -1.43532629      -0.92961915      -0.29051763
C        0.96461833      -0.35288912       0.11356150
C        1.98168407       0.21833600       1.00415710
O        1.29241314      -1.23784818       1.20637189
H        0.16759943       2.15237066      -0.51908819
H       -1.53739200       1.79916938      -0.82089342
H       -0.29813342       1.09025313      -1.85614919
H       -0.67729761       0.50098020       1.12307037
H       -2.46326359      -0.56574804      -0.24001913
H       -1.34734371      -1.79483435       0.36935585
H       -1.25284673      -1.26615001      -1.31503153
H        1.28404167      -0.79771125      -0.83032529
H        3.00457728       0.02257249       0.67437985
H        1.30009701      -0.37844941       2.10282142
16
Frame=12 idx=002563 GeodesicLength=0.5464119214488615 rxn_smarts="[C:1]([C:2]([C:3]([H:11])([H:12])[H:13])([C@@:4]1([H:14])[C:5]([H:15])([H:16])[O:6]1)[H:10])([H:7])([H:8])[H:9]>>[C:1]([C:2]([C:3]([H:11])([H:12])[H:13])([C@@:4]([C:5][H:15])([O:6][H:16])[H:14])[H:10])([H:7])([H:8])[H:9]"
C       -0.53298322       1.37312757      -0.82490062
C       -0.44955215       0.16531449       0.10348729
C       -1.43523926      -0.92999495      -0.29117339
C        0.96560559      -0.35456088       0.10944512
C        1.98213458       0.21092688       1.00332535
O        1.29625084      -1.23538777       1.20484879
H        0.16739192       2.15219243      -0.51758040
H       -1.53783007       1.79884361      -0.81831262
H       -0.29925263       1.09181168      -1.85572741
H       -0.67500430       0.49878125       1.12300255
H       -2.46299286      -0.56584061      -0.23898625
H       -1.34661635      -1.79598901       0.36762488
H       -1.25412483      -1.26536222      -1.31629701
H        1.28321413      -0.79916981      -0.83519155
H        3.00627902       0.01917301       0.67576103
H        1.29271959      -0.36386566       2.11067424
16
Frame=13 idx=002563 GeodesicLength=0.5918631306775906 rxn_smarts="[C:1]([C:2]([C:3]([H:11])([H:12])[H:13])([C@@:4]1([H:14])[C:5]([H:15])([H:16])[O:6]1)[H:10])([H:7])([H:8])[H:9]>>[C:1]([C:2]([C:3]([H:11])([H:12])[H:13])([C@@:4]([C:5][H:15])([O:6][H:16])[H:14])[H:10])([H:7])([H:8])[H:9]"
C       -0.53322785       1.37318378      -0.82385859
C       -0.44840571       0.16408022       0.10278236
C       -1.43517394      -0.93037801      -0.29185692
C        0.96657235      -0.35627806       0.10536419
C        1.98252776       0.20349405       1.00252385
O        1.30000710      -1.23307742       1.20327552
H        0.16720708       2.15198231      -0.51600616
H       -1.53824029       1.79850982      -0.81571519
H       -0.30032838       1.09336544      -1.85526253
H       -0.67273823       0.49652863       1.12295280
H       -2.46273599      -0.56592161      -0.23801338
H       -1.34596778      -1.79715373       0.36586680
H       -1.25539175      -1.26458238      -1.31758067
H        1.28237963      -0.80061076      -0.84004479
H        3.00791213       0.01579321       0.67717512
H        1.28560389      -0.34893549       2.11839760
16
Frame=14 idx=002563 GeodesicLength=0.6373167530615939 rxn_smarts="[C:1]([C:2]([C:3]([H:11])([H:12])[H:13])([C@@:4]1([H:14])[C:5]([H:15])([H:16])[O:6]1)[H:10])([H:7])([H:8])[H:9]>>[C:1]([C:2]([C:3]([H:11])([H:12])[H:13])([C@@:4]([C:5][H:15])([O:6][H:16])[H:14])[H:10])([H:7])([H:8])[H:9]"
C       -0.53345316       1.37322155      -0.82277368
C       -0.44726917       0.16280868       0.10209421
C       -1.43512947      -0.93077060      -0.29257164
C        0.96751974      -0.35804393       0.10131714
C        1.98286752       0.19603355       1.00174826
O        1.30368248      -1.23091689       1.20165562
H        0.16704792       2.15173700      -0.51436260
H       -1.53862369       1.79816890      -0.81309058
H       -0.30136635       1.09491801      -1.85475223
H       -0.67049830       0.49421629       1.12292075
H       -2.46249193      -0.56599385      -0.23709558
H       -1.34539076      -1.79833652       0.36407005
H       -1.25665260      -1.26380358      -1.31889005
H        1.28153919      -0.80203796      -0.84488619
H        3.00948055       0.01241497       0.67862643
H        1.27873803      -0.33361562       2.12599010
16
Frame=15 idx=002563 GeodesicLength=0.6827696582532937 rxn_smarts="[C:1]([C:2]([C:3]([H:11])([H:12])[H:13])([C@@:4]1([H:14])[C:5]([H:15])([H:16])[O:6]1)[H:10])([H:7])([H:8])[H:9]>>[C:1]([C:2]([C:3]([H:11])([H:12])[H:13])([C@@:4]([C:5][H:15])([O:6][H:16])[H:14])[H:10])([H:7])([H:8])[H:9]"
C       -0.53365864       1.37324113      -0.82164011
C       -0.44614325       0.16149593       0.10142309
C       -1.43510639      -0.93117501      -0.29332235
C        0.96844701      -0.35986319       0.09730364
C        1.98316016       0.18854172       1.00098959
O        1.30727456      -1.22890212       1.19999784
H        0.16691104       2.15145699      -0.51263519
H       -1.53898099       1.79781859      -0.81043226
H       -0.30236014       1.09647642      -1.85419123
H       -0.66828650       0.49183801       1.12290726
H       -2.46226214      -0.56606260      -0.23623146
H       -1.34487945      -1.79954641       0.36222002
H       -1.25791000      -1.26301955      -1.32023337
H        1.28068739      -0.80346371      -0.84971413
H        3.01098888       0.00901774       0.68011115
H        1.27211847      -0.31785393       2.13344751
16
Frame=16 idx=002563 GeodesicLength=0.728222840838503 rxn_smarts="[C:1]([C:2]([C:3]([H:11])([H:12])[H:13])([C@@:4]1([H:14])[C:5]([H:15])([H:16])[O:6]1)[H:10])([H:7])([H:8])[H:9]>>[C:1]([C:2]([C:3]([H:11])([H:12])[H:13])([C@@:4]([C:5][H:15])([O:6][H:16])[H:14])[H:10])([H:7])([H:8])[H:9]"
C       -0.53384346       1.37324216      -0.82044857
C       -0.44502957       0.16013535       0.10076922
C       -1.43510578      -0.93159471      -0.29411644
C        0.96935201      -0.36174376       0.09332433
C        1.98341121       0.18101622       1.00023644
O        1.31078182      -1.22702627       1.19831562
H        0.16679980       2.15113663      -0.51080803
H       -1.53930986       1.79746178      -0.80772661
H       -0.30330867       1.09804774      -1.85357171
H       -0.66610731       0.48938126       1.12291344
H       -2.46204819      -0.56613295      -0.23542896
H       -1.34443319      -1.80079192       0.36030181
H       -1.25916499      -1.26222456      -1.32162064
H        1.27981937      -0.80490325      -0.85452483
H        3.01244049       0.00558342       0.68162117
H        1.26574631      -0.30158714       2.14076375
