15
Frame=0 idx=009689 GeodesicLength=0.0 rxn_smarts="[O:1]([C:2]([C:3]1([H:11])[C:4]([H:12])([H:13])[C:5](=[O:6])[C:7]1([H:14])[H:15])([H:9])[H:10])[H:8]>>[O:1]([C:2]([C@:3]1([H:11])[C:4]([H:12])=[C:5]([O:6][H:13])[C:7]1([H:14])[H:15])([H:9])[H:10])[H:8]"
O       -1.64730008       1.20609542       0.21466901
C       -1.60303529      -0.15097610      -0.17890061
C       -0.16482005      -0.62430121      -0.18867435
C        0.67633816      -0.36711969       1.06442218
C        1.62409438       0.30851966       0.29180922
O        2.86256578       0.39689498       0.62344534
C        0.84552610       0.26709776      -0.99293617
H       -2.55390485       1.51186140       0.18072387
H       -2.18327757      -0.77762503       0.51121092
H       -2.02674669      -0.27948598      -1.18447842
H       -0.14580294      -1.66389958      -0.52659429
H        0.40716547      -0.30031414       2.10914044
H        2.15671546      -0.59858803       1.17110130
H        0.40701477       1.23533629      -1.23529443
H        1.34546736      -0.16349576      -1.85964396
15
Frame=1 idx=009689 GeodesicLength=0.05680781488919746 rxn_smarts="[O:1]([C:2]([C:3]1([H:11])[C:4]([H:12])([H:13])[C:5](=[O:6])[C:7]1([H:14])[H:15])([H:9])[H:10])[H:8]>>[O:1]([C:2]([C@:3]1([H:11])[C:4]([H:12])=[C:5]([O:6][H:13])[C:7]1([H:14])[H:15])([H:9])[H:10])[H:8]"
O       -1.64964242       1.20359558       0.21788147
C       -1.60292369      -0.15260893      -0.17866095
C       -0.16386197      -0.62290994      -0.18993053
C        0.67910821      -0.36808822       1.06265227
C        1.62676971       0.31018958       0.28820683
O        2.86508428       0.38647769       0.62027933
C        0.84451256       0.26966015      -0.99415372
H       -2.55677468       1.50782217       0.18440027
H       -2.18181685      -0.78185240       0.51024297
H       -2.02712319      -0.27967335      -1.18420454
H       -0.14338087      -1.66212428      -0.52902333
H        0.39861767      -0.27878332       2.10291751
H        2.16143449      -0.61084284       1.18696703
H        0.40788581       1.23924294      -1.23488226
H        1.34211093      -0.16010482      -1.86269233
15
Frame=2 idx=009689 GeodesicLength=0.11363433402935272 rxn_smarts="[O:1]([C:2]([C:3]1([H:11])[C:4]([H:12])([H:13])[C:5](=[O:6])[C:7]1([H:14])[H:15])([H:9])[H:10])[H:8]>>[O:1]([C:2]([C@:3]1([H:11])[C:4]([H:12])=[C:5]([O:6][H:13])[C:7]1([H:14])[H:15])([H:9])[H:10])[H:8]"
O       -1.65214731       1.20110000       0.22096930
C       -1.60279475      -0.15426478      -0.17841642
C       -0.16283377      -0.62136149      -0.19112237
C        0.68190118      -0.36863772       1.06094287
C        1.62945775       0.31224523       0.28454769
O        2.86769416       0.37499007       0.61674119
C        0.84346415       0.27242825      -0.99538776
H       -2.55985366       1.50364530       0.18798081
H       -2.18025660      -0.78611245       0.50933412
H       -2.02746076      -0.28003355      -1.18391695
H       -0.14075119      -1.66022438      -0.53128653
H        0.39040897      -0.25746951       2.09630572
H        2.16584809      -0.62310000       1.20360279
H        0.40865778       1.24331651      -1.23451727
H        1.33866596      -0.15652148      -1.86577720
15
Frame=3 idx=009689 GeodesicLength=0.17046532674804188 rxn_smarts="[O:1]([C:2]([C:3]1([H:11])[C:4]([H:12])([H:13])[C:5](=[O:6])[C:7]1([H:14])[H:15])([H:9])[H:10])[H:8]>>[O:1]([C:2]([C@:3]1([H:11])[C:4]([H:12])=[C:5]([O:6][H:13])[C:7]1([H:14])[H:15])([H:9])[H:10])[H:8]"
O       -1.65482490       1.19857715       0.22391285
C       -1.60263901      -0.15595333      -0.17818234
C       -0.16172623      -0.61963698      -0.19225539
C        0.68472769      -0.36874594       1.05927700
C        1.63218911       0.31465901       0.28082795
O        2.87039489       0.36227270       0.61276694
C        0.84237810       0.27542366      -0.99661798
H       -2.56316497       1.49925232       0.19151781
H       -2.17857474      -0.79042007       0.50845018
H       -2.02775105      -0.28057519      -1.18362189
H       -0.13789452      -1.65816212      -0.53339188
H        0.38252889      -0.23618601       2.08927961
H        2.16992363      -0.63538014       1.22106713
H        0.40933334       1.24757372      -1.23414309
H        1.33509977      -0.15269878      -1.86888690
15
Frame=4 idx=009689 GeodesicLength=0.2273470712630969 rxn_smarts="[O:1]([C:2]([C:3]1([H:11])[C:4]([H:12])([H:13])[C:5](=[O:6])[C:7]1([H:14])[H:15])([H:9])[H:10])[H:8]>>[O:1]([C:2]([C@:3]1([H:11])[C:4]([H:12])=[C:5]([O:6][H:13])[C:7]1([H:14])[H:15])([H:9])[H:10])[H:8]"
O       -1.65766864       1.19604894       0.22673813
C       -1.60245228      -0.15767579      -0.17794812
C       -0.16053190      -0.61775210      -0.19334533
C        0.68759808      -0.36843168       1.05764908
C        1.63496562       0.31745597       0.27701914
O        2.87313222       0.34831502       0.60836056
C        0.84126185       0.27864882      -0.99788509
H       -2.56669888       1.49468471       0.19502249
H       -2.17676570      -0.79478846       0.50762197
H       -2.02799313      -0.28129461      -1.18332047
H       -0.13480050      -1.65597211      -0.53536223
H        0.37496740      -0.21500521       2.08189727
H        2.17364516      -0.64762061       1.23943948
H        0.40991020       1.25203181      -1.23381089
H        1.33143049      -0.14864471      -1.87207597
15
Frame=5 idx=009689 GeodesicLength=0.2842107172195052 rxn_smarts="[O:1]([C:2]([C:3]1([H:11])[C:4]([H:12])([H:13])[C:5](=[O:6])[C:7]1([H:14])[H:15])([H:9])[H:10])[H:8]>>[O:1]([C:2]([C@:3]1([H:11])[C:4]([H:12])=[C:5]([O:6][H:13])[C:7]1([H:14])[H:15])([H:9])[H:10])[H:8]"
O       -1.66065032       1.19349301       0.22945593
C       -1.60222603      -0.15942763      -0.17771123
C       -0.15925022      -0.61570033      -0.19440419
C        0.69053448      -0.36770621       1.05602593
C        1.63778853       0.32064316       0.27310433
O        2.87584044       0.33308927       0.60353284
C        0.84010505       0.28209635      -0.99918755
H       -2.57041769       1.48992977       0.19848465
H       -2.17481105      -0.79920265       0.50684188
H       -2.02819654      -0.28217647      -1.18299401
H       -0.13148000      -1.65362860      -0.53721054
H        0.36774434      -0.19397246       2.07413501
H        2.17700580      -0.65974024       1.25877493
H        0.41037491       1.25666366      -1.23352092
H        1.32763828      -0.14436062      -1.87532708
15
Frame=6 idx=009689 GeodesicLength=0.3410923920070229 rxn_smarts="[O:1]([C:2]([C:3]1([H:11])[C:4]([H:12])([H:13])[C:5](=[O:6])[C:7]1([H:14])[H:15])([H:9])[H:10])[H:8]>>[O:1]([C:2]([C@:3]1([H:11])[C:4]([H:12])=[C:5]([O:6][H:13])[C:7]1([H:14])[H:15])([H:9])[H:10])[H:8]"
O       -1.66379402       1.19090746       0.23206212
C       -1.60194989      -0.16122378      -0.17747985
C       -0.15786406      -0.61347890      -0.19544290
C        0.69354611      -0.36655344       1.05440550
C        1.64070434       0.32419112       0.26905480
O        2.87849380       0.31640483       0.59822370
C        0.83891731       0.28579693      -1.00054184
H       -2.57436252       1.48494344       0.20197910
H       -2.17269184      -0.80370287       0.50610369
H       -2.02834261      -0.28323606      -1.18266100
H       -0.12789699      -1.65113809      -0.53895403
H        0.36083557      -0.17291988       2.06601092
H        2.17995546      -0.67171960       1.27918265
H        0.41074214       1.26152524      -1.23324681
H        1.32370720      -0.13979641      -1.87869606
15
Frame=7 idx=009689 GeodesicLength=0.39801428097649605 rxn_smarts="[O:1]([C:2]([C:3]1([H:11])[C:4]([H:12])([H:13])[C:5](=[O:6])[C:7]1([H:14])[H:15])([H:9])[H:10])[H:8]>>[O:1]([C:2]([C@:3]1([H:11])[C:4]([H:12])=[C:5]([O:6][H:13])[C:7]1([H:14])[H:15])([H:9])[H:10])[H:8]"
O       -1.66705405       1.18829240       0.23458787
C       -1.60161772      -0.16305480      -0.17724046
C       -0.15637704      -0.61110030      -0.19647656
C        0.69665282      -0.36502123       1.05275928
C        1.64368832       0.32813209       0.26486077
O        2.88099102       0.29835758       0.59246850
C        0.83769323       0.28972864      -1.00196348
H       -2.57846887       1.47976985       0.20548056
H       -2.17040126      -0.80826714       0.50542532
H       -2.02844531      -0.28445009      -1.18229902
H       -0.12407306      -1.64850527      -0.54061734
H        0.35425566      -0.15199567       2.05752392
H        2.18250898      -0.68347952       1.30069892
H        0.41099534       1.26657879      -1.23303490
H        1.31965195      -0.13498531      -1.88217336
15
Frame=8 idx=009689 GeodesicLength=0.45495754030954716 rxn_smarts="[O:1]([C:2]([C:3]1([H:11])[C:4]([H:12])([H:13])[C:5](=[O:6])[C:7]1([H:14])[H:15])([H:9])[H:10])[H:8]>>[O:1]([C:2]([C@:3]1([H:11])[C:4]([H:12])=[C:5]([O:6][H:13])[C:7]1([H:14])[H:15])([H:9])[H:10])[H:8]"
O       -1.67045010       1.18563648       0.23703761
C       -1.60122183      -0.16493398      -0.17699709
C       -0.15477441      -0.60855655      -0.19751695
C        0.69987042      -0.36308470       1.05107647
C        1.64679830       0.33242490       0.26047574
O        2.88329280       0.27874208       0.58624220
C        0.83643712       0.29391915      -1.00346945
H       -2.58276778       1.47436515       0.20903425
H       -2.16792246      -0.81292758       0.50480006
H       -2.02849419      -0.28583140      -1.18191671
H       -0.11998007      -1.64572581      -0.54221659
H        0.34800078      -0.13107936       2.04867651
H        2.18462570      -0.69494502       1.32343873
H        0.41114682       1.27187232      -1.23285005
H        1.31543889      -0.12987567      -1.88581472
15
Frame=9 idx=009689 GeodesicLength=0.5119900166662237 rxn_smarts="[O:1]([C:2]([C:3]1([H:11])[C:4]([H:12])([H:13])[C:5](=[O:6])[C:7]1([H:14])[H:15])([H:9])[H:10])[H:8]>>[O:1]([C:2]([C@:3]1([H:11])[C:4]([H:12])=[C:5]([O:6][H:13])[C:7]1([H:14])[H:15])([H:9])[H:10])[H:8]"
O       -1.67400002       1.18290223       0.23939837
C       -1.60074267      -0.16687430      -0.17676081
C       -0.15303789      -0.60582822      -0.19856423
C        0.70322072      -0.36072263       1.04934732
C        1.65008946       0.33700889       0.25588135
O        2.88533919       0.25733560       0.57944255
C        0.83513766       0.29840117      -1.00503458
H       -2.58728436       1.46865335       0.21265526
H       -2.16521483      -0.81770602       0.50419959
H       -2.02846901      -0.28739369      -1.18151859
H       -0.11557987      -1.64275851      -0.54375763
H        0.34208873      -0.10997438       2.03941028
H        2.18625305      -0.70609824       1.34752473
H        0.41119385       1.27744531      -1.23260058
H        1.31100599      -0.12439057      -1.88962301
15
Frame=10 idx=009689 GeodesicLength=0.5691112103808711 rxn_smarts="[O:1]([C:2]([C:3]1([H:11])[C:4]([H:12])([H:13])[C:5](=[O:6])[C:7]1([H:14])[H:15])([H:9])[H:10])[H:8]>>[O:1]([C:2]([C@:3]1([H:11])[C:4]([H:12])=[C:5]([O:6][H:13])[C:7]1([H:14])[H:15])([H:9])[H:10])[H:8]"
O       -1.67767993       1.18011052       0.24169708
C       -1.60017772      -0.16887677      -0.17652157
C       -0.15116473      -0.60293259      -0.19964542
C        0.70671671      -0.35796027       1.04755008
C        1.65358787       0.34188152       0.25102492
O        2.88701804       0.23411982       0.57213724
C        0.83381173       0.30317126      -1.00670924
H       -2.59199414       1.46266229       0.21640287
H       -2.16228022      -0.82261218       0.50365369
H       -2.02837775      -0.28913646      -1.18110017
H       -0.11088042      -1.63963885      -0.54527905
H        0.33651325      -0.08876070       2.02975395
H        2.18737509      -0.71679666       1.37303307
H        0.41115840       1.28331190      -1.23233303
H        1.30637383      -0.11854282      -1.89366442
15
Frame=11 idx=009689 GeodesicLength=0.6262372641437712 rxn_smarts="[O:1]([C:2]([C:3]1([H:11])[C:4]([H:12])([H:13])[C:5](=[O:6])[C:7]1([H:14])[H:15])([H:9])[H:10])[H:8]>>[O:1]([C:2]([C@:3]1([H:11])[C:4]([H:12])=[C:5]([O:6][H:13])[C:7]1([H:14])[H:15])([H:9])[H:10])[H:8]"
O       -1.68145195       1.17727359       0.24394279
C       -1.59952897      -0.17092212      -0.17627954
C       -0.14915281      -0.59988299      -0.20078905
C        0.71040313      -0.35484590       1.04563091
C        1.65731974       0.34700850       0.24585946
O        2.88811543       0.20915341       0.56446954
C        0.83246385       0.30819328      -1.00851450
H       -2.59686320       1.45641956       0.22032638
H       -2.15911218      -0.82761227       0.50315721
H       -2.02826207      -0.29102184      -1.18063937
H       -0.10590253      -1.63637538      -0.54681265
H        0.33130849      -0.06757671       2.01966816
H        2.18807360      -0.72686643       1.39999245
H        0.41104124       1.28942974      -1.23208076
H        1.30154824      -0.11237444      -1.89793103
15
Frame=12 idx=009689 GeodesicLength=0.6833291292008801 rxn_smarts="[O:1]([C:2]([C:3]1([H:11])[C:4]([H:12])([H:13])[C:5](=[O:6])[C:7]1([H:14])[H:15])([H:9])[H:10])[H:8]>>[O:1]([C:2]([C@:3]1([H:11])[C:4]([H:12])=[C:5]([O:6][H:13])[C:7]1([H:14])[H:15])([H:9])[H:10])[H:8]"
O       -1.68530525       1.17431304       0.24613418
C       -1.59872725      -0.17304173      -0.17603504
C       -0.14697973      -0.59664915      -0.20199153
C        0.71426918      -0.35136108       1.04360103
C        1.66133181       0.35229608       0.24033249
O        2.88856227       0.18204603       0.55634319
C        0.83105843       0.31353056      -1.01044732
H       -2.60185760       1.44978549       0.22445377
H       -2.15560909      -0.83276015       0.50271071
H       -2.02801487      -0.29307556      -1.18014991
H       -0.10059218      -1.63289725      -0.54836730
H        0.32648407      -0.04611463       2.00911621
H        2.18812860      -0.73620161       1.42852860
H        0.41084233       1.29588043      -1.23172649
H        1.29640927      -0.10575048      -1.90250259
15
Frame=13 idx=009689 GeodesicLength=0.7405349862671028 rxn_smarts="[O:1]([C:2]([C:3]1([H:11])[C:4]([H:12])([H:13])[C:5](=[O:6])[C:7]1([H:14])[H:15])([H:9])[H:10])[H:8]>>[O:1]([C:2]([C@:3]1([H:11])[C:4]([H:12])=[C:5]([O:6][H:13])[C:7]1([H:14])[H:15])([H:9])[H:10])[H:8]"
O       -1.68919583       1.17130088       0.24832177
C       -1.59782232      -0.17520402      -0.17578049
C       -0.14466722      -0.59328745      -0.20328774
C        0.71835569      -0.34760364       1.04141841
C        1.66562894       0.35775297       0.23443072
O        2.88817628       0.15324698       0.54797666
C        0.82963584       0.31909556      -1.01254291
H       -2.60694144       1.44290948       0.22882899
H       -2.15185546      -0.83801032       0.50231697
H       -2.02773776      -0.29524102      -1.17961542
H       -0.09502769      -1.62929526      -0.54999653
H        0.32205830      -0.02468985       1.99811162
H        2.18773213      -0.74473555       1.45854234
H        0.41058919       1.30257744      -1.23137646
H        1.29107135      -0.09881621      -1.90734794
15
Frame=14 idx=009689 GeodesicLength=0.7978237562397937 rxn_smarts="[O:1]([C:2]([C:3]1([H:11])[C:4]([H:12])([H:13])[C:5](=[O:6])[C:7]1([H:14])[H:15])([H:9])[H:10])[H:8]>>[O:1]([C:2]([C@:3]1([H:11])[C:4]([H:12])=[C:5]([O:6][H:13])[C:7]1([H:14])[H:15])([H:9])[H:10])[H:8]"
O       -1.69303951       1.16824215       0.25053818
C       -1.59679823      -0.17738781      -0.17549816
C       -0.14223011      -0.58982429      -0.20469237
C        0.72267053      -0.34366577       1.03905539
C        1.67017243       0.36336353       0.22812840
O        2.88677620       0.12310963       0.53960648
C        0.82819106       0.32482712      -1.01482958
H       -2.61200149       1.43584725       0.23346289
H       -2.14784449      -0.84332127       0.50199968
H       -2.02743386      -0.29746630      -1.17900800
H       -0.08926571      -1.62558162      -0.55172414
H        0.31805561      -0.00347199       1.98667288
H        2.18689408      -0.75245537       1.48984824
H        0.41028044       1.30944194      -1.23110663
H        1.28557305      -0.09165721      -1.91245328
15
Frame=15 idx=009689 GeodesicLength=0.8551745291779983 rxn_smarts="[O:1]([C:2]([C:3]1([H:11])[C:4]([H:12])([H:13])[C:5](=[O:6])[C:7]1([H:14])[H:15])([H:9])[H:10])[H:8]>>[O:1]([C:2]([C@:3]1([H:11])[C:4]([H:12])=[C:5]([O:6][H:13])[C:7]1([H:14])[H:15])([H:9])[H:10])[H:8]"
O       -1.69676292       1.16516055       0.25281742
C       -1.59565554      -0.17956807      -0.17517129
C       -0.13968850      -0.58629400      -0.20621614
C        0.72721991      -0.33963880       1.03649506
C        1.67492202       0.36911995       0.22141603
O        2.88421872       0.09211986       0.53151459
C        0.82672796       0.33064890      -1.01733294
H       -2.61694212       1.42868280       0.23836108
H       -2.14359524      -0.84864508       0.50178060
H       -2.02712493      -0.29970110      -1.17830465
H       -0.08337307      -1.62178857      -0.55357026
H        0.31449132       0.01735876       1.97484048
H        2.18566386      -0.75944488       1.52216935
H        0.40991849       1.31638257      -1.23100711
H        1.27998003      -0.08439287      -1.91779223
15
Frame=16 idx=009689 GeodesicLength=0.9125697478416126 rxn_smarts="[O:1]([C:2]([C:3]1([H:11])[C:4]([H:12])([H:13])[C:5](=[O:6])[C:7]1([H:14])[H:15])([H:9])[H:10])[H:8]>>[O:1]([C:2]([C@:3]1([H:11])[C:4]([H:12])=[C:5]([O:6][H:13])[C:7]1([H:14])[H:15])([H:9])[H:10])[H:8]"
O       -1.70029642       1.16208658       0.25518617
C       -1.59440069      -0.18171744      -0.17478289
C       -0.13706708      -0.58273118      -0.20786015
C        0.73199909      -0.33560438       1.03373218
C        1.67982229       0.37502840       0.21430200
O        2.88041543       0.06088177       0.52399836
C        0.82525230       0.33647595      -1.02007132
H       -2.62167230       1.42151036       0.24351315
H       -2.13913781      -0.85392727       0.50168233
H       -2.02683529      -0.30189859      -1.17748272
H       -0.07742366      -1.61795256      -0.55553836
H        0.31137176       0.03762621       1.96267532
H        2.18409482      -0.76590862       1.55514559
H        0.40950481       1.32329482      -1.23118009
H        1.27437274      -0.07716403      -1.92331956
