11
Frame=0 idx=011749 GeodesicLength=0.0 rxn_smarts="[C:1](#[C:2][c:3]1[c:4]([H:9])[c:5]([H:10])[n:6][n:7]1[H:11])[H:8]>>[C:1](#[C:2][C:3]([C:4](=[C:5]=[N:6][H:10])[H:9])=[N:7][H:11])[H:8]"
C        2.75315992      -0.55898008      -0.26339436
C        1.56723481      -0.44277842      -0.14517246
C        0.13603197      -0.31851577      -0.00332557
C       -0.41331101       1.01979490       0.00705505
C       -1.75265767       0.88429891       0.14940782
N       -2.70742801       0.12204567       0.27346239
N       -0.64865242      -1.32820775       0.11098078
H        3.80703397      -0.66766531      -0.36943892
H        0.13929926       1.93545508      -0.07768111
H       -2.71332510       1.57311583       0.22513960
H       -0.16738570      -2.21856311       0.09296675
11
Frame=1 idx=011749 GeodesicLength=0.05882422463228003 rxn_smarts="[C:1](#[C:2][c:3]1[c:4]([H:9])[c:5]([H:10])[n:6][n:7]1[H:11])[H:8]>>[C:1](#[C:2][C:3]([C:4](=[C:5]=[N:6][H:10])[H:9])=[N:7][H:11])[H:8]"
C        2.75495471      -0.56952298      -0.26644458
C        1.57034842      -0.44630677      -0.14088949
C        0.13804122      -0.31181439      -0.03209568
C       -0.40983438       1.02560236      -0.00755477
C       -1.74247348       0.89568929       0.19512846
N       -2.68284375       0.10721731       0.28390332
N       -0.65664210      -1.31355055       0.10595664
H        3.81054849      -0.66828579      -0.36524501
H        0.14706660       1.94109544      -0.06633181
H       -2.74212203       1.55008744       0.19399717
H       -0.18704369      -2.21021136       0.09957574
11
Frame=2 idx=011749 GeodesicLength=0.11774180072347315 rxn_smarts="[C:1](#[C:2][c:3]1[c:4]([H:9])[c:5]([H:10])[n:6][n:7]1[H:11])[H:8]>>[C:1](#[C:2][C:3]([C:4](=[C:5]=[N:6][H:10])[H:9])=[N:7][H:11])[H:8]"
C        2.75777281      -0.57733540      -0.24936548
C        1.57151742      -0.44878014      -0.14712015
C        0.13917676      -0.30458067      -0.06747573
C       -0.40798804       1.03138226      -0.02797311
C       -1.73301036       0.90586010       0.22519586
N       -2.65621249       0.09303884       0.30615383
N       -0.66604685      -1.29913476       0.08085548
H        3.81287823      -0.67196688      -0.35691978
H        0.15322002       1.94579785      -0.06286854
H       -2.76600447       1.52525977       0.18481350
H       -0.20530301      -2.19954097       0.11470413
11
Frame=3 idx=011749 GeodesicLength=0.17691299118603895 rxn_smarts="[C:1](#[C:2][c:3]1[c:4]([H:9])[c:5]([H:10])[n:6][n:7]1[H:11])[H:8]>>[C:1](#[C:2][C:3]([C:4](=[C:5]=[N:6][H:10])[H:9])=[N:7][H:11])[H:8]"
C        2.75865959      -0.58659460      -0.24863426
C        1.57286129      -0.45198575      -0.14929103
C        0.14183414      -0.29712328      -0.08431704
C       -0.40454540       1.03745901      -0.03575383
C       -1.72526739       0.91641606       0.24394308
N       -2.63081543       0.08020420       0.32222147
N       -0.67397398      -1.28432017       0.07367469
H        3.81441925      -0.67301127      -0.35643170
H        0.16112942       1.95005443      -0.04806737
H       -2.78948802       1.49842647       0.15985246
H       -0.22481348      -2.18952509       0.12280354
11
Frame=4 idx=011749 GeodesicLength=0.23607198856955616 rxn_smarts="[C:1](#[C:2][c:3]1[c:4]([H:9])[c:5]([H:10])[n:6][n:7]1[H:11])[H:8]>>[C:1](#[C:2][C:3]([C:4](=[C:5]=[N:6][H:10])[H:9])=[N:7][H:11])[H:8]"
C        2.75933331      -0.59569835      -0.25063204
C        1.57386551      -0.45507407      -0.15553644
C        0.14459038      -0.28933389      -0.09851234
C       -0.40086688       1.04386939      -0.04118237
C       -1.71858828       0.92722546       0.25715325
N       -2.60558299       0.06861038       0.34047552
N       -0.68158699      -1.26922303       0.06811214
H        3.81628922      -0.67493085      -0.35207718
H        0.16903361       1.95427208      -0.03336526
H       -2.81240771       1.46945410       0.13613137
H       -0.24407919      -2.17917123       0.12943334
11
Frame=5 idx=011749 GeodesicLength=0.2952346465197852 rxn_smarts="[C:1](#[C:2][c:3]1[c:4]([H:9])[c:5]([H:10])[n:6][n:7]1[H:11])[H:8]>>[C:1](#[C:2][C:3]([C:4](=[C:5]=[N:6][H:10])[H:9])=[N:7][H:11])[H:8]"
C        2.76007890      -0.60444671      -0.25165553
C        1.57489412      -0.45803388      -0.16157997
C        0.14759664      -0.28145649      -0.10988773
C       -0.39695587       1.05034697      -0.04444190
C       -1.71282420       0.93791805       0.26631241
N       -2.58126544       0.05771219       0.35482513
N       -0.68883625      -1.25427352       0.06355227
H        3.81768997      -0.67737735      -0.35107646
H        0.17683423       1.95834428      -0.01785352
H       -2.83432426       1.43985224       0.11464305
H       -0.26288783      -2.16858579       0.13716224
11
Frame=6 idx=011749 GeodesicLength=0.354351971620438 rxn_smarts="[C:1](#[C:2][c:3]1[c:4]([H:9])[c:5]([H:10])[n:6][n:7]1[H:11])[H:8]>>[C:1](#[C:2][C:3]([C:4](=[C:5]=[N:6][H:10])[H:9])=[N:7][H:11])[H:8]"
C        2.76076019      -0.61309452      -0.25330158
C        1.57597130      -0.46099828      -0.16706270
C        0.15082692      -0.27353675      -0.11833941
C       -0.39274011       1.05689400      -0.04581886
C       -1.70796172       0.94874852       0.27183464
N       -2.55768861       0.04796596       0.36743534
N       -0.69568762      -1.23929860       0.06154514
H        3.81877716      -0.67992855      -0.35278505
H        0.18477585       1.96218498      -0.00042991
H       -2.85554930       1.40907727       0.09252926
H       -0.28148407      -2.15801401       0.14439313
11
Frame=7 idx=011749 GeodesicLength=0.4135830548101078 rxn_smarts="[C:1](#[C:2][c:3]1[c:4]([H:9])[c:5]([H:10])[n:6][n:7]1[H:11])[H:8]>>[C:1](#[C:2][C:3]([C:4](=[C:5]=[N:6][H:10])[H:9])=[N:7][H:11])[H:8]"
C        2.76108919      -0.62192472      -0.25757117
C        1.57660993      -0.46439354      -0.17664571
C        0.15382360      -0.26598659      -0.12727763
C       -0.38859198       1.06314286      -0.04810063
C       -1.70334425       0.95947538       0.27572208
N       -2.53442705       0.03926793       0.37950205
N       -0.70234890      -1.22463738       0.06024110
H        3.82042086      -0.68139157      -0.34747324
H        0.19257875       1.96547734       0.01436435
H       -2.87596220       1.37857284       0.07631868
H       -0.29984795      -2.14760257       0.15092013
11
Frame=8 idx=011749 GeodesicLength=0.4724855059959569 rxn_smarts="[C:1](#[C:2][c:3]1[c:4]([H:9])[c:5]([H:10])[n:6][n:7]1[H:11])[H:8]>>[C:1](#[C:2][C:3]([C:4](=[C:5]=[N:6][H:10])[H:9])=[N:7][H:11])[H:8]"
C        2.76173539      -0.63022413      -0.25876460
C        1.57776421      -0.46751038      -0.18017881
C        0.15735025      -0.25834917      -0.13216089
C       -0.38418554       1.06942932      -0.04853042
C       -1.69954408       0.97023359       0.27663287
N       -2.51217950       0.03161180       0.38886982
N       -0.70863907      -1.20996167       0.06087830
H        3.82115071      -0.68355694      -0.35162561
H        0.20015865       1.96877963       0.03088273
H       -2.89546533       1.34698203       0.05784566
H       -0.31814570      -2.13743408       0.15615093
11
Frame=9 idx=011749 GeodesicLength=0.5314735582015591 rxn_smarts="[C:1](#[C:2][c:3]1[c:4]([H:9])[c:5]([H:10])[n:6][n:7]1[H:11])[H:8]>>[C:1](#[C:2][C:3]([C:4](=[C:5]=[N:6][H:10])[H:9])=[N:7][H:11])[H:8]"
C        2.76242143      -0.63812724      -0.25953055
C        1.57869341      -0.47085239      -0.18651040
C        0.16075394      -0.25117482      -0.13783612
C       -0.38004918       1.07523954      -0.05038073
C       -1.69584625       0.98047107       0.27688587
N       -2.49063007       0.02435330       0.39550965
N       -0.71458801      -1.19583763       0.06155940
H        3.82223372      -0.68529162      -0.35135683
H        0.20722365       1.97166123       0.04383756
H       -2.91430367       1.31711598       0.04685945
H       -0.33590897      -2.12755742       0.16096270
11
Frame=10 idx=011749 GeodesicLength=0.5904182166356433 rxn_smarts="[C:1](#[C:2][c:3]1[c:4]([H:9])[c:5]([H:10])[n:6][n:7]1[H:11])[H:8]>>[C:1](#[C:2][C:3]([C:4](=[C:5]=[N:6][H:10])[H:9])=[N:7][H:11])[H:8]"
C        2.76291267      -0.64609706      -0.26181188
C        1.57946497      -0.47446492      -0.19387579
C        0.16411822      -0.24427057      -0.14323410
C       -0.37590180       1.08082581      -0.05265203
C       -1.69234757       0.99065746       0.27581835
N       -2.46935503       0.01809395       0.40227855
N       -0.72035145      -1.18191663       0.06285721
H        3.82350362      -0.68633274      -0.34803023
H        0.21418248       1.97422110       0.05548581
H       -2.93264735       1.28722744       0.03853797
H       -0.35357875      -2.11794384       0.16462615
11
Frame=11 idx=011749 GeodesicLength=0.6492762481609563 rxn_smarts="[C:1](#[C:2][c:3]1[c:4]([H:9])[c:5]([H:10])[n:6][n:7]1[H:11])[H:8]>>[C:1](#[C:2][C:3]([C:4](=[C:5]=[N:6][H:10])[H:9])=[N:7][H:11])[H:8]"
C        2.76345314      -0.65386909      -0.26465879
C        1.58041770      -0.47802288      -0.19960306
C        0.16772344      -0.23743253      -0.14687991
C       -0.37156831       1.08635825      -0.05372090
C       -1.68946387       1.00073718       0.27262512
N       -2.44897513       0.01254904       0.40680164
N       -0.72575359      -1.16813218       0.06533251
H        3.82452647      -0.68759715      -0.34789239
H        0.22103192       1.97655946       0.06933735
H       -2.95051680       1.25717094       0.02937146
H       -0.37087496      -2.10832106       0.16928698
11
Frame=12 idx=011749 GeodesicLength=0.7081156787591032 rxn_smarts="[C:1](#[C:2][c:3]1[c:4]([H:9])[c:5]([H:10])[n:6][n:7]1[H:11])[H:8]>>[C:1](#[C:2][C:3]([C:4](=[C:5]=[N:6][H:10])[H:9])=[N:7][H:11])[H:8]"
C        2.76377251      -0.66162793      -0.27068022
C        1.58118189      -0.48176346      -0.20768919
C        0.17129329      -0.23093112      -0.15034952
C       -0.36715473       1.09154651      -0.05409385
C       -1.68693024       1.01034790       0.26825427
N       -2.42978927       0.00729284       0.40721420
N       -0.73067398      -1.15474952       0.06908686
H        3.82569026      -0.68829205      -0.34553346
H        0.22779775       1.97825605       0.08472920
H       -2.96786312       1.22853407       0.02243841
H       -0.38732437      -2.09861329       0.17662330
11
Frame=13 idx=011749 GeodesicLength=0.7668895660444239 rxn_smarts="[C:1](#[C:2][c:3]1[c:4]([H:9])[c:5]([H:10])[n:6][n:7]1[H:11])[H:8]>>[C:1](#[C:2][C:3]([C:4](=[C:5]=[N:6][H:10])[H:9])=[N:7][H:11])[H:8]"
C        2.76390851      -0.66934221      -0.28096728
C        1.58207089      -0.48538079      -0.21482909
C        0.17510242      -0.22441201      -0.15178538
C       -0.36236518       1.09677360      -0.05190324
C       -1.68521139       1.01986763       0.26127464
N       -2.41188929       0.00264891       0.40398815
N       -0.73505848      -1.14141320       0.07508616
H        3.82662063      -0.68933324      -0.34633649
H        0.23455119       1.97939212       0.10587375
H       -2.98476270       1.19971029       0.01177866
H       -0.40296660      -2.08851109       0.18782010
11
Frame=14 idx=011749 GeodesicLength=0.8256253713375621 rxn_smarts="[C:1](#[C:2][c:3]1[c:4]([H:9])[c:5]([H:10])[n:6][n:7]1[H:11])[H:8]>>[C:1](#[C:2][C:3]([C:4](=[C:5]=[N:6][H:10])[H:9])=[N:7][H:11])[H:8]"
C        2.76375030      -0.67659229      -0.29718684
C        1.58296486      -0.48866372      -0.22296331
C        0.17907521      -0.21786930      -0.15180381
C       -0.35727733       1.10195756      -0.04671368
C       -1.68430595       1.02897069       0.25194314
N       -2.39573765      -0.00189052       0.39439028
N       -0.73861585      -1.12822973       0.08374989
H        3.82731467      -0.69134825      -0.34910718
H        0.24105387       1.97957636       0.13419807
H       -3.00120156       1.17173334      -0.00204848
H       -0.41702058      -2.07764415       0.20554192
11
Frame=15 idx=011749 GeodesicLength=0.8843443575207056 rxn_smarts="[C:1](#[C:2][c:3]1[c:4]([H:9])[c:5]([H:10])[n:6][n:7]1[H:11])[H:8]>>[C:1](#[C:2][C:3]([C:4](=[C:5]=[N:6][H:10])[H:9])=[N:7][H:11])[H:8]"
C        2.76393400      -0.68326263      -0.30822382
C        1.58389420      -0.49179530      -0.23041689
C        0.18307196      -0.21135665      -0.15271028
C       -0.35254426       1.10707876      -0.04408351
C       -1.68307946       1.03811100       0.24239110
N       -2.37887751      -0.00569725       0.38871752
N       -0.74219407      -1.11509536       0.09059449
H        3.82801017      -0.69406134      -0.35019951
H        0.24680909       1.98006260       0.15677156
H       -3.01754635       1.14325512      -0.01064286
H       -0.43147777      -2.06723896       0.21780219
11
Frame=16 idx=011749 GeodesicLength=0.9430667496016316 rxn_smarts="[C:1](#[C:2][c:3]1[c:4]([H:9])[c:5]([H:10])[n:6][n:7]1[H:11])[H:8]>>[C:1](#[C:2][C:3]([C:4](=[C:5]=[N:6][H:10])[H:9])=[N:7][H:11])[H:8]"
C        2.76428111      -0.68979503      -0.31620242
C        1.58476135      -0.49497211      -0.23799148
C        0.18706980      -0.20492381      -0.15415973
C       -0.34792684       1.11214637      -0.04303681
C       -1.68171078       1.04732485       0.23190598
N       -2.36160756      -0.00864295       0.38594527
N       -0.74576504      -1.10197645       0.09651196
H        3.82870975      -0.69680337      -0.34985013
H        0.25217244       1.98060137       0.17616724
H       -3.03373602       1.11418554      -0.01582178
H       -0.44624821      -2.05714440       0.22653191
