16
Frame=0 idx=005017 GeodesicLength=0.0 rxn_smarts="[C:1]([O:2][C:3]([C@@:4]([C:5]([H:13])([H:14])[H:15])([O:6][H:16])[H:12])([H:10])[H:11])([H:7])([H:8])[H:9]>>[C:1]([O:2][H:15])([H:7])([H:8])[H:9].[C:3]1([H:10])([H:11])[C:4]([O:6][H:16])([H:12])[C:5]1([H:13])[H:14]"
C        2.13708326       0.65292814      -0.87923984
O        1.42469797       0.44508343       0.32294573
C       -0.02949880      -0.97222623       0.18391581
C       -1.32310455      -0.48563696       0.71903371
C       -1.14735597       0.91280212       0.28521451
O       -2.44229261      -1.16990451       0.15118007
H        2.78487752      -0.20581892      -1.06219728
H        1.45198612       0.77495207      -1.72715783
H        2.76086671       1.54578793      -0.79944793
H        0.65382904      -1.58829068       0.75394121
H        0.01145121      -1.07280455      -0.89521772
H       -1.34055718      -0.56094841       1.81052237
H       -1.47561443       1.68778745       0.97027502
H       -1.41529533       1.07355847      -0.75617824
H        0.51042776       0.97270716       0.31976943
H       -2.56150068      -2.00997647       0.60264105
16
Frame=1 idx=005017 GeodesicLength=0.12270902018058555 rxn_smarts="[C:1]([O:2][C:3]([C@@:4]([C:5]([H:13])([H:14])[H:15])([O:6][H:16])[H:12])([H:10])[H:11])([H:7])([H:8])[H:9]>>[C:1]([O:2][H:15])([H:7])([H:8])[H:9].[C:3]1([H:10])([H:11])[C:4]([O:6][H:16])([H:12])[C:5]1([H:13])[H:14]"
C        2.17474597       0.65100650      -0.87084002
O        1.40901559       0.45796228       0.29817201
C       -0.04510824      -0.95275682       0.16006491
C       -1.33181972      -0.48898276       0.73285853
C       -1.17316432       0.90420401       0.27353970
O       -2.45537129      -1.19038618       0.20156756
H        2.78289822      -0.23478746      -1.06110017
H        1.52519935       0.83228631      -1.73599265
H        2.84449921       1.50480069      -0.74676446
H        0.63819168      -1.59405669       0.70192315
H       -0.01357669      -1.04437948      -0.92060591
H       -1.32106678      -0.54846006       1.82534993
H       -1.50045681       1.68146786       0.95669879
H       -1.47366729       1.05243010      -0.76064722
H        0.47625205       1.00502642       0.29332395
H       -2.53657093      -2.03537472       0.65245189
16
Frame=2 idx=005017 GeodesicLength=0.24467814567701343 rxn_smarts="[C:1]([O:2][C:3]([C@@:4]([C:5]([H:13])([H:14])[H:15])([O:6][H:16])[H:12])([H:10])[H:11])([H:7])([H:8])[H:9]>>[C:1]([O:2][H:15])([H:7])([H:8])[H:9].[C:3]1([H:10])([H:11])[C:4]([O:6][H:16])([H:12])[C:5]1([H:13])[H:14]"
C        2.21203253       0.64786061      -0.86162234
O        1.39266823       0.47231519       0.27080157
C       -0.06097861      -0.93268697       0.13587840
C       -1.33919364      -0.49190862       0.74670572
C       -1.19999262       0.89560622       0.26189432
O       -2.46567465      -1.21117084       0.25302836
H        2.77840621      -0.26305768      -1.06221390
H        1.60360120       0.89010799      -1.74165205
H        2.92495922       1.45737790      -0.68962682
H        0.62224699      -1.59795557       0.64853869
H       -0.03950383      -1.01566670      -0.94617959
H       -1.30003266      -0.53486077       1.83927324
H       -1.52612777       1.67493227       0.94347510
H       -1.53381896       1.03046993      -0.76372256
H        0.43990331       1.03857177       0.26316526
H       -2.50849495      -2.05993472       0.70225662
16
Frame=3 idx=005017 GeodesicLength=0.365769930398292 rxn_smarts="[C:1]([O:2][C:3]([C@@:4]([C:5]([H:13])([H:14])[H:15])([O:6][H:16])[H:12])([H:10])[H:11])([H:7])([H:8])[H:9]>>[C:1]([O:2][H:15])([H:7])([H:8])[H:9].[C:3]1([H:10])([H:11])[C:4]([O:6][H:16])([H:12])[C:5]1([H:13])[H:14]"
C        2.24874570       0.64352860      -0.85160241
O        1.37581439       0.48770949       0.24053576
C       -0.07716992      -0.91223335       0.11140265
C       -1.34514010      -0.49431835       0.76055362
C       -1.22757391       0.88697310       0.25023185
O       -2.47314705      -1.23195324       0.30559506
H        2.77212009      -0.28973833      -1.06601262
H        1.68722783       0.94790314      -1.74349122
H        3.00057777       1.40387258      -0.62796972
H        0.60576609      -1.60022797       0.59404315
H       -0.06639933      -0.98700704      -0.97187634
H       -1.27745023      -0.51994556       1.85223221
H       -1.55221586       1.66828888       0.93046500
H       -1.59529776       1.00755767      -0.76538686
H        0.40143976       1.07298075       0.22934270
H       -2.47729746      -2.08339037       0.75193715
16
Frame=4 idx=005017 GeodesicLength=0.48596251788243017 rxn_smarts="[C:1]([O:2][C:3]([C@@:4]([C:5]([H:13])([H:14])[H:15])([O:6][H:16])[H:12])([H:10])[H:11])([H:7])([H:8])[H:9]>>[C:1]([O:2][H:15])([H:7])([H:8])[H:9].[C:3]1([H:10])([H:11])[C:4]([O:6][H:16])([H:12])[C:5]1([H:13])[H:14]"
C        2.28467683       0.63803429      -0.84067626
O        1.35846518       0.50427479       0.20714645
C       -0.09360259      -0.89138032       0.08660665
C       -1.34950453      -0.49614129       0.77435248
C       -1.25587192       0.87825757       0.23847660
O       -2.47750178      -1.25270512       0.35928801
H        2.76378938      -0.31455050      -1.07305036
H        1.77626625       1.00584053      -1.74054169
H        3.07075811       1.34360058      -0.56169906
H        0.58880708      -1.60080577       0.53853934
H       -0.09427765      -0.95851162      -0.99770948
H       -1.25318278      -0.50353015       1.86412689
H       -1.57870964       1.66154079       0.91752099
H       -1.65799104       0.98348440      -0.76562217
H        0.36063237       1.10822173       0.19164611
H       -2.44275326      -2.10562991       0.80159550
16
Frame=5 idx=005017 GeodesicLength=0.6051417011580514 rxn_smarts="[C:1]([O:2][C:3]([C@@:4]([C:5]([H:13])([H:14])[H:15])([O:6][H:16])[H:12])([H:10])[H:11])([H:7])([H:8])[H:9]>>[C:1]([O:2][H:15])([H:7])([H:8])[H:9].[C:3]1([H:10])([H:11])[C:4]([O:6][H:16])([H:12])[C:5]1([H:13])[H:14]"
C        2.31962563       0.63144088      -0.82890922
O        1.34080876       0.52143527       0.17025075
C       -0.11034645      -0.87038919       0.06152249
C       -1.35220575      -0.49726783       0.78807736
C       -1.28456959       0.86942386       0.22661120
O       -2.47871680      -1.27303256       0.41413476
H        2.75459486      -0.33648411      -1.08376189
H        1.87052737       1.06320909      -1.73198444
H        3.13360039       1.27720259      -0.49102082
H        0.57108079      -1.60006120       0.48226921
H       -0.12323229      -0.93057585      -1.02363013
H       -1.22722933      -0.48543282       1.87488129
H       -1.60514011       1.65479717       0.90452788
H       -1.72137294       0.95819352      -0.76438413
H        0.31757204       1.14384692       0.15029929
H       -2.40499656      -2.12630575       0.85111638
16
Frame=6 idx=005017 GeodesicLength=0.7232915367094128 rxn_smarts="[C:1]([O:2][C:3]([C@@:4]([C:5]([H:13])([H:14])[H:15])([O:6][H:16])[H:12])([H:10])[H:11])([H:7])([H:8])[H:9]>>[C:1]([O:2][H:15])([H:7])([H:8])[H:9].[C:3]1([H:10])([H:11])[C:4]([O:6][H:16])([H:12])[C:5]1([H:13])[H:14]"
C        2.35331489       0.62380241      -0.81626732
O        1.32292214       0.53924164       0.12959294
C       -0.12726372      -0.84927160       0.03622081
C       -1.35308637      -0.49759216       0.80167943
C       -1.31357577       0.86041458       0.21451290
O       -2.47648609      -1.29284223       0.47012217
H        2.74438224      -0.35507030      -1.09905475
H        1.96992888       1.12033719      -1.71643022
H        3.18839376       1.20378042      -0.41612805
H        0.55265941      -1.59797836       0.42553864
H       -0.15319824      -0.90344833      -1.04954341
H       -1.19954017      -0.46539967       1.88439390
H       -1.63153832       1.64808571       0.89120239
H       -1.78516857       0.93145085      -0.76174746
H        0.27206245       1.17976469       0.10536387
H       -2.36380652      -2.14527484       0.90054416
16
Frame=7 idx=005017 GeodesicLength=0.8403205102170634 rxn_smarts="[C:1]([O:2][C:3]([C@@:4]([C:5]([H:13])([H:14])[H:15])([O:6][H:16])[H:12])([H:10])[H:11])([H:7])([H:8])[H:9]>>[C:1]([O:2][H:15])([H:7])([H:8])[H:9].[C:3]1([H:10])([H:11])[C:4]([O:6][H:16])([H:12])[C:5]1([H:13])[H:14]"
C        2.38554171       0.61521772      -0.80292744
O        1.30509889       0.55692171       0.08477695
C       -0.14437499      -0.82835017       0.01084668
C       -1.35210360      -0.49698764       0.81512998
C       -1.34250742       0.85117807       0.20213388
O       -2.47084947      -1.31165590       0.52720754
H        2.73468289      -0.36913473      -1.11965233
H        2.07375769       1.17671043      -1.69263003
H        3.23327233       1.12400149      -0.33773443
H        0.53322377      -1.59505079       0.36880957
H       -0.18418001      -0.87768373      -1.07528116
H       -1.17024511      -0.44323025       1.89258829
H       -1.65746952       1.64151820       0.87732047
H       -1.84867780       0.90322099      -0.75776546
H        0.22431698       1.21545556       0.05746071
H       -2.31948634      -2.16213097       0.94971678
16
Frame=8 idx=005017 GeodesicLength=0.9563138452657759 rxn_smarts="[C:1]([O:2][C:3]([C@@:4]([C:5]([H:13])([H:14])[H:15])([O:6][H:16])[H:12])([H:10])[H:11])([H:7])([H:8])[H:9]>>[C:1]([O:2][H:15])([H:7])([H:8])[H:9].[C:3]1([H:10])([H:11])[C:4]([O:6][H:16])([H:12])[C:5]1([H:13])[H:14]"
C        2.41604227       0.60561365      -0.78875332
O        1.28724848       0.57492537       0.03535523
C       -0.16150920      -0.80739877      -0.01473191
C       -1.34902631      -0.49533531       0.82836699
C       -1.37145524       0.84172391       0.18951097
O       -2.46136062      -1.32945008       0.58539655
H        2.72570903      -0.37828116      -1.14560138
H        2.18204946       1.23174770      -1.65910313
H        3.26740625       1.03669384      -0.25650856
H        0.51304928      -1.59100924       0.31203037
H       -0.21622343      -0.85318738      -1.10094238
H       -1.13908868      -0.41878867       1.89932619
H       -1.68314353       1.63504709       0.86291884
H       -1.91198346       0.87342303      -0.75227392
H        0.17385680       1.25110038       0.00633527
H       -2.27157110      -2.17682437       0.99867418
16
Frame=9 idx=005017 GeodesicLength=1.0712888213837066 rxn_smarts="[C:1]([O:2][C:3]([C@@:4]([C:5]([H:13])([H:14])[H:15])([O:6][H:16])[H:12])([H:10])[H:11])([H:7])([H:8])[H:9]>>[C:1]([O:2][H:15])([H:7])([H:8])[H:9].[C:3]1([H:10])([H:11])[C:4]([O:6][H:16])([H:12])[C:5]1([H:13])[H:14]"
C        2.44479250       0.59498905      -0.77393425
O        1.26959194       0.59200730      -0.01962367
C       -0.17893808      -0.78681771      -0.04075035
C       -1.34379779      -0.49255294       0.84134634
C       -1.39995840       0.83210782       0.17689478
O       -2.44822931      -1.34555739       0.64472225
H        2.72101978      -0.38150168      -1.17581720
H        2.29341815       1.28339216      -1.61523377
H        3.28815526       0.94456364      -0.17361713
H        0.49145808      -1.58666809       0.25495500
H       -0.24973379      -0.83027288      -1.12673325
H       -1.10592084      -0.39220074       1.90447985
H       -1.70771369       1.62879574       0.84834100
H       -1.97451029       0.84247693      -0.74491421
H        0.12100952       1.28609080      -0.04738855
H       -2.22064303      -2.18885201       1.04727317
16
Frame=10 idx=005017 GeodesicLength=1.1853920119532504 rxn_smarts="[C:1]([O:2][C:3]([C@@:4]([C:5]([H:13])([H:14])[H:15])([O:6][H:16])[H:12])([H:10])[H:11])([H:7])([H:8])[H:9]>>[C:1]([O:2][H:15])([H:7])([H:8])[H:9].[C:3]1([H:10])([H:11])[C:4]([O:6][H:16])([H:12])[C:5]1([H:13])[H:14]"
C        2.47127033       0.58317131      -0.75817555
O        1.25198298       0.60900798      -0.08078782
C       -0.19633464      -0.76615911      -0.06739477
C       -1.33598622      -0.48845388       0.85394488
C       -1.42816773       0.82236767       0.16426111
O       -2.43066857      -1.36004081       0.70519710
H        2.72029450      -0.37877378      -1.20994097
H        2.40738262       1.33101671      -1.55910722
H        3.29485095       0.84568739      -0.08996415
H        0.46901945      -1.58140429       0.19748113
H       -0.28470997      -0.80870581      -1.15275478
H       -1.07023812      -0.36320312       1.90780535
H       -1.73159743       1.62270439       0.83352192
H       -2.03644731       0.81022061      -0.73552973
H        0.06509438       1.32082207      -0.10402828
H       -2.16574521      -2.19825735       1.09547179
16
Frame=11 idx=005017 GeodesicLength=1.298804186842902 rxn_smarts="[C:1]([O:2][C:3]([C@@:4]([C:5]([H:13])([H:14])[H:15])([O:6][H:16])[H:12])([H:10])[H:11])([H:7])([H:8])[H:9]>>[C:1]([O:2][H:15])([H:7])([H:8])[H:9].[C:3]1([H:10])([H:11])[C:4]([O:6][H:16])([H:12])[C:5]1([H:13])[H:14]"
C        2.49526687       0.57024592      -0.74171962
O        1.23486442       0.62433775      -0.14901333
C       -0.21384542      -0.74594052      -0.09474200
C       -1.32549462      -0.48292560       0.86607666
C       -1.45545680       0.81257186       0.15171698
O       -2.40887900      -1.37217785       0.76676616
H        2.72698436      -0.36924035      -1.24698399
H        2.52096273       1.37362412      -1.48947245
H        3.28557648       0.74241500      -0.00737041
H        0.44504457      -1.57618569       0.13969404
H       -0.32138870      -0.78907529      -1.17901430
H       -1.03194718      -0.33179836       1.90913171
H       -1.75389535       1.61700721       0.81852330
H       -2.09694510       0.77705293      -0.72397764
H        0.00673481       1.35463906      -0.16268761
H       -2.10758209      -2.20455020       1.14307251
16
Frame=12 idx=005017 GeodesicLength=1.4119329459488652 rxn_smarts="[C:1]([O:2][C:3]([C@@:4]([C:5]([H:13])([H:14])[H:15])([O:6][H:16])[H:12])([H:10])[H:11])([H:7])([H:8])[H:9]>>[C:1]([O:2][H:15])([H:7])([H:8])[H:9].[C:3]1([H:10])([H:11])[C:4]([O:6][H:16])([H:12])[C:5]1([H:13])[H:14]"
C        2.51590603       0.55561275      -0.72353942
O        1.21754032       0.63927955      -0.22636532
C       -0.23143266      -0.72531284      -0.12413683
C       -1.31123558      -0.47576860       0.87741782
C       -1.48204294       0.80298393       0.13969277
O       -2.38129702      -1.38206437       0.82984192
H        2.74181543      -0.35461865      -1.28245668
H        2.63341977       1.40778669      -1.40583725
H        3.25786754       0.63502865       0.07421245
H        0.42004232      -1.57000628       0.07948686
H       -0.36071113      -0.77013984      -1.20665517
H       -0.98903006      -0.29807762       1.90776479
H       -1.77450487       1.61158293       0.80429090
H       -2.15696470       0.74331044      -0.70905264
H       -0.05531709       1.38824930      -0.22463824
H       -2.04405535      -2.20784605       1.18997402
16
Frame=13 idx=005017 GeodesicLength=1.5251206574241962 rxn_smarts="[C:1]([O:2][C:3]([C@@:4]([C:5]([H:13])([H:14])[H:15])([O:6][H:16])[H:12])([H:10])[H:11])([H:7])([H:8])[H:9]>>[C:1]([O:2][H:15])([H:7])([H:8])[H:9].[C:3]1([H:10])([H:11])[C:4]([O:6][H:16])([H:12])[C:5]1([H:13])[H:14]"
C        2.53262041       0.53984220      -0.70416776
O        1.20124357       0.64999052      -0.31300845
C       -0.24926149      -0.70564259      -0.15519073
C       -1.29318728      -0.46687554       0.88777617
C       -1.50639090       0.79368820       0.12803929
O       -2.34859553      -1.38836119       0.89399509
H        2.76872732      -0.33338030      -1.31563663
H        2.73748772       1.43490972      -1.30638614
H        3.21095694       0.52683867       0.15171158
H        0.39245904      -1.56511508       0.01781850
H       -0.40266809      -0.75340531      -1.23515375
H       -0.94174072      -0.26207385       1.90345131
H       -1.79126097       1.60699688       0.79035807
H       -2.21440002       0.70973240      -0.69108806
H       -0.11900360       1.42004009      -0.28838300
H       -1.97698640      -2.20718482       1.23586450
16
Frame=14 idx=005017 GeodesicLength=1.6392483068371073 rxn_smarts="[C:1]([O:2][C:3]([C@@:4]([C:5]([H:13])([H:14])[H:15])([O:6][H:16])[H:12])([H:10])[H:11])([H:7])([H:8])[H:9]>>[C:1]([O:2][H:15])([H:7])([H:8])[H:9].[C:3]1([H:10])([H:11])[C:4]([O:6][H:16])([H:12])[C:5]1([H:13])[H:14]"
C        2.54416924       0.52271515      -0.68271259
O        1.18616163       0.65596893      -0.40965166
C       -0.26727389      -0.68682929      -0.18884891
C       -1.27037337      -0.45610688       0.89669281
C       -1.52799560       0.78501114       0.11692514
O       -2.30963488      -1.39082275       0.95932372
H        2.80825594      -0.30674590      -1.34211912
H        2.82888136       1.45375524      -1.19080546
H        3.14382614       0.41893258       0.22392782
H        0.36206718      -1.56164347      -0.04666582
H       -0.44774245      -0.73828908      -1.26520207
H       -0.88843568      -0.22389048       1.89534284
H       -1.80316984       1.60350604       0.77714263
H       -2.26916844       0.67690236      -0.66927758
H       -0.18431415       1.45003293      -0.35466685
H       -1.90525320      -2.20249653       1.28059510
16
Frame=15 idx=005017 GeodesicLength=1.7548422399031134 rxn_smarts="[C:1]([O:2][C:3]([C@@:4]([C:5]([H:13])([H:14])[H:15])([O:6][H:16])[H:12])([H:10])[H:11])([H:7])([H:8])[H:9]>>[C:1]([O:2][H:15])([H:7])([H:8])[H:9].[C:3]1([H:10])([H:11])[C:4]([O:6][H:16])([H:12])[C:5]1([H:13])[H:14]"
C        2.54991440       0.50498061      -0.65958892
O        1.17424996       0.65358155      -0.51209883
C       -0.28521853      -0.67007582      -0.22404280
C       -1.24314313      -0.44356869       0.90387146
C       -1.54530273       0.77710439       0.10603131
O       -2.26539660      -1.38844826       1.02452887
H        2.86032075      -0.27291520      -1.36063783
H        2.89828654       1.46659121      -1.05972076
H        3.06097463       0.31294882       0.28583215
H        0.32749679      -1.56162721      -0.11206435
H       -0.49457903      -0.72544832      -1.29574332
H       -0.83018438      -0.18401336       1.88329306
H       -1.80840586       1.60160740       0.76386566
H       -2.31890765       0.64579595      -0.64448221
H       -0.24894665       1.47678607      -0.42243612
H       -1.83115849      -2.19329915       1.32339262
16
Frame=16 idx=005017 GeodesicLength=1.8725953468032301 rxn_smarts="[C:1]([O:2][C:3]([C@@:4]([C:5]([H:13])([H:14])[H:15])([O:6][H:16])[H:12])([H:10])[H:11])([H:7])([H:8])[H:9]>>[C:1]([O:2][H:15])([H:7])([H:8])[H:9].[C:3]1([H:10])([H:11])[C:4]([O:6][H:16])([H:12])[C:5]1([H:13])[H:14]"
C        2.54968278       0.48670727      -0.63468919
O        1.16664197       0.64182052      -0.61656275
C       -0.30299567      -0.65545585      -0.26061055
C       -1.21157625      -0.42950601       0.90893994
C       -1.55792679       0.77020969       0.09547027
O       -2.21604409      -1.38128465       1.08871265
H        2.92272981      -0.23288321      -1.36710458
H        2.94078431       1.47328961      -0.91742925
H        2.96749436       0.21072299       0.33517875
H        0.28805899      -1.56539952      -0.17814105
H       -0.54232774      -0.71380331      -1.32664864
H       -0.76712484      -0.14315718       1.86690518
H       -1.80653202       1.60140214       0.75067608
H       -2.36314201       0.61713393      -0.61657149
H       -0.31248434       1.50028025      -0.49135287
H       -1.75523848      -2.18007666       1.36322750
