16
Frame=0 idx=009856 GeodesicLength=0.0 rxn_smarts="[O:1]([C@@:2]1([H:9])[C:3]([H:10])([H:11])[C@:4]2([C:5]([H:12])([H:13])[N:6]2[H:14])[C:7]1([H:15])[H:16])[H:8]>>[O:1]([C:2]1([H:9])[C:3]([H:10])([H:11])[C+:4]([N:6]([C-:5]([H:12])[H:13])[H:14])[C:7]1([H:15])[H:16])[H:8]"
O       -2.39093720      -1.20431388       0.85466758
C       -1.42251530      -0.78208814      -0.06725349
C       -1.09863543       0.73197949      -0.15013144
C        0.36071991       0.36329258      -0.04723024
C        2.28708321       0.64347400      -0.75768109
N        1.42913542       1.12169978       0.19469016
C        0.06627155      -1.09946299       0.23336078
H       -2.12431807      -0.92597944       1.73356227
H       -1.74028080      -1.18060105      -1.03021620
H       -1.46257062       1.29947457       0.71732099
H       -1.43403607       1.24779649      -1.05267019
H        2.00204936       0.72252197      -1.79474402
H        3.29148260       0.32783034      -0.49364826
H        1.48792994       1.96373343       0.75675156
H        0.52066674      -1.87018143      -0.38534266
H        0.22795472      -1.35917574       1.28856421
16
Frame=1 idx=009856 GeodesicLength=0.03079823119298335 rxn_smarts="[O:1]([C@@:2]1([H:9])[C:3]([H:10])([H:11])[C@:4]2([C:5]([H:12])([H:13])[N:6]2[H:14])[C:7]1([H:15])[H:16])[H:8]>>[O:1]([C:2]1([H:9])[C:3]([H:10])([H:11])[C+:4]([N:6]([C-:5]([H:12])[H:13])[H:14])[C:7]1([H:15])[H:16])[H:8]"
O       -2.38179563      -1.19847167       0.87038658
C       -1.42382633      -0.78263961      -0.06528893
C       -1.10125229       0.73108618      -0.15927284
C        0.35925595       0.36401271      -0.06090554
C        2.27957353       0.64197280      -0.75471002
N        1.41605895       1.13996272       0.18152692
C        0.06772439      -1.09739071       0.22379140
H       -2.10786482      -0.90969559       1.74367146
H       -1.75263741      -1.18746776      -1.02190015
H       -1.46610754       1.30421425       0.70383341
H       -1.44053733       1.23860130      -1.06508670
H        2.01326651       0.70512032      -1.79789596
H        3.28436864       0.34236838      -0.47525383
H        1.49660241       1.93494516       0.80338732
H        0.51636053      -1.86600288      -0.40239887
H        0.24081042      -1.36061559       1.27611575
16
Frame=2 idx=009856 GeodesicLength=0.06196510424183181 rxn_smarts="[O:1]([C@@:2]1([H:9])[C:3]([H:10])([H:11])[C@:4]2([C:5]([H:12])([H:13])[N:6]2[H:14])[C:7]1([H:15])[H:16])[H:8]>>[O:1]([C:2]1([H:9])[C:3]([H:10])([H:11])[C+:4]([N:6]([C-:5]([H:12])[H:13])[H:14])[C:7]1([H:15])[H:16])[H:8]"
O       -2.37198500      -1.19250928       0.88610550
C       -1.42476486      -0.78303894      -0.06325580
C       -1.10442166       0.73042376      -0.16886131
C        0.35752601       0.36583429      -0.07469759
C        2.27143255       0.64148164      -0.75180873
N        1.40199385       1.16074349       0.16697500
C        0.06964942      -1.09430393       0.21449357
H       -2.09094423      -0.89297056       1.75355715
H       -1.76428945      -1.19471348      -1.01324672
H       -1.47070911       1.30926082       0.68962102
H       -1.44790026       1.22899922      -1.07809741
H        2.02443840       0.68741983      -1.80072960
H        3.27576573       0.35669102      -0.45666929
H        1.50688672       1.89778658       0.85150288
H        0.51297517      -1.86076154      -0.41884017
H        0.25434670      -1.36034292       1.26395152
16
Frame=3 idx=009856 GeodesicLength=0.09388028226322341 rxn_smarts="[O:1]([C@@:2]1([H:9])[C:3]([H:10])([H:11])[C@:4]2([C:5]([H:12])([H:13])[N:6]2[H:14])[C:7]1([H:15])[H:16])[H:8]>>[O:1]([C:2]1([H:9])[C:3]([H:10])([H:11])[C+:4]([N:6]([C-:5]([H:12])[H:13])[H:14])[C:7]1([H:15])[H:16])[H:8]"
O       -2.36138833      -1.18583728       0.90234970
C       -1.42530303      -0.78326634      -0.06089543
C       -1.10725162       0.72971788      -0.17891607
C        0.35598444       0.36783996      -0.08779502
C        2.26262905       0.64210722      -0.74812552
N        1.38786278       1.18165766       0.15404838
C        0.07173835      -1.09113427       0.20527577
H       -2.07322177      -0.87514526       1.76350700
H       -1.77560834      -1.20208259      -1.00378648
H       -1.47552410       1.31462559       0.67427961
H       -1.45423130       1.21884682      -1.09195905
H        2.03517576       0.67274611      -1.80208858
H        3.26573486       0.37013575      -0.43834518
H        1.51574523       1.85528553       0.89619576
H        0.50961726      -1.85515672      -0.43535064
H        0.26804076      -1.36034006       1.25160576
16
Frame=4 idx=009856 GeodesicLength=0.12600571656038886 rxn_smarts="[O:1]([C@@:2]1([H:9])[C:3]([H:10])([H:11])[C@:4]2([C:5]([H:12])([H:13])[N:6]2[H:14])[C:7]1([H:15])[H:16])[H:8]>>[O:1]([C:2]1([H:9])[C:3]([H:10])([H:11])[C+:4]([N:6]([C-:5]([H:12])[H:13])[H:14])[C:7]1([H:15])[H:16])[H:8]"
O       -2.35142035      -1.17920313       0.91682364
C       -1.42534329      -0.78334679      -0.05877695
C       -1.10918589       0.72906539      -0.18796106
C        0.35513551       0.36955128      -0.09808548
C        2.25307360       0.64297991      -0.74419624
N        1.37517771       1.20102067       0.14438888
C        0.07382978      -1.08841394       0.19741018
H       -2.05711561      -0.85806117       1.77204929
H       -1.78531669      -1.20863216      -0.99507890
H       -1.48024197       1.31961818       0.65980254
H       -1.45827437       1.20930587      -1.10493729
H        2.04354076       0.66029657      -1.80223177
H        3.25535283       0.38336941      -0.42257502
H        1.52373538       1.81367900       0.93316771
H        0.50667972      -1.84974940      -0.45037165
H        0.28037287      -1.36147968       1.24057211
16
Frame=5 idx=009856 GeodesicLength=0.15828639636451589 rxn_smarts="[O:1]([C@@:2]1([H:9])[C:3]([H:10])([H:11])[C@:4]2([C:5]([H:12])([H:13])[N:6]2[H:14])[C:7]1([H:15])[H:16])[H:8]>>[O:1]([C:2]1([H:9])[C:3]([H:10])([H:11])[C+:4]([N:6]([C-:5]([H:12])[H:13])[H:14])[C:7]1([H:15])[H:16])[H:8]"
O       -2.34171029      -1.17205440       0.93096969
C       -1.42528675      -0.78340044      -0.05655620
C       -1.11038533       0.72823451      -0.19668929
C        0.35486092       0.37059370      -0.10664403
C        2.24337013       0.64418232      -0.73969078
N        1.36372906       1.21826137       0.13812662
C        0.07578017      -1.08649124       0.18995995
H       -2.04142546      -0.84062203       1.78017638
H       -1.79479945      -1.21489355      -0.98625758
H       -1.48472630       1.32459135       0.64525243
H       -1.46041319       1.19967831      -1.11787260
H        2.05080160       0.65113068      -1.80112816
H        3.24510454       0.39617090      -0.40836911
H        1.52976264       1.77386969       0.96425994
H        0.50340753      -1.84494665      -0.46525003
H        0.29193018      -1.36430451       1.22971277
16
Frame=6 idx=009856 GeodesicLength=0.19069976303683778 rxn_smarts="[O:1]([C@@:2]1([H:9])[C:3]([H:10])([H:11])[C@:4]2([C:5]([H:12])([H:13])[N:6]2[H:14])[C:7]1([H:15])[H:16])[H:8]>>[O:1]([C:2]1([H:9])[C:3]([H:10])([H:11])[C+:4]([N:6]([C-:5]([H:12])[H:13])[H:14])[C:7]1([H:15])[H:16])[H:8]"
O       -2.33236019      -1.16467482       0.94450294
C       -1.42511606      -0.78343954      -0.05434847
C       -1.11094292       0.72729031      -0.20497211
C        0.35506552       0.37111747      -0.11365288
C        2.23353645       0.64558616      -0.73491658
N        1.35335107       1.23375223       0.13453190
C        0.07758272      -1.08519563       0.18304459
H       -2.02639477      -0.82327579       1.78773816
H       -1.80384878      -1.22078500      -0.97758132
H       -1.48896472       1.32939170       0.63093902
H       -1.46094543       1.19016922      -1.13051494
H        2.05698176       0.64418156      -1.79924205
H        3.23500110       0.40868702      -0.39567428
H        1.53452777       1.73625362       0.99058042
H        0.49990894      -1.84063034      -0.47969266
H        0.30261753      -1.36842818       1.21925827
16
Frame=7 idx=009856 GeodesicLength=0.22332189538138775 rxn_smarts="[O:1]([C@@:2]1([H:9])[C:3]([H:10])([H:11])[C@:4]2([C:5]([H:12])([H:13])[N:6]2[H:14])[C:7]1([H:15])[H:16])[H:8]>>[O:1]([C:2]1([H:9])[C:3]([H:10])([H:11])[C+:4]([N:6]([C-:5]([H:12])[H:13])[H:14])[C:7]1([H:15])[H:16])[H:8]"
O       -2.32311286      -1.15697003       0.95781388
C       -1.42489409      -0.78346029      -0.05207578
C       -1.11102991       0.72621666      -0.21304632
C        0.35559610       0.37120067      -0.11958757
C        2.22364459       0.64720511      -0.72983217
N        1.34370229       1.24777022       0.13308334
C        0.07924736      -1.08442765       0.17635749
H       -2.01152302      -0.80580562       1.79498024
H       -1.81277742      -1.22643062      -0.96879660
H       -1.49302536       1.33409384       0.61656858
H       -1.46026575       1.18059168      -1.14309492
H        2.06247841       0.63902944      -1.79664827
H        3.22497587       0.42093440      -0.38391241
H        1.53816716       1.70042266       1.01341906
H        0.49607779      -1.83667413      -0.49406974
H        0.31273882      -1.37369633       1.20884119
16
Frame=8 idx=009856 GeodesicLength=0.25617085517622473 rxn_smarts="[O:1]([C@@:2]1([H:9])[C:3]([H:10])([H:11])[C@:4]2([C:5]([H:12])([H:13])[N:6]2[H:14])[C:7]1([H:15])[H:16])[H:8]>>[O:1]([C:2]1([H:9])[C:3]([H:10])([H:11])[C+:4]([N:6]([C-:5]([H:12])[H:13])[H:14])[C:7]1([H:15])[H:16])[H:8]"
O       -2.31372799      -1.14883168       0.97133545
C       -1.42471173      -0.78346358      -0.04964733
C       -1.11081018       0.72500030      -0.22112156
C        0.35633236       0.37091119      -0.12487303
C        2.21382558       0.64905460      -0.72432221
N        1.33451692       1.26055946       0.13341460
C        0.08077377      -1.08412963       0.16955137
H       -1.99629620      -0.78797812       1.80219043
H       -1.82196348      -1.23195442      -0.95963987
H       -1.49698355       1.33879150       0.60189340
H       -1.45873697       1.17076401      -1.15582853
H        2.06776014       0.63529903      -1.79334008
H        3.21504128       0.43295281      -0.37246898
H        1.54061339       1.66605497       1.03367931
H        0.49176681      -1.83297865      -0.50886441
H        0.32259986      -1.38005181       1.19804144
16
Frame=9 idx=009856 GeodesicLength=0.28919494189287476 rxn_smarts="[O:1]([C@@:2]1([H:9])[C:3]([H:10])([H:11])[C@:4]2([C:5]([H:12])([H:13])[N:6]2[H:14])[C:7]1([H:15])[H:16])[H:8]>>[O:1]([C:2]1([H:9])[C:3]([H:10])([H:11])[C+:4]([N:6]([C-:5]([H:12])[H:13])[H:14])[C:7]1([H:15])[H:16])[H:8]"
O       -2.30419774      -1.14039188       0.98492532
C       -1.42453653      -0.78344099      -0.04711386
C       -1.11034685       0.72368489      -0.22912244
C        0.35722943       0.37034643      -0.12961174
C        2.20407950       0.65107999      -0.71849499
N        1.32569611       1.27235170       0.13515089
C        0.08219457      -1.08418939       0.16266763
H       -1.98079031      -0.76997177       1.80926938
H       -1.83128671      -1.23730672      -0.95020971
H       -1.50084607       1.34341711       0.58708287
H       -1.45655216       1.16079757      -1.16855308
H        2.07286516       0.63251414      -1.78945623
H        3.20514617       0.44466751      -0.36125494
H        1.54206097       1.63315452       1.05173629
H        0.48707257      -1.82945492      -0.52394524
H        0.33221189      -1.38725820       1.18692987
16
Frame=10 idx=009856 GeodesicLength=0.322413834028389 rxn_smarts="[O:1]([C@@:2]1([H:9])[C:3]([H:10])([H:11])[C@:4]2([C:5]([H:12])([H:13])[N:6]2[H:14])[C:7]1([H:15])[H:16])[H:8]>>[O:1]([C:2]1([H:9])[C:3]([H:10])([H:11])[C+:4]([N:6]([C-:5]([H:12])[H:13])[H:14])[C:7]1([H:15])[H:16])[H:8]"
O       -2.29437495      -1.13157501       0.99881411
C       -1.42441141      -0.78339028      -0.04442097
C       -1.10972270       0.72225592      -0.23717218
C        0.35822098       0.36953947      -0.13400896
C        2.19444984       0.65328131      -0.71228089
N        1.31708778       1.28327064       0.13809753
C        0.08350139      -1.08457672       0.15552162
H       -1.96471032      -0.75164830       1.81635557
H       -1.84094122      -1.24254886      -0.94034228
H       -1.50466239       1.34801626       0.57197555
H       -1.45388252       1.15057037      -1.18140321
H        2.07802317       0.63047788      -1.78496015
H        3.19528501       0.45617400      -0.34995591
H        1.54251988       1.60148303       1.06807838
H        0.48189946      -1.82603603      -0.53956751
H        0.34171800      -1.39529369       1.17526929
16
Frame=11 idx=009856 GeodesicLength=0.3557747055949104 rxn_smarts="[O:1]([C@@:2]1([H:9])[C:3]([H:10])([H:11])[C@:4]2([C:5]([H:12])([H:13])[N:6]2[H:14])[C:7]1([H:15])[H:16])[H:8]>>[O:1]([C:2]1([H:9])[C:3]([H:10])([H:11])[C+:4]([N:6]([C-:5]([H:12])[H:13])[H:14])[C:7]1([H:15])[H:16])[H:8]"
O       -2.28430210      -1.12251088       1.01280813
C       -1.42429666      -0.78330695      -0.04162737
C       -1.10896765       0.72075303      -0.24517219
C        0.35929242       0.36855909      -0.13808502
C        2.18491959       0.65561186      -0.70579593
N        1.30866001       1.29347113       0.14200423
C        0.08472441      -1.08520670       0.14821267
H       -1.94822012      -0.73319016       1.82331990
H       -1.85075872      -1.24762938      -0.93017005
H       -1.50843017       1.35252141       0.55676144
H       -1.45083679       1.14020924      -1.19420729
H        2.08319599       0.62889043      -1.77997486
H        3.18542074       0.46738637      -0.33860941
H        1.54215825       1.57107058       1.08286422
H        0.47636098      -1.82267077      -0.55552799
H        0.35107983      -1.40395831       1.16319953
16
Frame=12 idx=009856 GeodesicLength=0.3893259471072639 rxn_smarts="[O:1]([C@@:2]1([H:9])[C:3]([H:10])([H:11])[C@:4]2([C:5]([H:12])([H:13])[N:6]2[H:14])[C:7]1([H:15])[H:16])[H:8]>>[O:1]([C:2]1([H:9])[C:3]([H:10])([H:11])[C+:4]([N:6]([C-:5]([H:12])[H:13])[H:14])[C:7]1([H:15])[H:16])[H:8]"
O       -2.27380262      -1.11308582       1.02717548
C       -1.42423334      -0.78318736      -0.03866149
C       -1.10814554       0.71915347      -0.25326207
C        0.36039010       0.36741599      -0.14202687
C        2.17553040       0.65808035      -0.69892972
N        1.30028096       1.30301367       0.14677609
C        0.08584831      -1.08607785       0.14053574
H       -1.93096812      -0.71441671       1.83031690
H       -1.86095763      -1.25261327      -0.91948764
H       -1.51219121       1.35699007       0.54124244
H       -1.44754118       1.12957017      -1.20713138
H        2.08862066       0.62768736      -1.77440844
H        3.17553795       0.47836218      -0.32689159
H        1.54086747       1.54171436       1.09643311
H        0.47032399      -1.81931025      -0.57212610
H        0.36043980      -1.41329636       1.15044554
16
Frame=13 idx=009856 GeodesicLength=0.4230192124810711 rxn_smarts="[O:1]([C@@:2]1([H:9])[C:3]([H:10])([H:11])[C@:4]2([C:5]([H:12])([H:13])[N:6]2[H:14])[C:7]1([H:15])[H:16])[H:8]>>[O:1]([C:2]1([H:9])[C:3]([H:10])([H:11])[C+:4]([N:6]([C-:5]([H:12])[H:13])[H:14])[C:7]1([H:15])[H:16])[H:8]"
O       -2.26295656      -1.10343086       1.04168115
C       -1.42417528      -0.78302844      -0.03558929
C       -1.10726250       0.71749297      -0.26132977
C        0.36151768       0.36616288      -0.14579790
C        2.16624859       0.66065200      -0.69181259
N        1.29195861       1.31200637       0.15223537
C        0.08690072      -1.08711705       0.13263239
H       -1.91318904      -0.69551462       1.83719077
H       -1.87133074      -1.25744642      -0.90845189
H       -1.51593564       1.36135094       0.52561785
H       -1.44404672       1.11878397      -1.22000014
H        2.09418879       0.62664663      -1.76838100
H        3.16561151       0.48904426      -0.31494201
H        1.53883670       1.51344064       1.10885058
H        0.46391575      -1.81592071      -0.58910199
H        0.36971811      -1.42312257       1.13719849
16
Frame=14 idx=009856 GeodesicLength=0.45691196224116015 rxn_smarts="[O:1]([C@@:2]1([H:9])[C:3]([H:10])([H:11])[C@:4]2([C:5]([H:12])([H:13])[N:6]2[H:14])[C:7]1([H:15])[H:16])[H:8]>>[O:1]([C:2]1([H:9])[C:3]([H:10])([H:11])[C+:4]([N:6]([C-:5]([H:12])[H:13])[H:14])[C:7]1([H:15])[H:16])[H:8]"
O       -2.25159738      -1.09342969       1.05656295
C       -1.42415587      -0.78282817      -0.03234231
C       -1.10636557       0.71574271      -0.26950340
C        0.36263503       0.36479447      -0.14955021
C        2.15710485       0.66333388      -0.68433984
N        1.28358606       1.32046855       0.15834084
C        0.08786238      -1.08833570       0.12432520
H       -1.89456321      -0.67630382       1.84406658
H       -1.88207010      -1.26218349      -0.89686544
H       -1.51969732       1.36565315       0.50969668
H       -1.44043820       1.10771056      -1.23296956
H        2.10009988       0.62579174      -1.76179382
H        3.15562616       0.49948147      -0.30249547
H        1.53594135       1.48607087       1.12036478
H        0.45700435      -1.81247342      -0.60670950
H        0.37902759      -1.43349310       1.12321251
16
Frame=15 idx=009856 GeodesicLength=0.49094845155750555 rxn_smarts="[O:1]([C@@:2]1([H:9])[C:3]([H:10])([H:11])[C@:4]2([C:5]([H:12])([H:13])[N:6]2[H:14])[C:7]1([H:15])[H:16])[H:8]>>[O:1]([C:2]1([H:9])[C:3]([H:10])([H:11])[C+:4]([N:6]([C-:5]([H:12])[H:13])[H:14])[C:7]1([H:15])[H:16])[H:8]"
O       -2.23982777      -1.08321823       1.07157225
C       -1.42412998      -0.78258657      -0.02898998
C       -1.10545119       0.71393952      -0.27766367
C        0.36375385       0.36335194      -0.15323247
C        2.14806469       0.66608406      -0.67664446
N        1.27519209       1.32848156       0.16494209
C        0.08875798      -1.08967290       0.11577369
H       -1.87535799      -0.65697912       1.85078703
H       -1.89296168      -1.26676897      -0.88490249
H       -1.52345602       1.36982933       0.49369119
H       -1.43674745       1.09649315      -1.24586178
H        2.10623357       0.62495880      -1.75476759
H        3.14556943       0.50962492      -0.28972768
H        1.53236779       1.45965353       1.13098198
H        0.44972071      -1.80895671      -0.62466558
H        0.38827196      -1.44423432       1.10870748
16
Frame=16 idx=009856 GeodesicLength=0.5250743684699669 rxn_smarts="[O:1]([C@@:2]1([H:9])[C:3]([H:10])([H:11])[C@:4]2([C:5]([H:12])([H:13])[N:6]2[H:14])[C:7]1([H:15])[H:16])[H:8]>>[O:1]([C:2]1([H:9])[C:3]([H:10])([H:11])[C+:4]([N:6]([C-:5]([H:12])[H:13])[H:14])[C:7]1([H:15])[H:16])[H:8]"
O       -2.22774960      -1.07291191       1.08650470
C       -1.42406424      -0.78230522      -0.02559006
C       -1.10451401       0.71211257      -0.28571164
C        0.36488437       0.36186572      -0.15680321
C        2.13910187       0.66886460      -0.66883878
N        1.26680389       1.33610979       0.17190709
C        0.08960611      -1.09107801       0.10711288
H       -1.85580874      -0.63771102       1.85723140
H       -1.90383210      -1.27115832      -0.87271379
H       -1.52719088       1.37382549       0.47777887
H       -1.43299542       1.08525140      -1.25853117
H        2.11249455       0.62402498      -1.74740384
H        3.13543784       0.51944518      -0.27679305
H        1.52828177       1.43422784       1.14070913
H        0.44217671      -1.80536347      -0.64273123
H        0.39736788      -1.45519961       1.09387270
