13
Frame=0 idx=006690 GeodesicLength=0.0 rxn_smarts="[C:1]([c:2]1[c:3]([H:11])[n:4][c:5]([N:6]([H:12])[H:13])[o:7]1)([H:8])([H:9])[H:10]>>[C:1](=[C:2]1[C:3]([H:9])([H:11])[N:4]=[C:5]([N:6]([H:12])[H:13])[O:7]1)([H:8])[H:10]"
C       -2.19934518       0.79373861       0.08879211
C       -1.04907939       0.08944349       0.10164346
C       -0.49487580      -1.04614125      -0.55651980
N        0.83577787      -1.04190156      -0.73598517
C        1.24829280       0.00875013      -0.03200748
N        2.54731706       0.26195825       0.16740172
O        0.36287322       0.74504025       0.55605268
H       -2.78472389       0.80801828      -0.81835495
H       -0.85519907      -0.90245959       0.86910567
H       -2.54254799       1.34133422       0.95266118
H       -1.11740501      -1.86897822      -0.88308982
H        2.82830271       1.12428340       0.59324481
H        3.22061266      -0.31308603      -0.30294440
13
Frame=1 idx=006690 GeodesicLength=0.10989302029090217 rxn_smarts="[C:1]([c:2]1[c:3]([H:11])[n:4][c:5]([N:6]([H:12])[H:13])[o:7]1)([H:8])([H:9])[H:10]>>[C:1](=[C:2]1[C:3]([H:9])([H:11])[N:4]=[C:5]([N:6]([H:12])[H:13])[O:7]1)([H:8])[H:10]"
C       -2.20761719       0.77125592       0.10731556
C       -1.02787313       0.11645575       0.05818884
C       -0.49087982      -1.04905020      -0.55868174
N        0.84800211      -1.06412328      -0.71001929
C        1.25693894      -0.00006171      -0.03088699
N        2.55428381       0.27694099       0.15354729
O        0.36416577       0.76170853       0.52127121
H       -2.82721342       0.77349642      -0.77728600
H       -0.90727103      -0.89559402       0.85882657
H       -2.50337821       1.35791653       0.96346925
H       -1.11935258      -1.85347502      -0.91709289
H        2.82640738       1.13099632       0.60089332
H        3.23378738      -0.32646623      -0.26954514
13
Frame=2 idx=006690 GeodesicLength=0.21971655033215476 rxn_smarts="[C:1]([c:2]1[c:3]([H:11])[n:4][c:5]([N:6]([H:12])[H:13])[o:7]1)([H:8])([H:9])[H:10]>>[C:1](=[C:2]1[C:3]([H:9])([H:11])[N:4]=[C:5]([N:6]([H:12])[H:13])[O:7]1)([H:8])[H:10]"
C       -2.21021003       0.75066068       0.12533511
C       -1.00852300       0.13923897       0.02017455
C       -0.48838211      -1.05319984      -0.55752087
N        0.85793283      -1.08671924      -0.68024204
C        1.26404358      -0.01068928      -0.02521602
N        2.55953279       0.29714852       0.12931555
O        0.36463981       0.77458084       0.49152630
H       -2.85730655       0.74591275      -0.73978352
H       -0.96184544      -0.89266310       0.84946708
H       -2.46715980       1.37254564       0.96961508
H       -1.11988370      -1.83820990      -0.95119213
H        2.82298600       1.13580521       0.60960841
H        3.24417562      -0.33441125      -0.24108751
13
Frame=3 idx=006690 GeodesicLength=0.3294051225747713 rxn_smarts="[C:1]([c:2]1[c:3]([H:11])[n:4][c:5]([N:6]([H:12])[H:13])[o:7]1)([H:8])([H:9])[H:10]>>[C:1](=[C:2]1[C:3]([H:9])([H:11])[N:4]=[C:5]([N:6]([H:12])[H:13])[O:7]1)([H:8])[H:10]"
C       -2.20925829       0.73121228       0.14323851
C       -0.99087637       0.15889438      -0.01345615
C       -0.48689980      -1.05774625      -0.55371814
N        0.86589687      -1.10660386      -0.65106205
C        1.26985085      -0.01829098      -0.02226105
N        2.56317434       0.31527247       0.10606146
O        0.36440704       0.78767757       0.46113680
H       -2.88085311       0.72008213      -0.70337914
H       -1.01533056      -0.89179474       0.84132944
H       -2.43305920       1.38672740       0.97198207
H       -1.11817668      -1.82357376      -0.98340630
H        2.81927723       1.13594662       0.62038037
H        3.25184767      -0.33780327      -0.21684581
13
Frame=4 idx=006690 GeodesicLength=0.4389873061368624 rxn_smarts="[C:1]([c:2]1[c:3]([H:11])[n:4][c:5]([N:6]([H:12])[H:13])[o:7]1)([H:8])([H:9])[H:10]>>[C:1](=[C:2]1[C:3]([H:9])([H:11])[N:4]=[C:5]([N:6]([H:12])[H:13])[O:7]1)([H:8])[H:10]"
C       -2.20580298       0.71252121       0.16238000
C       -0.97493137       0.17643893      -0.04441422
C       -0.48641702      -1.06159687      -0.54968528
N        0.87207251      -1.12182858      -0.62727730
C        1.27448063      -0.02027578      -0.02836550
N        2.56647010       0.32746014       0.09071274
O        0.36375765       0.80313007       0.42558680
H       -2.90032464       0.69691378      -0.66591238
H       -1.06527161      -0.89261687       0.83342806
H       -2.40136715       1.39603198       0.97616384
H       -1.11474217      -1.80952758      -1.01354949
H        2.81465591       1.13911084       0.62322737
H        3.25742015      -0.34576128      -0.18229465
13
Frame=5 idx=006690 GeodesicLength=0.5485570613152868 rxn_smarts="[C:1]([c:2]1[c:3]([H:11])[n:4][c:5]([N:6]([H:12])[H:13])[o:7]1)([H:8])([H:9])[H:10]>>[C:1](=[C:2]1[C:3]([H:9])([H:11])[N:4]=[C:5]([N:6]([H:12])[H:13])[O:7]1)([H:8])[H:10]"
C       -2.19982478       0.69554828       0.18102980
C       -0.96020868       0.19162733      -0.07225259
C       -0.48684235      -1.06578759      -0.54426758
N        0.87705139      -1.13572583      -0.60379638
C        1.27841456      -0.02129806      -0.03623767
N        2.56947554       0.33673077       0.07935752
O        0.36284454       0.81774140       0.39004714
H       -2.91464380       0.67787881      -0.63026084
H       -1.11591997      -0.89655700       0.82557651
H       -2.37130564       1.40304832       0.98033840
H       -1.10981227      -1.79573248      -1.04268034
H        2.80915137       1.14453692       0.62189351
H        3.26162008      -0.35201088      -0.14874747
13
Frame=6 idx=006690 GeodesicLength=0.6581456511542593 rxn_smarts="[C:1]([c:2]1[c:3]([H:11])[n:4][c:5]([N:6]([H:12])[H:13])[o:7]1)([H:8])([H:9])[H:10]>>[C:1](=[C:2]1[C:3]([H:9])([H:11])[N:4]=[C:5]([N:6]([H:12])[H:13])[O:7]1)([H:8])[H:10]"
C       -2.19176140       0.68029512       0.19878160
C       -0.94635602       0.20477805      -0.09740615
C       -0.48800191      -1.07037690      -0.53742767
N        0.88109248      -1.14916163      -0.57900351
C        1.28184952      -0.02237316      -0.04417587
N        2.57210775       0.34475935       0.06932182
O        0.36178046       0.83110266       0.35526498
H       -2.92419342       0.66370955      -0.59717659
H       -1.16856399      -0.90365082       0.81709584
H       -2.34254086       1.40746821       0.98527020
H       -1.10316906      -1.78214464      -1.07074978
H        2.80299411       1.15180392       0.61715791
H        3.26476232      -0.35620970      -0.11695278
13
Frame=7 idx=006690 GeodesicLength=0.7677521278492456 rxn_smarts="[C:1]([c:2]1[c:3]([H:11])[n:4][c:5]([N:6]([H:12])[H:13])[o:7]1)([H:8])([H:9])[H:10]>>[C:1](=[C:2]1[C:3]([H:9])([H:11])[N:4]=[C:5]([N:6]([H:12])[H:13])[O:7]1)([H:8])[H:10]"
C       -2.18207605       0.66640341       0.21587022
C       -0.93322058       0.21630909      -0.12063834
C       -0.48976428      -1.07519989      -0.52954869
N        0.88435021      -1.16205073      -0.55300749
C        1.28491804      -0.02324340      -0.05289041
N        2.57449713       0.35194203       0.05985677
O        0.36066159       0.84370478       0.32022951
H       -2.93008622       0.65415854      -0.56606516
H       -1.22331925      -0.91358009       0.80726146
H       -2.31440863       1.40907860       0.99191405
H       -1.09472531      -1.76901811      -1.09738714
H        2.79627636       1.16075169       0.60924779
H        3.26689699      -0.35925591      -0.08484258
13
Frame=8 idx=006690 GeodesicLength=0.8773803245513174 rxn_smarts="[C:1]([c:2]1[c:3]([H:11])[n:4][c:5]([N:6]([H:12])[H:13])[o:7]1)([H:8])([H:9])[H:10]>>[C:1](=[C:2]1[C:3]([H:9])([H:11])[N:4]=[C:5]([N:6]([H:12])[H:13])[O:7]1)([H:8])[H:10]"
C       -2.17106405       0.65368457       0.23226071
C       -0.92065995       0.22650214      -0.14248473
C       -0.49201829      -1.08025032      -0.52061453
N        0.88694144      -1.17461138      -0.52499465
C        1.28771393      -0.02413424      -0.06191311
N        2.57666536       0.35864145       0.05058287
O        0.35952431       0.85563421       0.28475571
H       -2.93297347       0.64908381      -0.53675596
H       -1.28087396      -0.92614073       0.79532257
H       -2.28634997       1.40814056       1.00043402
H       -1.08429095      -1.75663366      -1.12229820
H        2.78914783       1.17072891       0.59922518
H        3.26823777      -0.36064531      -0.05351988
13
Frame=9 idx=006690 GeodesicLength=0.9870291935727813 rxn_smarts="[C:1]([c:2]1[c:3]([H:11])[n:4][c:5]([N:6]([H:12])[H:13])[o:7]1)([H:8])([H:9])[H:10]>>[C:1](=[C:2]1[C:3]([H:9])([H:11])[N:4]=[C:5]([N:6]([H:12])[H:13])[O:7]1)([H:8])[H:10]"
C       -2.15891593       0.64196722       0.24788964
C       -0.90855543       0.23558813      -0.16342627
C       -0.49467107      -1.08551494      -0.51048524
N        0.88890446      -1.18699427      -0.49389551
C        1.29026897      -0.02526797      -0.07056054
N        2.57856083       0.36516883       0.04125773
O        0.35836787       0.86692796       0.24876443
H       -2.93325271       0.64852848      -0.50914826
H       -1.34202642      -0.94112186       0.78035971
H       -2.25789366       1.40471128       1.01095936
H       -1.07157185      -1.74528280      -1.14519483
H        2.78172259       1.18119289       0.58799749
H        3.26906233      -0.35990295      -0.02451771
13
Frame=10 idx=006690 GeodesicLength=1.0967082239405797 rxn_smarts="[C:1]([c:2]1[c:3]([H:11])[n:4][c:5]([N:6]([H:12])[H:13])[o:7]1)([H:8])([H:9])[H:10]>>[C:1](=[C:2]1[C:3]([H:9])([H:11])[N:4]=[C:5]([N:6]([H:12])[H:13])[O:7]1)([H:8])[H:10]"
C       -2.14567138       0.63092475       0.26313450
C       -0.89688976       0.24381666      -0.18415429
C       -0.49769027      -1.09088109      -0.49935072
N        0.89020598      -1.19893903      -0.45962083
C        1.29260404      -0.02647443      -0.07929822
N        2.58024139       0.37147156       0.03188622
O        0.35722354       0.87789852       0.21122882
H       -2.93146507       0.65243225      -0.48229204
H       -1.40704923      -0.95831191       0.76127010
H       -2.22827119       1.39843896       1.02419868
H       -1.05643895      -1.73522078      -1.16598868
H        2.77392703       1.19252280       0.57494911
H        3.26927388      -0.35767826       0.00403734
13
Frame=11 idx=006690 GeodesicLength=1.206424629354633 rxn_smarts="[C:1]([c:2]1[c:3]([H:11])[n:4][c:5]([N:6]([H:12])[H:13])[o:7]1)([H:8])([H:9])[H:10]>>[C:1](=[C:2]1[C:3]([H:9])([H:11])[N:4]=[C:5]([N:6]([H:12])[H:13])[O:7]1)([H:8])[H:10]"
C       -2.13128876       0.62031860       0.27811854
C       -0.88564715       0.25135408      -0.20528840
C       -0.50106126      -1.09633617      -0.48705105
N        0.89074476      -1.21032610      -0.42128063
C        1.29467781      -0.02786302      -0.08769272
N        2.58163328       0.37768449       0.02239891
O        0.35606279       0.88861214       0.17159890
H       -2.92781292       0.66102969      -0.45561256
H       -1.47669150      -0.97746464       0.73669282
H       -2.19675817       1.38900302       1.04050293
H       -1.03855838      -1.72683677      -1.18441267
H        2.76574206       1.20461434       0.56028175
H        3.26895745      -0.35378968       0.03174419
13
Frame=12 idx=006690 GeodesicLength=1.3161918295188486 rxn_smarts="[C:1]([c:2]1[c:3]([H:11])[n:4][c:5]([N:6]([H:12])[H:13])[o:7]1)([H:8])([H:9])[H:10]>>[C:1](=[C:2]1[C:3]([H:9])([H:11])[N:4]=[C:5]([N:6]([H:12])[H:13])[O:7]1)([H:8])[H:10]"
C       -2.11554943       0.60980574       0.29317479
C       -0.87489773       0.25834127      -0.22769587
C       -0.50483124      -1.10185533      -0.47349050
N        0.89034133      -1.22077266      -0.37842436
C        1.29640927      -0.02934812      -0.09592279
N        2.58265193       0.38381761       0.01294483
O        0.35485104       0.89924409       0.12856433
H       -2.92249699       0.67455756      -0.42795341
H       -1.55147137      -0.99820205       0.70500590
H       -2.16223233       1.37583000       1.06044121
H       -1.01767918      -1.72066890      -1.20007739
H        2.75694757       1.21761070       0.54390025
H        3.26795714      -0.34835990       0.05953301
13
Frame=13 idx=006690 GeodesicLength=1.4260387415534437 rxn_smarts="[C:1]([c:2]1[c:3]([H:11])[n:4][c:5]([N:6]([H:12])[H:13])[o:7]1)([H:8])([H:9])[H:10]>>[C:1](=[C:2]1[C:3]([H:9])([H:11])[N:4]=[C:5]([N:6]([H:12])[H:13])[O:7]1)([H:8])[H:10]"
C       -2.09807336       0.59896681       0.30862968
C       -0.86475103       0.26485627      -0.25235223
C       -0.50911244      -1.10743773      -0.45840727
N        0.88871234      -1.22978021      -0.33043766
C        1.29765538      -0.03086572      -0.10414219
N        2.58311700       0.38994126       0.00371608
O        0.35352433       0.90980366       0.08070394
H       -2.91545569       0.69344000      -0.39798655
H       -1.63202911      -1.01995021       0.66417885
H       -2.12329062       1.35809460       1.08454719
H       -0.99351229      -1.71738831      -1.21238493
H        2.74718249       1.23164722       0.52582895
H        3.26603299      -0.34132763       0.08810616
13
Frame=14 idx=006690 GeodesicLength=1.5359736086890112 rxn_smarts="[C:1]([c:2]1[c:3]([H:11])[n:4][c:5]([N:6]([H:12])[H:13])[o:7]1)([H:8])([H:9])[H:10]>>[C:1](=[C:2]1[C:3]([H:9])([H:11])[N:4]=[C:5]([N:6]([H:12])[H:13])[O:7]1)([H:8])[H:10]"
C       -2.07838083       0.58721249       0.32474751
C       -0.85534298       0.27091185      -0.28022982
C       -0.51413605      -1.11306887      -0.44134754
N        0.88548155      -1.23664118      -0.27692368
C        1.29822651      -0.03240197      -0.11236821
N        2.58279805       0.39617145      -0.00513630
O        0.35200461       0.91997355       0.02699256
H       -2.90629684       0.71828111      -0.36429402
H       -1.71902811      -1.04176314       0.61167544
H       -2.07835074       1.33462270       1.11319061
H       -0.96590207      -1.71780743      -1.22036295
H        2.73606005       1.24695610       0.50589349
H        3.26286685      -0.33244667       0.11816290
13
Frame=15 idx=006690 GeodesicLength=1.6460681164732536 rxn_smarts="[C:1]([c:2]1[c:3]([H:11])[n:4][c:5]([N:6]([H:12])[H:13])[o:7]1)([H:8])([H:9])[H:10]>>[C:1](=[C:2]1[C:3]([H:9])([H:11])[N:4]=[C:5]([N:6]([H:12])[H:13])[O:7]1)([H:8])[H:10]"
C       -2.05617225       0.57375378       0.34149464
C       -0.84676700       0.27650348      -0.31197882
C       -0.52023457      -1.11865274      -0.42152489
N        0.88027544      -1.24047153      -0.21775236
C        1.29796952      -0.03392648      -0.12062853
N        2.58150641       0.40274017      -0.01362540
O        0.35021694       0.92911283      -0.03240221
H       -2.89427793       0.74953704      -0.32578740
H       -1.81283689      -1.06193066       0.54474152
H       -2.02634619       1.30398478       1.14617526
H       -0.93497820      -1.72280746      -1.22239970
H        2.72331163       1.26350763       0.48434420
H        3.25833308      -0.32135085       0.14934367
13
Frame=16 idx=006690 GeodesicLength=1.7564392576043746 rxn_smarts="[C:1]([c:2]1[c:3]([H:11])[n:4][c:5]([N:6]([H:12])[H:13])[o:7]1)([H:8])([H:9])[H:10]>>[C:1](=[C:2]1[C:3]([H:9])([H:11])[N:4]=[C:5]([N:6]([H:12])[H:13])[O:7]1)([H:8])[H:10]"
C       -2.03153281       0.55747087       0.35822987
C       -0.83881862       0.28165176      -0.34720548
C       -0.52776034      -1.12368731      -0.39794064
N        0.87275570      -1.24013275      -0.15366077
C        1.29672258      -0.03543178      -0.12900734
N        2.57895694       0.40972681      -0.02221947
O        0.34812305       0.93625670      -0.09469108
H       -2.87809779       0.78669804      -0.28254969
H       -1.91211857      -1.07753724       0.46152867
H       -1.96768094       1.26455754       1.18224015
H       -0.90160600      -1.73254085      -1.21642067
H        2.70889342       1.28083213       0.46124310
H        3.25216336      -0.30786390       0.18045334
