15
Frame=0 idx=006397 GeodesicLength=0.0 rxn_smarts="[C:1]([O:2][C:3]([C:4](=[O:5])[O:6][C:7]([H:13])([H:14])[H:15])([H:11])[H:12])([H:8])([H:9])[H:10]>>[C:1]([O:2][O:5][C:4](=[C:3]([H:11])[H:12])[O:6][C:7]([H:13])([H:14])[H:15])([H:8])([H:9])[H:10]"
C       -2.30217159       0.73570611      -0.84859653
O       -1.38535667       0.06507029      -0.07529144
C       -0.08197582      -1.19661669       1.69296730
C        0.62909153      -0.82689035       0.56311651
O        0.16874612      -1.07354066      -0.57259051
O        1.71408634      -0.04680037       0.74257166
C        2.30771856       0.45931382      -0.44419249
H       -2.89900298       0.06220987      -1.47782000
H       -1.84455610       1.52458811      -1.46095985
H       -3.00125890       1.23409595      -0.15682914
H        0.19837505      -0.84136901       2.67502515
H       -0.90785672      -1.87820629       1.57154995
H        2.62452666      -0.35276976      -1.10160863
H        1.60915882       1.09839982      -0.98618767
H        3.17047571       1.03680916      -0.12115436
15
Frame=1 idx=006397 GeodesicLength=0.09460812362554827 rxn_smarts="[C:1]([O:2][C:3]([C:4](=[O:5])[O:6][C:7]([H:13])([H:14])[H:15])([H:11])[H:12])([H:8])([H:9])[H:10]>>[C:1]([O:2][O:5][C:4](=[C:3]([H:11])[H:12])[O:6][C:7]([H:13])([H:14])[H:15])([H:8])([H:9])[H:10]"
C       -2.30704171       0.71781678      -0.83483173
O       -1.45387471      -0.03393723      -0.06080093
C       -0.10873104      -1.14922795       1.68202630
C        0.61726660      -0.80002877       0.55287808
O        0.16394363      -1.05284304      -0.58639938
O        1.72681400      -0.05750777       0.73387497
C        2.32303488       0.45508917      -0.44920969
H       -2.89786787       0.10146827      -1.52493021
H       -1.79126127       1.51692160      -1.38383231
H       -3.01845297       1.20615803      -0.14910807
H        0.16788630      -0.77716696       2.65928737
H       -0.87505048      -1.90056493       1.58128123
H        2.61990732      -0.35308816      -1.12051605
H        1.63421032       1.11658112      -0.97670450
H        3.19921702       1.01032985      -0.12301508
15
Frame=2 idx=006397 GeodesicLength=0.18536436053709618 rxn_smarts="[C:1]([O:2][C:3]([C:4](=[O:5])[O:6][C:7]([H:13])([H:14])[H:15])([H:11])[H:12])([H:8])([H:9])[H:10]>>[C:1]([O:2][O:5][C:4](=[C:3]([H:11])[H:12])[O:6][C:7]([H:13])([H:14])[H:15])([H:8])([H:9])[H:10]"
C       -2.30397249       0.69839795      -0.81761493
O       -1.50879548      -0.13263634      -0.06014768
C       -0.13909202      -1.10326049       1.66693654
C        0.60509129      -0.77808535       0.54031396
O        0.16108027      -1.03958198      -0.60265687
O        1.73439682      -0.06888392       0.72410493
C        2.33369320       0.45171918      -0.45414589
H       -2.88837757       0.14339664      -1.56251783
H       -1.73952176       1.50598005      -1.30190774
H       -3.02354198       1.17230287      -0.13101370
H        0.12837099      -0.70633706       2.63722821
H       -0.84798093      -1.91201537       1.59185517
H        2.61520998      -0.35117229      -1.13803885
H        1.65346968       1.13216171      -0.96865646
H        3.21996999       0.98801442      -0.12373886
15
Frame=3 idx=006397 GeodesicLength=0.2748812157641205 rxn_smarts="[C:1]([O:2][C:3]([C:4](=[O:5])[O:6][C:7]([H:13])([H:14])[H:15])([H:11])[H:12])([H:8])([H:9])[H:10]>>[C:1]([O:2][O:5][C:4](=[C:3]([H:11])[H:12])[O:6][C:7]([H:13])([H:14])[H:15])([H:8])([H:9])[H:10]"
C       -2.29861011       0.67721992      -0.79759294
O       -1.55151325      -0.22343114      -0.06809052
C       -0.17203904      -1.05858411       1.64685248
C        0.59316050      -0.75884829       0.52495401
O        0.15933967      -1.02736140      -0.62238015
O        1.73991578      -0.08179404       0.71420621
C        2.34453425       0.44829317      -0.45740853
H       -2.87807751       0.18089469      -1.58584117
H       -1.69617147       1.48925890      -1.22428611
H       -3.02180604       1.13569153      -0.10520678
H        0.08290876      -0.63301460       2.60873249
H       -0.82763746      -1.91347786       1.60033313
H        2.61259346      -0.34791441      -1.15421925
H        1.67373377       1.14738375      -0.95926829
H        3.23966867       0.96568389      -0.12078458
15
Frame=4 idx=006397 GeodesicLength=0.36376273146332183 rxn_smarts="[C:1]([O:2][C:3]([C:4](=[O:5])[O:6][C:7]([H:13])([H:14])[H:15])([H:11])[H:12])([H:8])([H:9])[H:10]>>[C:1]([O:2][O:5][C:4](=[C:3]([H:11])[H:12])[O:6][C:7]([H:13])([H:14])[H:15])([H:8])([H:9])[H:10]"
C       -2.29210469       0.65531460      -0.77589870
O       -1.58411299      -0.30396775      -0.07932228
C       -0.20558761      -1.01568004       1.62346063
C        0.58209039      -0.74265779       0.50782886
O        0.15750094      -1.01485725      -0.64424610
O        1.74434612      -0.09664841       0.70418548
C        2.35542040       0.44450269      -0.45940958
H       -2.86490705       0.21267036      -1.59950996
H       -1.66027758       1.47007357      -1.15050078
H       -3.01870005       1.09616280      -0.07654649
H        0.03582253      -0.55983920       2.57540134
H       -0.81362631      -1.90653544       1.60785557
H        2.61082170      -0.34346211      -1.17011922
H        1.69451887       1.16244683      -0.94776833
H        3.25879533       0.94247714      -0.11541046
15
Frame=5 idx=006397 GeodesicLength=0.4521435643036093 rxn_smarts="[C:1]([O:2][C:3]([C:4](=[O:5])[O:6][C:7]([H:13])([H:14])[H:15])([H:11])[H:12])([H:8])([H:9])[H:10]>>[C:1]([O:2][O:5][C:4](=[C:3]([H:11])[H:12])[O:6][C:7]([H:13])([H:14])[H:15])([H:8])([H:9])[H:10]"
C       -2.28649605       0.63312784      -0.75346991
O       -1.60898942      -0.37409143      -0.09098367
C       -0.23826342      -0.97463152       1.59753327
C        0.57194533      -0.72806734       0.48950400
O        0.15508250      -0.99957064      -0.66763209
O        1.74819583      -0.11305504       0.69432558
C        2.36719096       0.43993532      -0.45985224
H       -2.85143752       0.23731008      -1.60539384
H       -1.63229360       1.44946997      -1.08230530
H       -3.01678765       1.05561046      -0.04742343
H       -0.01006278      -0.48897090       2.53829544
H       -0.80396201      -1.89318484       1.61398564
H        2.60979559      -0.33840108      -1.18525896
H        1.71746669       1.17759327      -0.93372322
H        3.27861556       0.91692582      -0.10760128
15
Frame=6 idx=006397 GeodesicLength=0.5401418006130172 rxn_smarts="[C:1]([O:2][C:3]([C:4](=[O:5])[O:6][C:7]([H:13])([H:14])[H:15])([H:11])[H:12])([H:8])([H:9])[H:10]>>[C:1]([O:2][O:5][C:4](=[C:3]([H:11])[H:12])[O:6][C:7]([H:13])([H:14])[H:15])([H:8])([H:9])[H:10]"
C       -2.28055834       0.61131283      -0.73104664
O       -1.62794450      -0.43554339      -0.10129581
C       -0.26938118      -0.93590047       1.57076327
C        0.56297367      -0.71657607       0.47090011
O        0.15166330      -0.98336929      -0.69146933
O        1.75158507      -0.13124224       0.68436570
C        2.37821519       0.43521857      -0.45954674
H       -2.83513505       0.25708978      -1.60716482
H       -1.60857068       1.42855255      -1.01774644
H       -3.01624609       1.01472697      -0.02031801
H       -0.05310245      -0.42075634       2.49902314
H       -0.79852235      -1.87513965       1.62049358
H        2.60816146      -0.33172691      -1.20087948
H        1.73949151       1.19264273      -0.91705910
H        3.29737043       0.89071093      -0.09901943
15
Frame=7 idx=006397 GeodesicLength=0.6278604485724613 rxn_smarts="[C:1]([O:2][C:3]([C:4](=[O:5])[O:6][C:7]([H:13])([H:14])[H:15])([H:11])[H:12])([H:8])([H:9])[H:10]>>[C:1]([O:2][O:5][C:4](=[C:3]([H:11])[H:12])[O:6][C:7]([H:13])([H:14])[H:15])([H:8])([H:9])[H:10]"
C       -2.27487597       0.58990096      -0.70905865
O       -1.64242202      -0.48980381      -0.10999289
C       -0.29866390      -0.89933480       1.54348097
C        0.55500892      -0.70749062       0.45222914
O        0.14735959      -0.96567085      -0.71554580
O        1.75464158      -0.15097691       0.67438204
C        2.38872981       0.43039019      -0.45833254
H       -2.81827547       0.27220170      -1.60532587
H       -1.58855536       1.40701783      -0.95803621
H       -3.01642183       0.97500424       0.00480984
H       -0.09281876      -0.35547537       2.45808717
H       -0.79610009      -1.85370094       1.62716427
H        2.60596301      -0.32337780      -1.21667128
H        1.76105413       1.20770746      -0.89756625
H        3.31537635       0.86360870      -0.08962395
15
Frame=8 idx=006397 GeodesicLength=0.7153057945318033 rxn_smarts="[C:1]([O:2][C:3]([C:4](=[O:5])[O:6][C:7]([H:13])([H:14])[H:15])([H:11])[H:12])([H:8])([H:9])[H:10]>>[C:1]([O:2][O:5][C:4](=[C:3]([H:11])[H:12])[O:6][C:7]([H:13])([H:14])[H:15])([H:8])([H:9])[H:10]"
C       -2.26992072       0.56890595      -0.68763152
O       -1.65358284      -0.53811014      -0.11688839
C       -0.32598694      -0.86460161       1.51604495
C        0.54788074      -0.70019282       0.43359920
O        0.14214867      -0.94603890      -0.73971729
O        1.75750897      -0.17199748       0.66430549
C        2.39903536       0.42530794      -0.45632574
H       -2.80105614       0.28325029      -1.60124916
H       -1.57208356       1.38548844      -0.90218672
H       -3.01818184       0.93617306       0.02772867
H       -0.12899968      -0.29284785       2.41596132
H       -0.79579733      -1.82963262       1.63403269
H        2.60333125      -0.31362241      -1.23253828
H        1.78264726       1.22262314      -0.87543828
H        3.33305680       0.83529502      -0.07969696
15
Frame=9 idx=006397 GeodesicLength=0.8025859570522904 rxn_smarts="[C:1]([O:2][C:3]([C:4](=[O:5])[O:6][C:7]([H:13])([H:14])[H:15])([H:11])[H:12])([H:8])([H:9])[H:10]>>[C:1]([O:2][O:5][C:4](=[C:3]([H:11])[H:12])[O:6][C:7]([H:13])([H:14])[H:15])([H:8])([H:9])[H:10]"
C       -2.26592289       0.54825738      -0.66684902
O       -1.66201334      -0.58157892      -0.12227347
C       -0.35141233      -0.83149861       1.48853369
C        0.54134633      -0.69402777       0.41503904
O        0.13617444      -0.92406220      -0.76388829
O        1.75998495      -0.19386300       0.65415990
C        2.40928962       0.41991013      -0.45349384
H       -2.78468152       0.29052470      -1.59523244
H       -1.55889215       1.36399737      -0.85047487
H       -3.02097017       0.89855862       0.04901862
H       -0.16189272      -0.23280623       2.37283473
H       -0.79673436      -1.80357777       1.64088027
H        2.60044461      -0.30266645      -1.24804941
H        1.80477625       1.23722528      -0.85094782
H        3.35050328       0.80560747      -0.06925711
15
Frame=10 idx=006397 GeodesicLength=0.889672515298178 rxn_smarts="[C:1]([O:2][C:3]([C:4](=[O:5])[O:6][C:7]([H:13])([H:14])[H:15])([H:11])[H:12])([H:8])([H:9])[H:10]>>[C:1]([O:2][O:5][C:4](=[C:3]([H:11])[H:12])[O:6][C:7]([H:13])([H:14])[H:15])([H:8])([H:9])[H:10]"
C       -2.26242231       0.52804512      -0.64687268
O       -1.66814543      -0.62105233      -0.12624998
C       -0.37506017      -0.80002455       1.46124817
C        0.53540779      -0.68940232       0.39669009
O        0.12955170      -0.90049675      -0.78780855
O        1.76212125      -0.21659335       0.64386864
C        2.41908790       0.41445086      -0.44996567
H       -2.76925354       0.29474216      -1.58766697
H       -1.54780694       1.34243380      -0.80304129
H       -3.02388638       0.86262074       0.06885358
H       -0.19153331      -0.17521554       2.32905987
H       -0.79895933      -1.77598065       1.64792294
H        2.59714234      -0.29015996      -1.26333146
H        1.82653453       1.25139146      -0.82408339
H        3.36722191       0.77524130      -0.05862330
15
Frame=11 idx=006397 GeodesicLength=0.9766337997010375 rxn_smarts="[C:1]([O:2][C:3]([C:4](=[O:5])[O:6][C:7]([H:13])([H:14])[H:15])([H:11])[H:12])([H:8])([H:9])[H:10]>>[C:1]([O:2][O:5][C:4](=[C:3]([H:11])[H:12])[O:6][C:7]([H:13])([H:14])[H:15])([H:8])([H:9])[H:10]"
C       -2.25941388       0.50822403      -0.62773061
O       -1.67227130      -0.65719464      -0.12905759
C       -0.39705110      -0.76999895       1.43424160
C        0.52992246      -0.68603641       0.37855193
O        0.12239078      -0.87533726      -0.81136189
O        1.76386599      -0.24004174       0.63339040
C        2.42845051       0.40892036      -0.44576115
H       -2.75521175       0.29617091      -1.57881446
H       -1.53852581       1.32089155      -0.75985938
H       -3.02660019       0.82834597       0.08762675
H       -0.21815446      -0.11989299       2.28473678
H       -0.80208939      -1.74711316       1.65509662
H        2.59344363      -0.27611519      -1.27823717
H        1.84802295       1.26501053      -0.79492285
H        3.38322157       0.74416698      -0.04789899
15
Frame=12 idx=006397 GeodesicLength=1.0635010020734992 rxn_smarts="[C:1]([O:2][C:3]([C:4](=[O:5])[O:6][C:7]([H:13])([H:14])[H:15])([H:11])[H:12])([H:8])([H:9])[H:10]>>[C:1]([O:2][O:5][C:4](=[C:3]([H:11])[H:12])[O:6][C:7]([H:13])([H:14])[H:15])([H:8])([H:9])[H:10]"
C       -2.25678841       0.48880225      -0.60941446
O       -1.67462048      -0.69049529      -0.13083081
C       -0.41750475      -0.74131816       1.40761031
C        0.52477957      -0.68375902       0.36065541
O        0.11476544      -0.84875641      -0.83438330
O        1.76516050      -0.26399654       0.62268810
C        2.43731996       0.40333341      -0.44097475
H       -2.74250890       0.29516151      -1.56902562
H       -1.53069957       1.29954345      -0.72059417
H       -3.02898775       0.79562126       0.10551270
H       -0.24196540      -0.06674149       2.24002872
H       -0.80588097      -1.71721985       1.66236670
H        2.58935881      -0.26061044      -1.29264707
H        1.86915614       1.27791081      -0.76370515
H        3.39841580       0.71252452      -0.03728661
15
Frame=13 idx=006397 GeodesicLength=1.150296999217523 rxn_smarts="[C:1]([O:2][C:3]([C:4](=[O:5])[O:6][C:7]([H:13])([H:14])[H:15])([H:11])[H:12])([H:8])([H:9])[H:10]>>[C:1]([O:2][O:5][C:4](=[C:3]([H:11])[H:12])[O:6][C:7]([H:13])([H:14])[H:15])([H:8])([H:9])[H:10]"
C       -2.25434448       0.46983168      -0.59190812
O       -1.67536905      -0.72132501      -0.13165341
C       -0.43654926      -0.71396334       1.38146675
C        0.51988002      -0.68245390       0.34305806
O        0.10674315      -0.82108377      -0.85667493
O        1.76592390      -0.28818356       0.61175007
C        2.44556847       0.39774246      -0.43573275
H       -2.73091294       0.29208457      -1.55859891
H       -1.52390340       1.27853300      -0.68489690
H       -3.03089051       0.76442278       0.12258924
H       -0.26319470      -0.01578427       2.19514718
H       -0.81016711      -1.68657315       1.66969713
H        2.58487027      -0.24376012      -1.30643488
H        1.88971419       1.28991358      -0.73078848
H        3.41263144       0.68059906      -0.02702004
15
Frame=14 idx=006397 GeodesicLength=1.237039289360455 rxn_smarts="[C:1]([O:2][C:3]([C:4](=[O:5])[O:6][C:7]([H:13])([H:14])[H:15])([H:11])[H:12])([H:8])([H:9])[H:10]>>[C:1]([O:2][O:5][C:4](=[C:3]([H:11])[H:12])[O:6][C:7]([H:13])([H:14])[H:15])([H:8])([H:9])[H:10]"
C       -2.25182507       0.45139710      -0.57519463
O       -1.67467785      -0.74996339      -0.13155201
C       -0.45431450      -0.68796926       1.35594378
C        0.51513493      -0.68204163       0.32585008
O        0.09837750      -0.79278443      -0.87801638
O        1.76608752      -0.31232637       0.60058850
C        2.45302357       0.39222862      -0.43018406
H       -2.72002454       0.28731728      -1.54781867
H       -1.51766971       1.25798341      -0.65239419
H       -3.03216459       0.73479959       0.13882942
H       -0.28207672       0.03288332       2.15034059
H       -0.81482608      -1.65546705       1.67705274
H        2.57991150      -0.22568716      -1.31951016
H        1.90938090       1.30087546      -0.69657782
H        3.42566314       0.64875449      -0.01735719
15
Frame=15 idx=006397 GeodesicLength=1.3237406797482079 rxn_smarts="[C:1]([O:2][C:3]([C:4](=[O:5])[O:6][C:7]([H:13])([H:14])[H:15])([H:11])[H:12])([H:8])([H:9])[H:10]>>[C:1]([O:2][O:5][C:4](=[C:3]([H:11])[H:12])[O:6][C:7]([H:13])([H:14])[H:15])([H:8])([H:9])[H:10]"
C       -2.24893121       0.43362007      -0.55925748
O       -1.67271130      -0.77662742      -0.13052425
C       -0.47094096      -0.66343749       1.33118297
C        0.51046602      -0.68246632       0.30914399
O        0.08972132      -0.76445409      -0.89819651
O        1.76558531      -0.33610366       0.58925578
C        2.45948716       0.38690491      -0.42449044
H       -2.70939460       0.28124940      -1.53691530
H       -1.51147529       1.23798055      -0.62276385
H       -3.03261502       0.70692255       0.15417437
H       -0.29888463       0.07907999       2.10590280
H       -0.81977066      -1.62425513       1.68438625
H        2.57441014      -0.20656449      -1.33178048
H        1.92777287       1.31068659      -0.66157825
H        3.43728082       0.61746452      -0.00853958
15
Frame=16 idx=006397 GeodesicLength=1.4104156487022748 rxn_smarts="[C:1]([O:2][C:3]([C:4](=[O:5])[O:6][C:7]([H:13])([H:14])[H:15])([H:11])[H:12])([H:8])([H:9])[H:10]>>[C:1]([O:2][O:5][C:4](=[C:3]([H:11])[H:12])[O:6][C:7]([H:13])([H:14])[H:15])([H:8])([H:9])[H:10]"
C       -2.24535295       0.41664476      -0.54408159
O       -1.66965246      -0.80148977      -0.12854210
C       -0.48656983      -0.64050048       1.30732731
C        0.50581247      -0.68371112       0.29306671
O        0.08082150      -0.73677981      -0.91703667
O        1.76438069      -0.35922122       0.57782951
C        2.46475537       0.38190498      -0.41881267
H       -2.69854176       0.27427062      -1.52608803
H       -1.50477575       1.21858018      -0.59571565
H       -3.03203944       0.68104323       0.16853548
H       -0.31389895       0.12259948       2.06214046
H       -0.82494750      -1.59331335       1.69165463
H        2.56827862      -0.18657853      -1.34318447
H        1.94446631       1.31929305      -0.62631772
H        3.44726366       0.58725799      -0.00077521
