15
Frame=0 idx=002588 GeodesicLength=0.0 rxn_smarts="[C:1]([C@@:2]([O:3][H:11])([C@@:4]1([H:12])[C:5]([H:13])([H:14])[N:6]1[H:15])[H:10])([H:7])([H:8])[H:9]>>[C:1]([C:2](=[O:3])[H:10])([C@@:4]1([H:12])[C:5]([H:13])([H:14])[N:6]1[H:15])([H:8])[H:9].[H:7][H:11]"
C       -1.44155516      -0.26834895      -0.10129758
C       -0.52481339       0.84108268      -0.04855572
O       -0.28740654       1.31891880       1.12785781
C        0.58757517      -0.24753625      -0.64024994
C        1.93289327      -0.06929764      -0.04159715
N        1.14729932      -1.25417897       0.23558986
H       -2.46758825       0.66041814       1.15785300
H       -1.96243314      -0.54633046      -1.01504945
H       -1.33932115      -1.02398079       0.66622900
H       -0.62633247       1.54093572      -0.89732507
H       -1.79508353       1.06531049       1.46677984
H        0.52394757      -0.43532808      -1.70555959
H        2.00168329       0.62494770       0.78643503
H        2.78995076      -0.14541398      -0.70276034
H        1.46118427      -2.06119842      -0.28834966
15
Frame=1 idx=002588 GeodesicLength=0.08914475812330885 rxn_smarts="[C:1]([C@@:2]([O:3][H:11])([C@@:4]1([H:12])[C:5]([H:13])([H:14])[N:6]1[H:15])[H:10])([H:7])([H:8])[H:9]>>[C:1]([C:2](=[O:3])[H:10])([C@@:4]1([H:12])[C:5]([H:13])([H:14])[N:6]1[H:15])([H:8])[H:9].[H:7][H:11]"
C       -1.43715248      -0.26299432      -0.10879668
C       -0.53284299       0.86103140      -0.06420932
O       -0.30000121       1.35587730       1.10674050
C        0.58374876      -0.25135978      -0.63771393
C        1.92808498      -0.07285662      -0.03719503
N        1.14298172      -1.25905158       0.23845243
H       -2.45619232       0.62588937       1.18591808
H       -1.95388830      -0.54250662      -1.02476991
H       -1.34283055      -1.02314532       0.65511640
H       -0.63213894       1.55023622      -0.92130731
H       -1.77730437       1.05911759       1.49453908
H        0.52730532      -0.44033683      -1.70353081
H        2.00180921       0.61321844       0.79728085
H        2.78769307      -0.14861673      -0.69491964
H        1.46072810      -2.06450251      -0.28560471
15
Frame=2 idx=002588 GeodesicLength=0.17814108436527615 rxn_smarts="[C:1]([C@@:2]([O:3][H:11])([C@@:4]1([H:12])[C:5]([H:13])([H:14])[N:6]1[H:15])[H:10])([H:7])([H:8])[H:9]>>[C:1]([C:2](=[O:3])[H:10])([C@@:4]1([H:12])[C:5]([H:13])([H:14])[N:6]1[H:15])([H:8])[H:9].[H:7][H:11]"
C       -1.43306099      -0.25766201      -0.11628166
C       -0.54137389       0.88081107      -0.08053353
O       -0.31340824       1.39290601       1.08472230
C        0.57964520      -0.25515331      -0.63508357
C        1.92273396      -0.07626146      -0.03210907
N        1.13836158      -1.26414467       0.24115835
H       -2.44245375       0.59185838       1.21366201
H       -1.94570789      -0.53886008      -1.03438818
H       -1.34666333      -1.02266025       0.64361050
H       -0.63836257       1.55917984      -0.94591408
H       -1.75672756       1.05260486       1.52292952
H        0.53064868      -0.44510853      -1.70141395
H        2.00081606       0.60130127       0.80902458
H        2.78513628      -0.15112255      -0.68613799
H        1.46041646      -2.06768857      -0.28324522
15
Frame=3 idx=002588 GeodesicLength=0.2670498301215284 rxn_smarts="[C:1]([C@@:2]([O:3][H:11])([C@@:4]1([H:12])[C:5]([H:13])([H:14])[N:6]1[H:15])[H:10])([H:7])([H:8])[H:9]>>[C:1]([C:2](=[O:3])[H:10])([C@@:4]1([H:12])[C:5]([H:13])([H:14])[N:6]1[H:15])([H:8])[H:9].[H:7][H:11]"
C       -1.42931670      -0.25236254      -0.12380157
C       -0.55043683       0.90039800      -0.09754677
O       -0.32771506       1.42996091       1.06174637
C        0.57524142      -0.25891977      -0.63235402
C        1.91679066      -0.07949015      -0.02629159
N        1.13340245      -1.26944993       0.24372976
H       -2.42629723       0.55838278       1.24110913
H       -1.93790446      -0.53537202      -1.04397585
H       -1.35090201      -1.02255849       0.63162444
H       -0.64502663       1.56775620      -0.97114785
H       -1.73291568       1.04569711       1.55197592
H        0.53398821      -0.44963784      -1.69920232
H        1.99859949       0.58923575       0.82169889
H        2.78224721      -0.15289830      -0.67633649
H        1.46024517      -2.07074170      -0.28122807
15
Frame=4 idx=002588 GeodesicLength=0.3559533615739676 rxn_smarts="[C:1]([C@@:2]([O:3][H:11])([C@@:4]1([H:12])[C:5]([H:13])([H:14])[N:6]1[H:15])[H:10])([H:7])([H:8])[H:9]>>[C:1]([C:2](=[O:3])[H:10])([C@@:4]1([H:12])[C:5]([H:13])([H:14])[N:6]1[H:15])([H:8])[H:9].[H:7][H:11]"
C       -1.42596353      -0.24710544      -0.13141530
C       -0.56006788       0.91977114      -0.11526319
O       -0.34304910       1.46697701       1.03774392
C        0.57050762      -0.26266141      -0.62952104
C        1.91018545      -0.08252319      -0.01967507
N        1.12805441      -1.27496582       0.24618584
H       -2.40758123       0.52545517       1.26836480
H       -1.93049652      -0.53201666      -1.05361693
H       -1.35563014      -1.02287427       0.61905181
H       -0.65215706       1.57595185      -0.99700967
H       -1.70534834       1.03838758       1.58160671
H        0.53733708      -0.45390740      -1.69688708
H        1.99501918       0.57705429       0.83535418
H        2.77898067      -0.15390064      -0.66540592
H        1.46020942      -2.07364220      -0.27951303
15
Frame=5 idx=002588 GeodesicLength=0.4449842693333923 rxn_smarts="[C:1]([C@@:2]([O:3][H:11])([C@@:4]1([H:12])[C:5]([H:13])([H:14])[N:6]1[H:15])[H:10])([H:7])([H:8])[H:9]>>[C:1]([C:2](=[O:3])[H:10])([C@@:4]1([H:12])[C:5]([H:13])([H:14])[N:6]1[H:15])([H:8])[H:9].[H:7][H:11]"
C       -1.42297294      -0.24193965      -0.13908646
C       -0.57025881       0.93888694      -0.13360501
O       -0.35940435       1.50385314       1.01290173
C        0.56545577      -0.26638025      -0.62658191
C        1.90294948      -0.08537290      -0.01230794
N        1.12235923      -1.28070156       0.24849766
H       -2.38660006       0.49320897       1.29515812
H       -1.92342554      -0.52885884      -1.06328550
H       -1.36083741      -1.02358480       0.60599721
H       -0.65975177       1.58380459      -1.02335229
H       -1.67400518       1.03076586       1.61174349
H        0.54068327      -0.45788692      -1.69446418
H        1.99014246       0.56474477       0.84994049
H        2.77533575      -0.15414696      -0.65342153
H        1.46033010      -2.07639238      -0.27813388
15
Frame=6 idx=002588 GeodesicLength=0.5341280994852533 rxn_smarts="[C:1]([C@@:2]([O:3][H:11])([C@@:4]1([H:12])[C:5]([H:13])([H:14])[N:6]1[H:15])[H:10])([H:7])([H:8])[H:9]>>[C:1]([C:2](=[O:3])[H:10])([C@@:4]1([H:12])[C:5]([H:13])([H:14])[N:6]1[H:15])([H:8])[H:9].[H:7][H:11]"
C       -1.42046606      -0.23684674      -0.14692004
C       -0.58109221       0.95772743      -0.15265506
O       -0.37716053       1.54030447       0.98705182
C        0.55999410      -0.27008127      -0.62353961
C        1.89484086      -0.08799247      -0.00396817
N        1.11616965      -1.28667863       0.25067600
H       -2.36248150       0.46133353       1.32202941
H       -1.91680271      -0.52579038      -1.07312015
H       -1.36670603      -1.02474883       0.59219939
H       -0.66786097       1.59127692      -1.05026805
H       -1.63771934       1.02309465       1.64183532
H        0.54405678      -0.46152776      -1.69193438
H        1.98345701       0.55233797       0.86566480
H        2.77115560      -0.15347448      -0.64000125
H        1.46061535      -2.07893440      -0.27705002
15
Frame=7 idx=002588 GeodesicLength=0.6234887488861456 rxn_smarts="[C:1]([C@@:2]([O:3][H:11])([C@@:4]1([H:12])[C:5]([H:13])([H:14])[N:6]1[H:15])[H:10])([H:7])([H:8])[H:9]>>[C:1]([C:2](=[O:3])[H:10])([C@@:4]1([H:12])[C:5]([H:13])([H:14])[N:6]1[H:15])([H:8])[H:9].[H:7][H:11]"
C       -1.41841181      -0.23188920      -0.15487193
C       -0.59255276       0.97624450      -0.17229129
O       -0.39636542       1.57615606       0.96045404
C        0.55413187      -0.27377013      -0.62039174
C        1.88587418      -0.09041555       0.00530556
N        1.10953006      -1.29293544       0.25266110
H       -2.33537904       0.42981522       1.34880987
H       -1.91056984      -0.52288313      -1.08308831
H       -1.37318260      -1.02632906       0.57779074
H       -0.67648111       1.59841562      -1.07756846
H       -1.59657753       1.01575755       1.67153370
H        0.54744521      -0.46476576      -1.68929202
H        1.97501315       0.53976489       0.88249874
H        2.76642625      -0.15189206      -0.62520359
H        1.46109938      -2.08127351      -0.27634640
15
Frame=8 idx=002588 GeodesicLength=0.7132825493945362 rxn_smarts="[C:1]([C@@:2]([O:3][H:11])([C@@:4]1([H:12])[C:5]([H:13])([H:14])[N:6]1[H:15])[H:10])([H:7])([H:8])[H:9]>>[C:1]([C:2](=[O:3])[H:10])([C@@:4]1([H:12])[C:5]([H:13])([H:14])[N:6]1[H:15])([H:8])[H:9].[H:7][H:11]"
C       -1.41680887      -0.22712389      -0.16290137
C       -0.60464777       0.99438302      -0.19241526
O       -0.41720984       1.61108297       0.93338867
C        0.54785421      -0.27745422      -0.61714105
C        1.87597619      -0.09267282       0.01554674
N        1.10246192      -1.29952722       0.25437334
H       -2.30511024       0.39853336       1.37544909
H       -1.90471051      -0.52018198      -1.09316043
H       -1.38024334      -1.02830063       0.56286319
H       -0.68562846       1.60525614      -1.10509464
H       -1.55036130       1.00932927       1.70023144
H        0.55084155      -0.46750787      -1.68653917
H        1.96468321       0.52691909       0.90047902
H        2.76106303      -0.14934696      -0.60895828
H        1.46184022      -2.08338824      -0.27612130
15
Frame=9 idx=002588 GeodesicLength=0.8031926517149961 rxn_smarts="[C:1]([C@@:2]([O:3][H:11])([C@@:4]1([H:12])[C:5]([H:13])([H:14])[N:6]1[H:15])[H:10])([H:7])([H:8])[H:9]>>[C:1]([C:2](=[O:3])[H:10])([C@@:4]1([H:12])[C:5]([H:13])([H:14])[N:6]1[H:15])([H:8])[H:9].[H:7][H:11]"
C       -1.41543358      -0.22253553      -0.17061323
C       -0.61719866       1.01215591      -0.21270719
O       -0.43923551       1.64516164       0.90652976
C        0.54127475      -0.28110584      -0.61378348
C        1.86539494      -0.09487811       0.02644336
N        1.09523946      -1.30643448       0.25566261
H       -2.27340641       0.36792117       1.40069695
H       -1.89905629      -0.51790722      -1.10283883
H       -1.38756690      -1.03020930       0.54834949
H       -0.69524772       1.61191980      -1.13248791
H       -1.50004021       1.00331540       1.72742164
H        0.55414674      -0.46969207      -1.68365008
H        1.95304375       0.51361359       0.91926791
H        2.75514578      -0.14605139      -0.59173248
H        1.46293987      -2.08527358      -0.27655851
15
Frame=10 idx=002588 GeodesicLength=0.8938168809042577 rxn_smarts="[C:1]([C@@:2]([O:3][H:11])([C@@:4]1([H:12])[C:5]([H:13])([H:14])[N:6]1[H:15])[H:10])([H:7])([H:8])[H:9]>>[C:1]([C:2](=[O:3])[H:10])([C@@:4]1([H:12])[C:5]([H:13])([H:14])[N:6]1[H:15])([H:8])[H:9].[H:7][H:11]"
C       -1.41446671      -0.21825944      -0.17826551
C       -0.63039469       1.02944652      -0.23320345
O       -0.46320867       1.67781053       0.87977355
C        0.53430229      -0.28477716      -0.61033186
C        1.85390251      -0.09704760       0.03831157
N        1.08770404      -1.31379903       0.25649004
H       -2.23846733       0.33728816       1.42563063
H       -1.89372583      -0.51592891      -1.11248646
H       -1.39536127      -1.03247364       0.53360287
H       -0.70544952       1.61838747      -1.15968354
H       -1.44482902       0.99953498       1.75236022
H        0.55744200      -0.47118387      -1.68068334
H        1.93957378       0.49969739       0.93928201
H        2.74856389      -0.14179470      -0.57303781
H        1.46441454      -2.08690069      -0.27775893
15
Frame=11 idx=002588 GeodesicLength=0.9850713154023365 rxn_smarts="[C:1]([C@@:2]([O:3][H:11])([C@@:4]1([H:12])[C:5]([H:13])([H:14])[N:6]1[H:15])[H:10])([H:7])([H:8])[H:9]>>[C:1]([C:2](=[O:3])[H:10])([C@@:4]1([H:12])[C:5]([H:13])([H:14])[N:6]1[H:15])([H:8])[H:9].[H:7][H:11]"
C       -1.41383231      -0.21432798      -0.18579809
C       -0.64418220       1.04623664      -0.25375670
O       -0.48896401       1.70899923       0.85328737
C        0.52698517      -0.28847797      -0.60678291
C        1.84158170      -0.09923200       0.05106017
N        1.07993634      -1.32164683       0.25679944
H       -2.20076018       0.30668781       1.44993631
H       -1.88863882      -0.51429743      -1.12203594
H       -1.40353151      -1.03502476       0.51881896
H       -0.71621987       1.62471447      -1.18651557
H       -1.38520409       0.99818031       1.77500007
H        0.56073250      -0.47195274      -1.67762939
H        1.92445057       0.48509963       0.96041750
H        2.74135525      -0.13665780      -0.55301574
H        1.46629146      -2.08830057      -0.27978547
15
Frame=12 idx=002588 GeodesicLength=1.076874736106605 rxn_smarts="[C:1]([C@@:2]([O:3][H:11])([C@@:4]1([H:12])[C:5]([H:13])([H:14])[N:6]1[H:15])[H:10])([H:7])([H:8])[H:9]>>[C:1]([C:2](=[O:3])[H:10])([C@@:4]1([H:12])[C:5]([H:13])([H:14])[N:6]1[H:15])([H:8])[H:9].[H:7][H:11]"
C       -1.41346837      -0.21077534      -0.19314364
C       -0.65852353       1.06250888      -0.27423362
O       -0.51643865       1.73865158       0.82727470
C        0.51936579      -0.29222204      -0.60313996
C        1.82848613      -0.10150115       0.06462437
N        1.07202083      -1.33001172       0.25652031
H       -2.16059656       0.27612475       1.47335220
H       -1.88373939      -0.51305024      -1.13141351
H       -1.41197635      -1.03779223       0.50418938
H       -0.72756488       1.63094905      -1.21282622
H       -1.32153625       0.99956831       1.79513458
H        0.56402092      -0.47195285      -1.67448478
H        1.90779486       0.46968438       0.98261335
H        2.73352705      -0.13070770      -0.53174641
H        1.46862840      -2.08947369      -0.28272073
15
Frame=13 idx=002588 GeodesicLength=1.1691898257806006 rxn_smarts="[C:1]([C@@:2]([O:3][H:11])([C@@:4]1([H:12])[C:5]([H:13])([H:14])[N:6]1[H:15])[H:10])([H:7])([H:8])[H:9]>>[C:1]([C:2](=[O:3])[H:10])([C@@:4]1([H:12])[C:5]([H:13])([H:14])[N:6]1[H:15])([H:8])[H:9].[H:7][H:11]"
C       -1.41331837      -0.20762947      -0.20025331
C       -0.67338578       1.07824901      -0.29452935
O       -0.54556727       1.76672213       0.80190710
C        0.51148659      -0.29602686      -0.59941032
C        1.81466291      -0.10392024       0.07894717
N        1.06403970      -1.33891563       0.25558889
H       -2.11832853       0.24561145       1.49564651
H       -1.87897801      -0.51222373      -1.14056380
H       -1.42060906      -1.04072654       0.48986038
H       -0.73948767       1.63714626      -1.23849085
H       -1.25410966       1.00397288       1.81265649
H        0.56732228      -0.47115421      -1.67124429
H        1.88970716       0.45333359       1.00579359
H        2.72508619      -0.12401626      -0.50928497
H        1.47147953      -2.09042239      -0.28662325
15
Frame=14 idx=002588 GeodesicLength=1.261944640448392 rxn_smarts="[C:1]([C@@:2]([O:3][H:11])([C@@:4]1([H:12])[C:5]([H:13])([H:14])[N:6]1[H:15])[H:10])([H:7])([H:8])[H:9]>>[C:1]([C:2](=[O:3])[H:10])([C@@:4]1([H:12])[C:5]([H:13])([H:14])[N:6]1[H:15])([H:8])[H:9].[H:7][H:11]"
C       -1.41333464      -0.20491984      -0.20708470
C       -0.68874674       1.09343971      -0.31453121
O       -0.57636087       1.79313108       0.77737466
C        0.50338804      -0.29990905      -0.59559839
C        1.80017129      -0.10656273       0.09399215
N        1.05606360      -1.34839954       0.25393459
H       -2.07421602       0.21511775       1.51667358
H       -1.87431417      -0.51184506      -1.14943796
H       -1.42934067      -1.04379926       0.47597033
H       -0.75199436       1.64335660      -1.26338355
H       -1.18323080       1.01180225       1.82732297
H        0.57064951      -0.46950833      -1.66790906
H        1.87032254       0.43589094       1.02993920
H        2.71606029      -0.11664662      -0.48568673
H        1.47488301      -2.09114790      -0.29157590
15
Frame=15 idx=002588 GeodesicLength=1.3551227740278322 rxn_smarts="[C:1]([C@@:2]([O:3][H:11])([C@@:4]1([H:12])[C:5]([H:13])([H:14])[N:6]1[H:15])[H:10])([H:7])([H:8])[H:9]>>[C:1]([C:2](=[O:3])[H:10])([C@@:4]1([H:12])[C:5]([H:13])([H:14])[N:6]1[H:15])([H:8])[H:9].[H:7][H:11]"
C       -1.41347295      -0.20267419      -0.21360815
C       -0.70459094       1.10806983      -0.33414955
O       -0.60883460       1.81781991       0.75385507
C        0.49510913      -0.30388769      -0.59170869
C        1.78505415      -0.10950661       0.10973057
N        1.04815921      -1.35849680       0.25148428
H       -2.02852978       0.18461885       1.53630117
H       -1.86970795      -0.51194568      -1.15800068
H       -1.43809091      -1.04699148       0.46262605
H       -0.76509854       1.64963607      -1.28740338
H       -1.10911247       1.02344848       1.83894532
H        0.57402645      -0.46697275      -1.66447142
H        1.84973831       0.41719966       1.05502076
H        2.70646593      -0.10867022      -0.46096936
H        1.47888496      -2.09164740      -0.29765200
15
Frame=16 idx=002588 GeodesicLength=1.448635835863113 rxn_smarts="[C:1]([C@@:2]([O:3][H:11])([C@@:4]1([H:12])[C:5]([H:13])([H:14])[N:6]1[H:15])[H:10])([H:7])([H:8])[H:9]>>[C:1]([C:2](=[O:3])[H:10])([C@@:4]1([H:12])[C:5]([H:13])([H:14])[N:6]1[H:15])([H:8])[H:9].[H:7][H:11]"
C       -1.41369991      -0.20091379      -0.21980555
C       -0.72091349       1.12212623      -0.35330793
O       -0.64305913       1.84068976       0.73152144
C        0.48668440      -0.30798290      -0.58774541
C        1.76935899      -0.11283026       0.12615997
N        1.04037019      -1.36925620       0.24816693
H       -1.98140253       0.15406428       1.55446354
H       -1.86512772      -0.51253986      -1.16622982
H       -1.44679905      -1.05030657       0.44991006
H       -0.77881395       1.65604606      -1.31045133
H       -1.03198130       1.03938994       1.84726449
H        0.57747813      -0.46350242      -1.66093177
H        1.82806075       0.39709284       1.08106204
H        2.69633516      -0.10014999      -0.43513151
H        1.48350945      -2.09192713      -0.30494513
