15
Frame=0 idx=009898 GeodesicLength=0.0 rxn_smarts="[C:1]([C@@:2]1([H:11])[C@:3]([C:4]#[N:5])([H:12])[N:6]1[C:7]([H:13])([H:14])[H:15])([H:8])([H:9])[H:10]>>[C:1](=[C:2]([N:6]([C:3](=[C:4]=[N:5][H:10])[H:12])[C:7]([H:13])([H:14])[H:15])[H:11])([H:8])[H:9]"
C       -1.82015357       0.15910500      -0.16179867
C       -0.56622903      -0.35914301      -0.41158785
C        0.95272147       0.82291000      -0.18810816
C        0.28963933       1.96763616       0.08603864
N       -0.74620850       2.53374771       0.27522629
N        0.48635129      -0.31701297       0.54570811
C        1.39032553      -1.44661697       0.58412447
H       -2.58214277       0.02142284      -0.91962287
H       -2.15442955       0.21818369       0.86878471
H       -1.50202586       1.68635675      -0.14295374
H       -0.32180499      -0.78775392      -1.38555733
H        1.69978111       0.72858625      -0.96769703
H        1.75698520      -1.72938711      -0.41488660
H        0.87306539      -2.30179327       1.01886289
H        2.24412501      -1.19624110       1.21346709
15
Frame=1 idx=009898 GeodesicLength=0.1507291925996003 rxn_smarts="[C:1]([C@@:2]1([H:11])[C@:3]([C:4]#[N:5])([H:12])[N:6]1[C:7]([H:13])([H:14])[H:15])([H:8])([H:9])[H:10]>>[C:1](=[C:2]([N:6]([C:3](=[C:4]=[N:5][H:10])[H:12])[C:7]([H:13])([H:14])[H:15])[H:11])([H:8])[H:9]"
C       -1.81990546       0.15399220      -0.17830644
C       -0.56270491      -0.35524547      -0.42798417
C        0.95443568       0.81967591      -0.20884867
C        0.32530094       1.97483593       0.10732201
N       -0.69747246       2.55675255       0.31814129
N        0.48979399      -0.31912379       0.52501147
C        1.39613795      -1.44351302       0.58522652
H       -2.60364509      -0.07302932      -0.89387919
H       -2.24157172       0.27732251       0.81322636
H       -1.49368683       1.70431596      -0.08617030
H       -0.32594694      -0.81950720      -1.38723162
H        1.68624282       0.73285362      -1.00319890
H        1.79004730      -1.71949159      -0.40484117
H        0.87092301      -2.30145985       1.00464020
H        2.23205173      -1.18837844       1.23689262
15
Frame=2 idx=009898 GeodesicLength=0.300355200479396 rxn_smarts="[C:1]([C@@:2]1([H:11])[C@:3]([C:4]#[N:5])([H:12])[N:6]1[C:7]([H:13])([H:14])[H:15])([H:8])([H:9])[H:10]>>[C:1](=[C:2]([N:6]([C:3](=[C:4]=[N:5][H:10])[H:12])[C:7]([H:13])([H:14])[H:15])[H:11])([H:8])[H:9]"
C       -1.82122102       0.14931258      -0.19403959
C       -0.56009341      -0.35053079      -0.44453691
C        0.95531260       0.81704903      -0.22986204
C        0.36234292       1.98120018       0.12845088
N       -0.64625938       2.57814449       0.36389598
N        0.49282933      -0.32101285       0.50366285
C        1.40127154      -1.43991497       0.58574682
H       -2.61860852      -0.17562088      -0.85855043
H       -2.33139937       0.34303237       0.74302226
H       -1.48332982       1.72061441      -0.02576478
H       -0.33152148      -0.85097212      -1.38728761
H        1.67107588       0.73791990      -1.03901286
H        1.82265004      -1.70826233      -0.39456960
H        0.86868886      -2.30091546       0.98916225
H        2.21826183      -1.18004357       1.25968278
15
Frame=3 idx=009898 GeodesicLength=0.4488732567303473 rxn_smarts="[C:1]([C@@:2]1([H:11])[C@:3]([C:4]#[N:5])([H:12])[N:6]1[C:7]([H:13])([H:14])[H:15])([H:8])([H:9])[H:10]>>[C:1](=[C:2]([N:6]([C:3](=[C:4]=[N:5][H:10])[H:12])[C:7]([H:13])([H:14])[H:15])[H:11])([H:8])[H:9]"
C       -1.82437211       0.14414468      -0.20857425
C       -0.55849898      -0.34524183      -0.46136777
C        0.95515250       0.81509082      -0.25127075
C        0.40028541       1.98666599       0.14879820
N       -0.59294418       2.59725272       0.41288567
N        0.49539276      -0.32270907       0.48158277
C        1.40571969      -1.43578441       0.58574270
H       -2.62613939      -0.28402190      -0.81118201
H       -2.42252138       0.41568808       0.65459113
H       -1.47138146       1.73414412       0.03931284
H       -0.33870287      -0.88220552      -1.38587393
H        1.65420351       0.74388327      -1.07519869
H        1.85485263      -1.69565942      -0.38399122
H        0.86635558      -2.30014986       0.97252332
H        2.20259828      -1.17109768       1.28202199
15
Frame=4 idx=009898 GeodesicLength=0.5958139951167922 rxn_smarts="[C:1]([C@@:2]1([H:11])[C@:3]([C:4]#[N:5])([H:12])[N:6]1[C:7]([H:13])([H:14])[H:15])([H:8])([H:9])[H:10]>>[C:1](=[C:2]([N:6]([C:3](=[C:4]=[N:5][H:10])[H:12])[C:7]([H:13])([H:14])[H:15])[H:11])([H:8])[H:9]"
C       -1.82932556       0.13739639      -0.22116659
C       -0.55790325      -0.33977625      -0.47865509
C        0.95372856       0.81378220      -0.27306671
C        0.43847702       1.99107738       0.16799289
N       -0.53799837       2.61354736       0.46505324
N        0.49751764      -0.32440168       0.45861916
C        1.40972634      -1.43113986       0.58513082
H       -2.62657506      -0.39589066      -0.74696975
H       -2.51381193       0.49707477       0.54050100
H       -1.45831873       1.74314242       0.11186469
H       -0.34758614      -0.91344808      -1.38313662
H        1.63565650       0.75090634      -1.11154346
H        1.88710978      -1.68148067      -0.37309262
H        0.86427476      -2.29930991       0.95445405
H        2.18502843      -1.16147975       1.30401499
15
Frame=5 idx=009898 GeodesicLength=0.7390384241593559 rxn_smarts="[C:1]([C@@:2]1([H:11])[C@:3]([C:4]#[N:5])([H:12])[N:6]1[C:7]([H:13])([H:14])[H:15])([H:8])([H:9])[H:10]>>[C:1](=[C:2]([N:6]([C:3](=[C:4]=[N:5][H:10])[H:12])[C:7]([H:13])([H:14])[H:15])[H:11])([H:8])[H:9]"
C       -1.83563083       0.12755756      -0.22912534
C       -0.55847444      -0.33535728      -0.49544718
C        0.95029477       0.81277458      -0.29512331
C        0.47572374       1.99383444       0.18590131
N       -0.48237742       2.62719452       0.51789252
N        0.49965692      -0.32666642       0.43506225
C        1.41442396      -1.42600729       0.58359953
H       -2.62148343      -0.50604614      -0.65897582
H       -2.60413650       0.59131967       0.38254182
H       -1.44470142       1.74298809       0.20242222
H       -0.35899273      -0.94553760      -1.37825445
H        1.61449334       0.75889975      -1.14794983
H        1.92019080      -1.66515341      -0.36231474
H        0.86434695      -2.29877302       0.93463969
H        2.16666629      -1.15102746       1.32513132
15
Frame=6 idx=009898 GeodesicLength=0.8690714448909378 rxn_smarts="[C:1]([C@@:2]1([H:11])[C@:3]([C:4]#[N:5])([H:12])[N:6]1[C:7]([H:13])([H:14])[H:15])([H:8])([H:9])[H:10]>>[C:1](=[C:2]([N:6]([C:3](=[C:4]=[N:5][H:10])[H:12])[C:7]([H:13])([H:14])[H:15])[H:11])([H:8])[H:9]"
C       -1.84210739       0.11582583      -0.23193845
C       -0.56102734      -0.33538574      -0.51103373
C        0.94260010       0.81174472      -0.31798028
C        0.50789707       1.99437094       0.20124003
N       -0.43217691       2.64039546       0.55932332
N        0.50172961      -0.33043567       0.41081742
C        1.42112301      -1.41997797       0.58150593
H       -2.62001277      -0.59641349      -0.54287672
H       -2.67507286       0.69722076       0.15521057
H       -1.43116648       1.71977770       0.34261106
H       -0.37412100      -0.98158755      -1.37063679
H        1.58928142       0.76724442      -1.18441563
H        1.95500139      -1.64629288      -0.35153803
H        0.86924079      -2.29858916       0.91461321
H        2.14881139      -1.13789736       1.34509808
15
Frame=7 idx=009898 GeodesicLength=0.9870455595513163 rxn_smarts="[C:1]([C@@:2]1([H:11])[C@:3]([C:4]#[N:5])([H:12])[N:6]1[C:7]([H:13])([H:14])[H:15])([H:8])([H:9])[H:10]>>[C:1](=[C:2]([N:6]([C:3](=[C:4]=[N:5][H:10])[H:12])[C:7]([H:13])([H:14])[H:15])[H:11])([H:8])[H:9]"
C       -1.84608897       0.10820306      -0.23517328
C       -0.56609577      -0.34579813      -0.52460594
C        0.92706484       0.81031389      -0.33902261
C        0.52756654       1.99069611       0.21875304
N       -0.39970542       2.64295559       0.59916691
N        0.50308579      -0.33824231       0.38640350
C        1.43180519      -1.41338220       0.57904580
H       -2.64068231      -0.63274141      -0.40448439
H       -2.68263534       0.79315716      -0.11397246
H       -1.42585142       1.67962249       0.49346230
H       -0.39351374      -1.02779623      -1.35876409
H        1.55526413       0.77802447      -1.21909601
H        1.99302175      -1.62427906      -0.34090554
H        0.88308131      -2.29982307       0.89613603
H        2.13368342      -1.12091034       1.36305673
15
Frame=8 idx=009898 GeodesicLength=1.1170107020663116 rxn_smarts="[C:1]([C@@:2]1([H:11])[C@:3]([C:4]#[N:5])([H:12])[N:6]1[C:7]([H:13])([H:14])[H:15])([H:8])([H:9])[H:10]>>[C:1](=[C:2]([N:6]([C:3](=[C:4]=[N:5][H:10])[H:12])[C:7]([H:13])([H:14])[H:15])[H:11])([H:8])[H:9]"
C       -1.84883463       0.10332545      -0.23939451
C       -0.57353414      -0.36604429      -0.53357993
C        0.90499283       0.80714557      -0.35778296
C        0.54092376       1.98256316       0.24002230
N       -0.37147752       2.63384418       0.65719334
N        0.50358851      -0.34951337       0.36440797
C        1.44642664      -1.40581308       0.57718486
H       -2.68338975      -0.60861614      -0.28402950
H       -2.63680273       0.84666292      -0.35140380
H       -1.43555359       1.65100470       0.59337573
H       -0.41618226      -1.08393452      -1.33965702
H        1.50787185       0.79021195      -1.25546575
H        2.03438128      -1.59673719      -0.32981284
H        0.90657344      -2.30318865       0.87823385
H        2.12101632      -1.10091069       1.38070826
15
Frame=9 idx=009898 GeodesicLength=1.2540403243795515 rxn_smarts="[C:1]([C@@:2]1([H:11])[C@:3]([C:4]#[N:5])([H:12])[N:6]1[C:7]([H:13])([H:14])[H:15])([H:8])([H:9])[H:10]>>[C:1](=[C:2]([N:6]([C:3](=[C:4]=[N:5][H:10])[H:12])[C:7]([H:13])([H:14])[H:15])[H:11])([H:8])[H:9]"
C       -1.85110768       0.10094846      -0.25043723
C       -0.58150536      -0.39046007      -0.54194919
C        0.88058791       0.80291063      -0.37648455
C        0.55320206       1.97270202       0.25873313
N       -0.34100252       2.61995083       0.71996569
N        0.50308316      -0.36159048       0.34291889
C        1.46133736      -1.39683963       0.57654524
H       -2.73249461      -0.54687743      -0.18840951
H       -2.57172815       0.86425238      -0.54485407
H       -1.45178011       1.62737443       0.67048904
H       -0.43838090      -1.14366818      -1.31725216
H        1.45373314       0.80203446      -1.29324528
H        2.07703553      -1.56453181      -0.31596312
H        0.93310745      -2.30678495       0.85986500
H        2.10591273      -1.07942066       1.40007811
15
Frame=10 idx=009898 GeodesicLength=1.3933680840935259 rxn_smarts="[C:1]([C@@:2]1([H:11])[C@:3]([C:4]#[N:5])([H:12])[N:6]1[C:7]([H:13])([H:14])[H:15])([H:8])([H:9])[H:10]>>[C:1](=[C:2]([N:6]([C:3](=[C:4]=[N:5][H:10])[H:12])[C:7]([H:13])([H:14])[H:15])[H:11])([H:8])[H:9]"
C       -1.85338605       0.09937649      -0.26419882
C       -0.58973757      -0.41670447      -0.54951629
C        0.85507849       0.79814799      -0.39498643
C        0.56502512       1.96234077       0.27390640
N       -0.30957371       2.60469610       0.77825253
N        0.50222402      -0.37378275       0.32187295
C        1.47596989      -1.38692218       0.57655746
H       -2.78110021      -0.45984972      -0.11538249
H       -2.50042585       0.85846036      -0.70758564
H       -1.46923499       1.60195385       0.74342937
H       -0.46011639      -1.20356585      -1.29248131
H        1.39602553       0.81298859      -1.33069425
H        2.11947781      -1.52882096      -0.30014464
H        0.96123345      -2.31024109       0.84070592
H        2.08854046      -1.05807713       1.42026522
15
Frame=11 idx=009898 GeodesicLength=1.5338767965793008 rxn_smarts="[C:1]([C@@:2]1([H:11])[C@:3]([C:4]#[N:5])([H:12])[N:6]1[C:7]([H:13])([H:14])[H:15])([H:8])([H:9])[H:10]>>[C:1](=[C:2]([N:6]([C:3](=[C:4]=[N:5][H:10])[H:12])[C:7]([H:13])([H:14])[H:15])[H:11])([H:8])[H:9]"
C       -1.85591629       0.09880886      -0.27872130
C       -0.59848352      -0.44377008      -0.55570497
C        0.82866122       0.79312054      -0.41309555
C        0.57674776       1.95189848       0.28594177
N       -0.27703082       2.58910118       0.83149134
N        0.50118406      -0.38586289       0.30125905
C        1.49012592      -1.37620150       0.57668749
H       -2.82517776      -0.35327504      -0.06108556
H       -2.42761910       0.83393521      -0.85090829
H       -1.48565312       1.57255880       0.81839426
H       -0.48226711      -1.26283149      -1.26468132
H        1.33496858       0.82318755      -1.36736619
H        2.16103483      -1.48960444      -0.28294099
H        0.99060606      -2.31345510       0.82004449
H        2.06881931      -1.03761008       1.44068578
15
Frame=12 idx=009898 GeodesicLength=1.6755392555313673 rxn_smarts="[C:1]([C@@:2]1([H:11])[C@:3]([C:4]#[N:5])([H:12])[N:6]1[C:7]([H:13])([H:14])[H:15])([H:8])([H:9])[H:10]>>[C:1](=[C:2]([N:6]([C:3](=[C:4]=[N:5][H:10])[H:12])[C:7]([H:13])([H:14])[H:15])[H:11])([H:8])[H:9]"
C       -1.85881332       0.10005242      -0.29416696
C       -0.60809945      -0.47136295      -0.56025417
C        0.80117830       0.78792098      -0.43109872
C        0.58831113       1.94168277       0.29454096
N       -0.24298945       2.57301188       0.88081070
N        0.49993420      -0.39771715       0.28081078
C        1.50375559      -1.36449093       0.57679162
H       -2.86186292      -0.22872877      -0.02379277
H       -2.35592841       0.79258442      -0.98083679
H       -1.49924314       1.53684613       0.89897647
H       -0.50568264      -1.32165883      -1.23298914
H        1.27005709       0.83262153      -1.40349794
H        2.20190624      -1.44614292      -0.26401615
H        1.02144171      -2.31632032       0.79709342
H        2.04603506      -1.01829826       1.46162871
15
Frame=13 idx=009898 GeodesicLength=1.8181114772533458 rxn_smarts="[C:1]([C@@:2]1([H:11])[C@:3]([C:4]#[N:5])([H:12])[N:6]1[C:7]([H:13])([H:14])[H:15])([H:8])([H:9])[H:10]>>[C:1](=[C:2]([N:6]([C:3](=[C:4]=[N:5][H:10])[H:12])[C:7]([H:13])([H:14])[H:15])[H:11])([H:8])[H:9]"
C       -1.86203565       0.10422686      -0.31058136
C       -0.61891508      -0.49903577      -0.56271663
C        0.77251183       0.78270509      -0.44903442
C        0.59967949       1.93202036       0.29966568
N       -0.20654509       2.55598531       0.92801499
N        0.49840738      -0.40914709       0.26043855
C        1.51673684      -1.35158566       0.57677415
H       -2.88849177      -0.08837269      -0.00512453
H       -2.28762814       0.73514088      -1.09992766
H       -1.50864013       1.49352020       0.98646531
H       -0.53123391      -1.38010345      -1.19606591
H        1.20066497       0.84135050      -1.43907457
H        2.24142931      -1.39835075      -0.24346017
H        1.05378567      -2.31833570       0.77202849
H        2.02027429      -1.00001807       1.48259809
15
Frame=14 idx=009898 GeodesicLength=1.9617690216175707 rxn_smarts="[C:1]([C@@:2]1([H:11])[C@:3]([C:4]#[N:5])([H:12])[N:6]1[C:7]([H:13])([H:14])[H:15])([H:8])([H:9])[H:10]>>[C:1](=[C:2]([N:6]([C:3](=[C:4]=[N:5][H:10])[H:12])[C:7]([H:13])([H:14])[H:15])[H:11])([H:8])[H:9]"
C       -1.86550443       0.11166474      -0.32848559
C       -0.63121143      -0.52684337      -0.56254018
C        0.74235283       0.77754814      -0.46673040
C        0.61048576       1.92299135       0.30167682
N       -0.16733552       2.53734731       0.97442783
N        0.49658806      -0.42020687       0.24015809
C        1.52924841      -1.33737493       0.57643449
H       -2.90249363       0.06786406      -0.00611669
H       -2.22402816       0.66238122      -1.20875773
H       -1.51374909       1.44160507       1.07981851
H       -0.55959081      -1.43837446      -1.15255929
H        1.12588601       0.84962214      -1.47379525
H        2.27949700      -1.34566225      -0.22126412
H        1.08824498      -2.31937571       0.74432156
H        1.99161004      -0.98318645       1.50341195
15
Frame=15 idx=009898 GeodesicLength=2.1064682047203074 rxn_smarts="[C:1]([C@@:2]1([H:11])[C@:3]([C:4]#[N:5])([H:12])[N:6]1[C:7]([H:13])([H:14])[H:15])([H:8])([H:9])[H:10]>>[C:1](=[C:2]([N:6]([C:3](=[C:4]=[N:5][H:10])[H:12])[C:7]([H:13])([H:14])[H:15])[H:11])([H:8])[H:9]"
C       -1.86902146       0.12159931      -0.34845638
C       -0.64480016      -0.55469665      -0.55999065
C        0.71056569       0.77269081      -0.48366187
C        0.62006250       1.91451239       0.30162974
N       -0.12513891       2.51610305       1.02187551
N        0.49445918      -0.43098304       0.21984237
C        1.54131013      -1.32194513       0.57548431
H       -2.89916271       0.24048975      -0.02688348
H       -2.16749500       0.57451442      -1.30621915
H       -1.51659420       1.38154462       1.17536290
H       -0.59069599      -1.49634747      -1.10179254
H        1.04564290       0.85819066      -1.50663903
H        2.31515146      -1.28878662      -0.19814738
H        1.12471723      -2.31898279       0.71452194
H        1.96099935      -0.96790331       1.52307372
15
Frame=16 idx=009898 GeodesicLength=2.2520337377948447 rxn_smarts="[C:1]([C@@:2]1([H:11])[C@:3]([C:4]#[N:5])([H:12])[N:6]1[C:7]([H:13])([H:14])[H:15])([H:8])([H:9])[H:10]>>[C:1](=[C:2]([N:6]([C:3](=[C:4]=[N:5][H:10])[H:12])[C:7]([H:13])([H:14])[H:15])[H:11])([H:8])[H:9]"
C       -1.87256641       0.13181955      -0.37018585
C       -0.65920061      -0.58268332      -0.55586095
C        0.67668996       0.76835604      -0.49929641
C        0.62724531       1.90634607       0.30069059
N       -0.08030301       2.49152226       1.07130062
N        0.49191855      -0.44161506       0.19917668
C        1.55275528      -1.30547438       0.57352596
H       -2.87045805       0.43010649      -0.06733138
H       -2.12094529       0.47241284      -1.38934603
H       -1.52081590       1.31467670       1.26872979
H       -0.62373042      -1.55358389      -1.04399264
H        0.96027838       0.86782407      -1.53621294
H        2.34734375      -1.22871795      -0.17497813
H        1.16266548      -2.31676211       0.68320298
H        1.92912299      -0.95422730       1.54057771
