12
Frame=0 idx=007067 GeodesicLength=0.0 rxn_smarts="[O:1]=[C:2]1[N:3]([H:8])[C:4]([H:9])([H:10])[C@@:5]2([H:11])[O:6][C@@:7]12[H:12]>>[O-:1][C+:2]([N:3]([C+:4]([H:9])[H:10])[H:8])[C:7](=[C:5]([O-:6])[H:11])[H:12]"
O        1.03027677       2.38218444       0.39122689
C        0.60118654       1.26323948       0.24334229
N        1.23561734       0.16927533      -0.29166905
C        0.48336781      -1.01247877      -0.13255789
C       -1.11960475      -0.46498583      -0.17228944
O       -1.87478531      -1.10754281       0.64314617
C       -0.78914551       0.82105443       0.43329230
H        2.07716114       0.25578999      -0.83622786
H        0.56014976      -1.47129547       0.85038433
H        0.62713473      -1.73843732      -0.92816741
H       -1.33519913      -0.44073111      -1.26306275
H       -1.49615941       1.34392768       1.06258246
12
Frame=1 idx=007067 GeodesicLength=0.07976061361225115 rxn_smarts="[O:1]=[C:2]1[N:3]([H:8])[C:4]([H:9])([H:10])[C@@:5]2([H:11])[O:6][C@@:7]12[H:12]>>[O-:1][C+:2]([N:3]([C+:4]([H:9])[H:10])[H:8])[C:7](=[C:5]([O-:6])[H:11])[H:12]"
O        1.03576653       2.36875897       0.41932470
C        0.59199335       1.25866411       0.25120370
N        1.23474412       0.16656038      -0.29219037
C        0.49775175      -1.02178508      -0.14556971
C       -1.12307622      -0.46877530      -0.16752331
O       -1.87567561      -1.07216219       0.68052026
C       -0.79738184       0.81816974       0.43511385
H        2.07835984       0.26431544      -0.83191711
H        0.57799972      -1.48942274       0.83298565
H        0.64613041      -1.73933055      -0.94818998
H       -1.34977067      -0.45835762      -1.25466973
H       -1.51684136       1.37336484       1.02091204
12
Frame=2 idx=007067 GeodesicLength=0.1594792780297166 rxn_smarts="[O:1]=[C:2]1[N:3]([H:8])[C:4]([H:9])([H:10])[C@@:5]2([H:11])[O:6][C@@:7]12[H:12]>>[O-:1][C+:2]([N:3]([C+:4]([H:9])[H:10])[H:8])[C:7](=[C:5]([O-:6])[H:11])[H:12]"
O        1.04137577       2.35447492       0.44869292
C        0.58257766       1.25427993       0.25867023
N        1.23351323       0.16395656      -0.29298532
C        0.51203625      -1.03077546      -0.15868613
C       -1.12702152      -0.47257680      -0.16179757
O       -1.87600537      -1.03655604       0.71705380
C       -0.80603964       0.81601104       0.43651457
H        2.07925779       0.27284560      -0.82753201
H        0.59554576      -1.50693417       0.81553523
H        0.66536214      -1.73980793      -0.96817617
H       -1.36469545      -0.47676713      -1.24509806
H       -1.53590662       1.40184947       0.97780851
12
Frame=3 idx=007067 GeodesicLength=0.2391599888756144 rxn_smarts="[O:1]=[C:2]1[N:3]([H:8])[C:4]([H:9])([H:10])[C@@:5]2([H:11])[O:6][C@@:7]12[H:12]>>[O-:1][C+:2]([N:3]([C+:4]([H:9])[H:10])[H:8])[C:7](=[C:5]([O-:6])[H:11])[H:12]"
O        1.04694086       2.33937811       0.47895083
C        0.57296714       1.25011205       0.26575102
N        1.23194759       0.16146426      -0.29402222
C        0.52621381      -1.03943566      -0.17189934
C       -1.13141819      -0.47632502      -0.15523435
O       -1.87595947      -1.00060549       0.75261109
C       -0.81514351       0.81467053       0.43725987
H        2.07993651       0.28134128      -0.82294966
H        0.61271189      -1.52378830       0.79807074
H        0.68485173      -1.73989202      -0.98807335
H       -1.37986434      -0.49598684      -1.23445260
H       -1.55318403       1.42906712       0.93398796
12
Frame=4 idx=007067 GeodesicLength=0.31881780597453246 rxn_smarts="[O:1]=[C:2]1[N:3]([H:8])[C:4]([H:9])([H:10])[C@@:5]2([H:11])[O:6][C@@:7]12[H:12]>>[O-:1][C+:2]([N:3]([C+:4]([H:9])[H:10])[H:8])[C:7](=[C:5]([O-:6])[H:11])[H:12]"
O        1.05225773       2.32359258       0.50955699
C        0.56322450       1.24612770       0.27258867
N        1.23009660       0.15905577      -0.29521629
C        0.54029144      -1.04778148      -0.18521955
C       -1.13623372      -0.47996466      -0.14792876
O       -1.87570598      -0.96421987       0.78706768
C       -0.82467631       0.81418021       0.43721998
H        2.08048238       0.28975652      -0.81802907
H        0.62943889      -1.54004635       0.78058021
H        0.70462933      -1.73958469      -1.00789699
H       -1.39516857      -0.51597941      -1.22281115
H       -1.56863630       1.45486369       0.89008829
12
Frame=5 idx=007067 GeodesicLength=0.3984781981860089 rxn_smarts="[O:1]=[C:2]1[N:3]([H:8])[C:4]([H:9])([H:10])[C@@:5]2([H:11])[O:6][C@@:7]12[H:12]>>[O-:1][C+:2]([N:3]([C+:4]([H:9])[H:10])[H:8])[C:7](=[C:5]([O-:6])[H:11])[H:12]"
O        1.05711910       2.30732339       0.53989624
C        0.55342654       1.24225513       0.27940184
N        1.22802508       0.15668282      -0.29645320
C        0.55428705      -1.05585352      -0.19867487
C       -1.14142792      -0.48345334      -0.13994649
O       -1.87540102      -0.92733777       0.82032249
C       -0.83459490       0.81452735       0.43635485
H        2.08098438       0.29803682      -0.81261552
H        0.64567928      -1.55584952       0.76300784
H        0.72473344      -1.73887600      -1.02771514
H       -1.41050064      -0.53666796      -1.21022299
H       -1.58233041       1.47921262       0.84664494
12
Frame=6 idx=007067 GeodesicLength=0.4782957016734733 rxn_smarts="[O:1]=[C:2]1[N:3]([H:8])[C:4]([H:9])([H:10])[C@@:5]2([H:11])[O:6][C@@:7]12[H:12]>>[O-:1][C+:2]([N:3]([C+:4]([H:9])[H:10])[H:8])[C:7](=[C:5]([O-:6])[H:11])[H:12]"
O        1.06135611       2.29081517       0.56952195
C        0.54362142       1.23842765       0.28640887
N        1.22580551       0.15427820      -0.29764192
C        0.56824973      -1.06373664      -0.21231400
C       -1.14696226      -0.48676502      -0.13131311
O       -1.87517592      -0.88992104       0.85237101
C       -0.84486522       0.81569690       0.43470866
H        2.08152392       0.30611920      -0.80662704
H        0.66144515      -1.57142315       0.74529704
H        0.74524002      -1.73779855      -1.04765918
H       -1.42577823      -0.55796815      -1.19673224
H       -1.59446022       1.50227544       0.80397997
12
Frame=7 idx=007067 GeodesicLength=0.5579280537642538 rxn_smarts="[O:1]=[C:2]1[N:3]([H:8])[C:4]([H:9])([H:10])[C@@:5]2([H:11])[O:6][C@@:7]12[H:12]>>[O-:1][C+:2]([N:3]([C+:4]([H:9])[H:10])[H:8])[C:7](=[C:5]([O-:6])[H:11])[H:12]"
O        1.06491520       2.27421660       0.59778317
C        0.53391740       1.23445221       0.29378743
N        1.22350266       0.15181402      -0.29858786
C        0.58214401      -1.07134601      -0.22613771
C       -1.15281513      -0.48988502      -0.12204050
O       -1.87518136      -0.85197767       0.88302836
C       -0.85536189       0.81747728       0.43232557
H        2.08212225       0.31400600      -0.79986440
H        0.67663742      -1.58675033       0.72727290
H        0.76607966      -1.73611459      -1.06767631
H       -1.44093717      -0.57976320      -1.18220504
H       -1.60502305       1.52387071       0.76231440
12
Frame=8 idx=007067 GeodesicLength=0.6373053539210466 rxn_smarts="[O:1]=[C:2]1[N:3]([H:8])[C:4]([H:9])([H:10])[C@@:5]2([H:11])[O:6][C@@:7]12[H:12]>>[O-:1][C+:2]([N:3]([C+:4]([H:9])[H:10])[H:8])[C:7](=[C:5]([O-:6])[H:11])[H:12]"
O        1.06786458       2.25743199       0.62513904
C        0.52421450       1.23039728       0.30132569
N        1.22102142       0.14929440      -0.29937637
C        0.59596287      -1.07868253      -0.24017454
C       -1.15891841      -0.49283737      -0.11213630
O       -1.87523078      -0.81344399       0.91233309
C       -0.86598692       0.81980818       0.42917933
H        2.08265174       0.32166865      -0.79232438
H        0.69137072      -1.60174354       0.70894600
H        0.78717651      -1.73389473      -1.08777384
H       -1.45602684      -0.60216561      -1.16662319
H       -1.61409939       1.54416727       0.72148548
12
Frame=9 idx=007067 GeodesicLength=0.7172578320712761 rxn_smarts="[O:1]=[C:2]1[N:3]([H:8])[C:4]([H:9])([H:10])[C@@:5]2([H:11])[O:6][C@@:7]12[H:12]>>[O-:1][C+:2]([N:3]([C+:4]([H:9])[H:10])[H:8])[C:7](=[C:5]([O-:6])[H:11])[H:12]"
O        1.06999916       2.24112072       0.65102729
C        0.51454603       1.22628036       0.30943757
N        1.21863538       0.14656538      -0.29990660
C        0.60991708      -1.08609827      -0.25453049
C       -1.16529534      -0.49560346      -0.10153737
O       -1.87585209      -0.77445623       0.94054257
C       -0.87687552       0.82281550       0.42562095
H        2.08340911       0.32902556      -0.78426222
H        0.70565975      -1.61718906       0.69031243
H        0.80896819      -1.73143291      -1.10833856
H       -1.47080767      -0.62490336      -1.15015356
H       -1.62230407       1.56387577       0.68178801
12
Frame=10 idx=007067 GeodesicLength=0.7965279015742026 rxn_smarts="[O:1]=[C:2]1[N:3]([H:8])[C:4]([H:9])([H:10])[C@@:5]2([H:11])[O:6][C@@:7]12[H:12]>>[O-:1][C+:2]([N:3]([C+:4]([H:9])[H:10])[H:8])[C:7](=[C:5]([O-:6])[H:11])[H:12]"
O        1.07161840       2.22469606       0.67560953
C        0.50503701       1.22170765       0.31804007
N        1.21610376       0.14375301      -0.30005149
C        0.62375696      -1.09308321      -0.26916791
C       -1.17184885      -0.49826813      -0.09014178
O       -1.87670703      -0.73479734       0.96733419
C       -0.88770386       0.82603514       0.42152945
H        2.08394577       0.33625081      -0.77524167
H        0.71949336      -1.63229067       0.67099337
H        0.83086912      -1.72797459      -1.12901980
H       -1.48549161      -0.64826574      -1.13224356
H       -1.62907303       1.58223701       0.64235960
12
Frame=11 idx=007067 GeodesicLength=0.8760911005786519 rxn_smarts="[O:1]=[C:2]1[N:3]([H:8])[C:4]([H:9])([H:10])[C@@:5]2([H:11])[O:6][C@@:7]12[H:12]>>[O-:1][C+:2]([N:3]([C+:4]([H:9])[H:10])[H:8])[C:7](=[C:5]([O-:6])[H:11])[H:12]"
O        1.07263818       2.20844386       0.69931385
C        0.49548206       1.21704855       0.32690057
N        1.21359262       0.14076375      -0.30001097
C        0.63770455      -1.10000400      -0.28419715
C       -1.17863292      -0.50079713      -0.07791539
O       -1.87809908      -0.69453976       0.99310169
C       -0.89867639       0.82973695       0.41700444
H        2.08462059       0.34318395      -0.76562891
H        0.73300070      -1.64762628       0.65117715
H        0.85335489      -1.72405828      -1.15013196
H       -1.49996202      -0.67214923      -1.11310879
H       -1.63502318       1.59999763       0.60349547
12
Frame=12 idx=007067 GeodesicLength=0.9557075345756897 rxn_smarts="[O:1]=[C:2]1[N:3]([H:8])[C:4]([H:9])([H:10])[C@@:5]2([H:11])[O:6][C@@:7]12[H:12]>>[O-:1][C+:2]([N:3]([C+:4]([H:9])[H:10])[H:8])[C:7](=[C:5]([O-:6])[H:11])[H:12]"
O        1.07308908       2.19239964       0.72203212
C        0.48590136       1.21223740       0.33602876
N        1.21107488       0.13759732      -0.29971048
C        0.65171501      -1.10679225      -0.29964699
C       -1.18560745      -0.50321847      -0.06480850
O       -1.88006201      -0.65366059       1.01776991
C       -0.90969870       0.83378248       0.41212279
H        2.08536282       0.34982918      -0.75528444
H        0.74615605      -1.66314466       0.63073145
H        0.87633255      -1.71953106      -1.17167460
H       -1.51419202      -0.69658237      -1.09261413
H       -1.64007156       1.61708338       0.56505410
12
Frame=13 idx=007067 GeodesicLength=1.0355949884180773 rxn_smarts="[O:1]=[C:2]1[N:3]([H:8])[C:4]([H:9])([H:10])[C@@:5]2([H:11])[O:6][C@@:7]12[H:12]>>[O-:1][C+:2]([N:3]([C+:4]([H:9])[H:10])[H:8])[C:7](=[C:5]([O-:6])[H:11])[H:12]"
O        1.07295174       2.17660308       0.74389486
C        0.47624228       1.20731004       0.34538304
N        1.20857392       0.13421163      -0.29917192
C        0.66584375      -1.11349671      -0.31557777
C       -1.19275807      -0.50552613      -0.05074774
O       -1.88270096      -0.61209639       1.04142578
C       -0.92079246       0.83817342       0.40697514
H        2.08620010       0.35612316      -0.74425266
H        0.75903870      -1.67896593       0.60961076
H        0.89989400      -1.71442342      -1.19375005
H       -1.52814356      -0.72155583      -1.07070186
H       -1.64434944       1.63364306       0.52691243
12
Frame=14 idx=007067 GeodesicLength=1.1149633302818915 rxn_smarts="[O:1]=[C:2]1[N:3]([H:8])[C:4]([H:9])([H:10])[C@@:5]2([H:11])[O:6][C@@:7]12[H:12]>>[O-:1][C+:2]([N:3]([C+:4]([H:9])[H:10])[H:8])[C:7](=[C:5]([O-:6])[H:11])[H:12]"
O        1.07247717       2.16067722       0.76485978
C        0.46659298       1.20212252       0.35471294
N        1.20602114       0.13068800      -0.29827113
C        0.67990293      -1.11977868      -0.33193105
C       -1.20007521      -0.50771846      -0.03567923
O       -1.88593108      -0.56984153       1.06374233
C       -0.93174286       0.84254353       0.40141041
H        2.08697464       0.36218502      -0.73228625
H        0.77146237      -1.69458047       0.58759592
H        0.92372418      -1.70823567      -1.21603858
H       -1.54188720      -0.74711637      -1.04694451
H       -1.64751905       1.64905489       0.48882937
12
Frame=15 idx=007067 GeodesicLength=1.1946357505083738 rxn_smarts="[O:1]=[C:2]1[N:3]([H:8])[C:4]([H:9])([H:10])[C@@:5]2([H:11])[O:6][C@@:7]12[H:12]>>[O-:1][C+:2]([N:3]([C+:4]([H:9])[H:10])[H:8])[C:7](=[C:5]([O-:6])[H:11])[H:12]"
O        1.07144632       2.14502745       0.78510307
C        0.45682817       1.19682309       0.36425066
N        1.20348368       0.12690797      -0.29712705
C        0.69409326      -1.12596907      -0.34885374
C       -1.20753874      -0.50981214      -0.01951012
O       -1.88999141      -0.52684090       1.08507197
C       -0.94272141       0.84718700       0.39574424
H        2.08780515       0.36785583      -0.71965733
H        0.78363359      -1.71057136       0.56474573
H        0.94818511      -1.70140224      -1.23892664
H       -1.55524484      -0.77321369      -1.02157563
H       -1.64997889       1.66400805       0.45073484
12
Frame=16 idx=007067 GeodesicLength=1.274293043655069 rxn_smarts="[O:1]=[C:2]1[N:3]([H:8])[C:4]([H:9])([H:10])[C@@:5]2([H:11])[O:6][C@@:7]12[H:12]>>[O-:1][C+:2]([N:3]([C+:4]([H:9])[H:10])[H:8])[C:7](=[C:5]([O-:6])[H:11])[H:12]"
O        1.06998336       2.12953656       0.80459065
C        0.44699148       1.19137669       0.37386811
N        1.20096148       0.12288368      -0.29565300
C        0.70834072      -1.13193129      -0.36632492
C       -1.21512853      -0.51179099      -0.00219320
O       -1.89496484      -0.48309471       1.10521567
C       -0.95365009       0.85193161       0.38994480
H        2.08860310       0.37317855      -0.70634187
H        0.79543787      -1.72675853       0.54096609
H        0.97317963      -1.69370740      -1.26227633
H       -1.56817178      -0.79984999      -0.99438833
H       -1.65158239       1.67822585       0.41259231
