17
Frame=0 idx=011158 GeodesicLength=0.0 rxn_smarts="[C:1]1([H:8])([H:9])[C@:2]2([H:10])[C@@:3]1([H:11])[C@:4]1([H:12])[C:5]([H:13])([H:14])[C:6]([H:15])([H:16])[C@:7]21[H:17]>>[C:1]1([H:8])([H:9])[C@@:2]2([H:10])[C@:3]1([H:11])[C:4]([H:12])=[C:5]1[C:6]([H:15])([H:16])[C@@:7]21[H:17].[H:13][H:14]"
C        1.29618501      -0.31920932       1.03708833
C        1.27698835       0.77089368       0.00975852
C        1.24855144      -0.68256634      -0.40100717
C       -0.13399415      -0.52154936      -1.05710867
C       -1.47564137      -0.33212882      -0.51429581
C       -1.29865957       0.85058673       0.38981081
C       -0.11847985       1.03501923      -0.58364967
H        2.26235692      -0.46321057       1.50478418
H        0.45920843      -0.52357047       1.69229506
H        2.08802463       1.48160385      -0.07480033
H        2.03086152      -1.25746474      -0.87762694
H       -0.11938138      -0.82797744      -2.10289651
H       -1.93129684      -1.82347813       0.60516102
H       -2.30892532      -1.51974876      -0.03363593
H       -2.13462437       1.54677234       0.33200616
H       -0.95126667       0.78264897       1.41840077
H       -0.18990683       1.80337910      -1.34428380
17
Frame=1 idx=011158 GeodesicLength=0.07437106082325713 rxn_smarts="[C:1]1([H:8])([H:9])[C@:2]2([H:10])[C@@:3]1([H:11])[C@:4]1([H:12])[C:5]([H:13])([H:14])[C:6]([H:15])([H:16])[C@:7]21[H:17]>>[C:1]1([H:8])([H:9])[C@@:2]2([H:10])[C@:3]1([H:11])[C:4]([H:12])=[C:5]1[C:6]([H:15])([H:16])[C@@:7]21[H:17].[H:13][H:14]"
C        1.29869481      -0.32488175       1.03324749
C        1.27444100       0.77047352       0.01208002
C        1.25268671      -0.68194290      -0.40745014
C       -0.13044543      -0.53028888      -1.05956945
C       -1.45998724      -0.33277261      -0.50017687
C       -1.30364979       0.85958577       0.39257798
C       -0.12061629       1.03735099      -0.57871723
H        2.26469660      -0.46724096       1.50178123
H        0.46169323      -0.53620166       1.68632099
H        2.08540517       1.48144249      -0.07055421
H        2.04072090      -1.24857280      -0.88481248
H       -0.12706690      -0.85141439      -2.10069924
H       -1.92659074      -1.80784318       0.61224351
H       -2.31024618      -1.52151841      -0.04492224
H       -2.13952288       1.55408745       0.31927267
H       -0.96923005       0.79035110       1.42537958
H       -0.19098293       1.80938623      -1.33600162
17
Frame=2 idx=011158 GeodesicLength=0.14871883476190806 rxn_smarts="[C:1]1([H:8])([H:9])[C@:2]2([H:10])[C@@:3]1([H:11])[C@:4]1([H:12])[C:5]([H:13])([H:14])[C:6]([H:15])([H:16])[C@:7]21[H:17]>>[C:1]1([H:8])([H:9])[C@@:2]2([H:10])[C@:3]1([H:11])[C:4]([H:12])=[C:5]1[C:6]([H:15])([H:16])[C@@:7]21[H:17].[H:13][H:14]"
C        1.30142002      -0.33052382       1.02935095
C        1.27196471       0.77006477       0.01442744
C        1.25681201      -0.68120457      -0.41393832
C       -0.12696917      -0.53905942      -1.06188500
C       -1.44412704      -0.33327080      -0.48588751
C       -1.30873976       0.86848605       0.39531154
C       -0.12270968       1.03982215      -0.57357301
H        2.26730103      -0.47130657       1.49859231
H        0.46450719      -0.54876958       1.68036714
H        2.08286157       1.48127697      -0.06634861
H        2.05041325      -1.23954814      -0.89211072
H       -0.13500266      -0.87552542      -2.09779898
H       -1.92232653      -1.79238651       0.61881153
H       -2.31128441      -1.52274514      -0.05644231
H       -2.14447290       1.56100472       0.30637852
H       -0.98763651       0.79819954       1.43226977
H       -0.19201109       1.81548577      -1.32752473
17
Frame=3 idx=011158 GeodesicLength=0.22304518911984023 rxn_smarts="[C:1]1([H:8])([H:9])[C@:2]2([H:10])[C@@:3]1([H:11])[C@:4]1([H:12])[C:5]([H:13])([H:14])[C:6]([H:15])([H:16])[C@:7]21[H:17]>>[C:1]1([H:8])([H:9])[C@@:2]2([H:10])[C@:3]1([H:11])[C:4]([H:12])=[C:5]1[C:6]([H:15])([H:16])[C@@:7]21[H:17].[H:13][H:14]"
C        1.30437224      -0.33613631       1.02539583
C        1.26956325       0.76966982       0.01680392
C        1.26092630      -0.68034813      -0.42047485
C       -0.12357052      -0.54786532      -1.06404632
C       -1.42806204      -0.33362210      -0.47143873
C       -1.31393929       0.87727408       0.39800136
C       -0.12475751       1.04243668      -0.56820887
H        2.27018713      -0.47540891       1.49520638
H        0.46766552      -0.56128538       1.67443463
H        2.08039777       1.48111129      -0.06218318
H        2.05993595      -1.23038720      -0.89953358
H       -0.14317875      -0.90032443      -2.09414217
H       -1.91845962      -1.77710472       0.62488518
H       -2.31209863      -1.52337398      -0.06822611
H       -2.14947607       1.56751189       0.29331765
H       -1.00651618       0.80616999       1.43905429
H       -0.19298954       1.82168274      -1.31884544
17
Frame=4 idx=011158 GeodesicLength=0.2973494976889641 rxn_smarts="[C:1]1([H:8])([H:9])[C@:2]2([H:10])[C@@:3]1([H:11])[C@:4]1([H:12])[C:5]([H:13])([H:14])[C:6]([H:15])([H:16])[C@:7]21[H:17]>>[C:1]1([H:8])([H:9])[C@@:2]2([H:10])[C@:3]1([H:11])[C:4]([H:12])=[C:5]1[C:6]([H:15])([H:16])[C@@:7]21[H:17].[H:13][H:14]"
C        1.30756244      -0.34171837       1.02137914
C        1.26723892       0.76929012       0.01921200
C        1.26502679      -0.67936984      -0.42706250
C       -0.12025448      -0.55671247      -1.06604278
C       -1.41179300      -0.33382603      -0.45684006
C       -1.31925615       0.88593399       0.40063801
C       -0.12675772       1.04519589      -0.56261623
H        2.27337049      -0.47954617       1.49161171
H        0.47118432      -0.57375807       1.66852447
H        2.07801469       1.48094812      -0.05805939
H        2.06928358      -1.22108525      -0.90709285
H       -0.15158202      -0.92582172      -2.08967226
H       -1.91494851      -1.76199190       0.63048113
H       -2.31274487      -1.52334561      -0.08030486
H       -2.15452791       1.57359691       0.28008474
H       -1.02589907       0.81423208       1.44571550
H       -0.19391750       1.82797831      -1.30995577
17
Frame=5 idx=011158 GeodesicLength=0.37163139669270284 rxn_smarts="[C:1]1([H:8])([H:9])[C@:2]2([H:10])[C@@:3]1([H:11])[C@:4]1([H:12])[C:5]([H:13])([H:14])[C:6]([H:15])([H:16])[C@:7]21[H:17]>>[C:1]1([H:8])([H:9])[C@@:2]2([H:10])[C@:3]1([H:11])[C:4]([H:12])=[C:5]1[C:6]([H:15])([H:16])[C@@:7]21[H:17].[H:13][H:14]"
C        1.31100240      -0.34726876       1.01729785
C        1.26499466       0.76892703       0.02165350
C        1.26911037      -0.67826679      -0.43370363
C       -0.11702655      -0.56560773      -1.06786286
C       -1.39532174      -0.33388286      -0.44209971
C       -1.32469848       0.89444992       0.40321247
C       -0.12870854       1.04810080      -0.55678600
H        2.27686794      -0.48371553       1.48779625
H        0.47508052      -0.58619566       1.66263794
H        2.07571431       1.48078987      -0.05398104
H        2.07844995      -1.21163970      -0.91479950
H       -0.16019738      -0.95202396      -2.08433059
H       -1.91175570      -1.74704138       0.63561476
H       -2.31327630      -1.52260123      -0.09271210
H       -2.15962420       1.57924846       0.26667522
H       -1.04581627       0.82235381       1.45223461
H       -0.19479500       1.83437369      -1.30084717
17
Frame=6 idx=011158 GeodesicLength=0.4458904457239499 rxn_smarts="[C:1]1([H:8])([H:9])[C@:2]2([H:10])[C@@:3]1([H:11])[C@:4]1([H:12])[C:5]([H:13])([H:14])[C:6]([H:15])([H:16])[C@:7]21[H:17]>>[C:1]1([H:8])([H:9])[C@@:2]2([H:10])[C@:3]1([H:11])[C:4]([H:12])=[C:5]1[C:6]([H:15])([H:16])[C@@:7]21[H:17].[H:13][H:14]"
C        1.31470402      -0.35278603       1.01314880
C        1.26283344       0.76858143       0.02412977
C        1.27317322      -0.67703666      -0.44040041
C       -0.11389274      -0.57455913      -1.06949396
C       -1.37865101      -0.33379349      -0.42722455
C       -1.33027442       0.90280567       0.40571590
C       -0.13060850       1.05115161      -0.55070865
H        2.28069654      -0.48791377       1.48374743
H        0.47937139      -0.59860536       1.65677620
H        2.07349868       1.48063841      -0.04995336
H        2.08742786      -1.20204864      -0.92266453
H       -0.16900731      -0.97893369      -2.07805675
H       -1.90884692      -1.73224462       0.64030166
H       -2.31374194      -1.52108207      -0.10548291
H       -2.16475991       1.58445585       0.25308462
H       -1.06629983       0.83050122       1.45859145
H       -0.19562257       1.84086925      -1.29151070
17
Frame=7 idx=011158 GeodesicLength=0.5201266452283595 rxn_smarts="[C:1]1([H:8])([H:9])[C@:2]2([H:10])[C@@:3]1([H:11])[C@:4]1([H:12])[C:5]([H:13])([H:14])[C:6]([H:15])([H:16])[C@:7]21[H:17]>>[C:1]1([H:8])([H:9])[C@@:2]2([H:10])[C@:3]1([H:11])[C:4]([H:12])=[C:5]1[C:6]([H:15])([H:16])[C@@:7]21[H:17].[H:13][H:14]"
C        1.31867914      -0.35826875       1.00892863
C        1.26075822       0.76825373       0.02664169
C        1.27721067      -0.67567781      -0.44715487
C       -0.11085970      -0.58357602      -1.07092243
C       -1.36178467      -0.33355902      -0.41222011
C       -1.33599211       0.91098500       0.40813953
C       -0.13245644       1.05434763      -0.54437423
H        2.28487339      -0.49213745       1.47945211
H        0.48407426      -0.61099376       1.65094026
H        2.07136973       1.48049516      -0.04598271
H        2.09620917      -1.19231063      -0.93069923
H       -0.17799155      -1.00654949      -2.07078846
H       -1.90619010      -1.71759261       0.64455734
H       -2.31418711      -1.51872862      -0.11865320
H       -2.16992898       1.58920947       0.23930861
H       -1.08738265       0.83863875       1.46476414
H       -0.19640125       1.84746442      -1.28193706
17
Frame=8 idx=011158 GeodesicLength=0.5943396310373905 rxn_smarts="[C:1]1([H:8])([H:9])[C@:2]2([H:10])[C@@:3]1([H:11])[C@:4]1([H:12])[C:5]([H:13])([H:14])[C:6]([H:15])([H:16])[C@:7]21[H:17]>>[C:1]1([H:8])([H:9])[C@@:2]2([H:10])[C@:3]1([H:11])[C:4]([H:12])=[C:5]1[C:6]([H:15])([H:16])[C@@:7]21[H:17].[H:13][H:14]"
C        1.32293917      -0.36371524       1.00463413
C        1.25877201       0.76794372       0.02918955
C        1.28121682      -0.67418972      -0.45396860
C       -0.10793485      -0.59266898      -1.07213350
C       -1.34472745      -0.33318176      -0.39709159
C       -1.34185958       0.91897107       0.41047463
C       -0.13425156       1.05768730      -0.53777238
H        2.28941519      -0.49638231       1.47489722
H        0.48920623      -0.62336620       1.64513142
H        2.06932981       1.48036050      -0.04207759
H        2.10478371      -1.18242666      -0.93891400
H       -0.18712759      -1.03486175      -2.06246440
H       -1.90375549      -1.70307404       0.64839943
H       -2.31465104      -1.51548229      -0.13225965
H       -2.17512443       1.59350043       0.22534293
H       -1.10909840       0.84672810       1.47072903
H       -0.19713256       1.85415783      -1.27211662
17
Frame=9 idx=011158 GeodesicLength=0.668539596627328 rxn_smarts="[C:1]1([H:8])([H:9])[C@:2]2([H:10])[C@@:3]1([H:11])[C@:4]1([H:12])[C:5]([H:13])([H:14])[C:6]([H:15])([H:16])[C@:7]21[H:17]>>[C:1]1([H:8])([H:9])[C@@:2]2([H:10])[C@:3]1([H:11])[C:4]([H:12])=[C:5]1[C:6]([H:15])([H:16])[C@@:7]21[H:17].[H:13][H:14]"
C        1.32749486      -0.36912537       1.00026463
C        1.25687766       0.76765292       0.03177349
C        1.28518450      -0.67257443      -0.46084471
C       -0.10512649      -0.60185216      -1.07311445
C       -1.32748641      -0.33266302      -0.38184331
C       -1.34788525       0.92675057       0.41271286
C       -0.13599318       1.06117136      -0.53089360
H        2.29433810      -0.50064681       1.47007247
H        0.49478344      -0.63572902       1.63935562
H        2.06738142       1.48023846      -0.03824737
H        2.11313962      -1.17240130      -0.94732345
H       -0.19638871      -1.06386029      -2.05302691
H       -1.90151052      -1.68868695       0.65184683
H       -2.31517079      -1.51128691      -0.14633665
H       -2.18033815       1.59732607       0.21118292
H       -1.13148274       0.85473341       1.47646347
H       -0.19781737       1.86095348      -1.26204185
17
Frame=10 idx=011158 GeodesicLength=0.7426894970879048 rxn_smarts="[C:1]1([H:8])([H:9])[C@:2]2([H:10])[C@@:3]1([H:11])[C@:4]1([H:12])[C:5]([H:13])([H:14])[C:6]([H:15])([H:16])[C@:7]21[H:17]>>[C:1]1([H:8])([H:9])[C@@:2]2([H:10])[C@:3]1([H:11])[C:4]([H:12])=[C:5]1[C:6]([H:15])([H:16])[C@@:7]21[H:17].[H:13][H:14]"
C        1.33235681      -0.37449462       0.99580752
C        1.25507707       0.76737125       0.03439216
C        1.28910568      -0.67082832      -0.46777878
C       -0.10244297      -0.61113179      -1.07383618
C       -1.31007129      -0.33200831      -0.36647727
C       -1.35407972       0.93429566       0.41484289
C       -0.13768257       1.06478615      -0.52372235
H        2.29965849      -0.50492275       1.46495012
H        0.50082247      -0.64807878       1.63359898
H        2.06552591       1.48011096      -0.03450522
H        2.12126338      -1.16223082      -0.95592685
H       -0.20574304      -1.09350944      -2.04240330
H       -1.89942604      -1.67438664       0.65491624
H       -2.31576450      -1.50606688      -0.16091864
H       -2.18556313       1.60066673       0.19682039
H       -1.15457667       0.86259676       1.48193230
H       -0.19845989       1.86783084      -1.25169200
17
Frame=11 idx=011158 GeodesicLength=0.8168371471497338 rxn_smarts="[C:1]1([H:8])([H:9])[C@:2]2([H:10])[C@@:3]1([H:11])[C@:4]1([H:12])[C:5]([H:13])([H:14])[C:6]([H:15])([H:16])[C@:7]21[H:17]>>[C:1]1([H:8])([H:9])[C@@:2]2([H:10])[C@:3]1([H:11])[C:4]([H:12])=[C:5]1[C:6]([H:15])([H:16])[C@@:7]21[H:17].[H:13][H:14]"
C        1.33753186      -0.37981833       0.99127857
C        1.25337521       0.76710666       0.03703998
C        1.29296526      -0.66896848      -0.47476974
C       -0.09989618      -0.62053333      -1.07429110
C       -1.29249022      -0.33122416      -0.35100474
C       -1.36044640       0.94160031       0.41686283
C       -0.13931970       1.06854116      -0.51625192
H        2.30538742      -0.50919735       1.45954441
H        0.50733596      -0.66041028       1.62789492
H        2.06377290       1.47998935      -0.03088467
H        2.12912730      -1.15196714      -0.96472474
H       -0.21516422      -1.12373893      -2.03059916
H       -1.89746385      -1.66020557       0.65763992
H       -2.31646085      -1.49980106      -0.17604328
H       -2.19078662       1.60353504       0.18226399
H       -1.17840477       0.87028606       1.48711960
H       -0.19906308       1.87480606      -1.24107487
17
Frame=12 idx=011158 GeodesicLength=0.8909329979293092 rxn_smarts="[C:1]1([H:8])([H:9])[C@:2]2([H:10])[C@@:3]1([H:11])[C@:4]1([H:12])[C:5]([H:13])([H:14])[C:6]([H:15])([H:16])[C@:7]21[H:17]>>[C:1]1([H:8])([H:9])[C@@:2]2([H:10])[C@:3]1([H:11])[C:4]([H:12])=[C:5]1[C:6]([H:15])([H:16])[C@@:7]21[H:17].[H:13][H:14]"
C        1.34302843      -0.38509910       0.98665120
C        1.25177231       0.76684472       0.03972180
C        1.29675565      -0.66697945      -0.48181995
C       -0.09749654      -0.63006029      -1.07444830
C       -1.27475843      -0.33029616      -0.33541747
C       -1.36699652       0.94863751       0.41874915
C       -0.14090381       1.07241457      -0.50846284
H        2.31153899      -0.51347915       1.45380628
H        0.51433626      -0.67273253       1.62220529
H        2.06211817       1.47985513      -0.02736990
H        2.13672564      -1.14156015      -0.97373793
H       -0.22461501      -1.15456108      -2.01747436
H       -1.89558817      -1.64610917       0.66002359
H       -2.31728444      -1.49238471      -0.19172923
H       -2.19599658       1.60590526       0.16749266
H       -1.20301176       0.87775364       1.49196107
H       -0.19962418       1.88185095      -1.23015106
17
Frame=13 idx=011158 GeodesicLength=0.9650436171742994 rxn_smarts="[C:1]1([H:8])([H:9])[C@:2]2([H:10])[C@@:3]1([H:11])[C@:4]1([H:12])[C:5]([H:13])([H:14])[C:6]([H:15])([H:16])[C@:7]21[H:17]>>[C:1]1([H:8])([H:9])[C@@:2]2([H:10])[C@:3]1([H:11])[C:4]([H:12])=[C:5]1[C:6]([H:15])([H:16])[C@@:7]21[H:17].[H:13][H:14]"
C        1.34885041      -0.39034748       0.98194361
C        1.25026816       0.76659558       0.04243676
C        1.30046537      -0.66488375      -0.48893941
C       -0.09525316      -0.63974242      -1.07430496
C       -1.25688849      -0.32924037      -0.31972886
C       -1.37374135       0.95541287       0.42050294
C       -0.14243736       1.07642446      -0.50035381
H        2.31812122      -0.51778120       1.44775288
H        0.52183121      -0.68505879       1.61656872
H        2.06056118       1.47973084      -0.02397772
H        2.14404104      -1.13104946      -0.98299730
H       -0.23405885      -1.18593881      -2.00305023
H       -1.89376088      -1.63210109       0.66213067
H       -2.31822522      -1.48380683      -0.20800330
H       -2.20118412       1.60781678       0.15250013
H       -1.22844405       0.88496744       1.49645791
H       -0.20014511       1.88900224      -1.21893804
17
Frame=14 idx=011158 GeodesicLength=1.03910452062406 rxn_smarts="[C:1]1([H:8])([H:9])[C@:2]2([H:10])[C@@:3]1([H:11])[C@:4]1([H:12])[C:5]([H:13])([H:14])[C:6]([H:15])([H:16])[C@:7]21[H:17]>>[C:1]1([H:8])([H:9])[C@@:2]2([H:10])[C@:3]1([H:11])[C:4]([H:12])=[C:5]1[C:6]([H:15])([H:16])[C@@:7]21[H:17].[H:13][H:14]"
C        1.35500132      -0.39555501       0.97713389
C        1.24886588       0.76633781       0.04518479
C        1.30407582      -0.66267340      -0.49611397
C       -0.09318223      -0.64958189      -1.07381229
C       -1.23889791      -0.32805769      -0.30394185
C       -1.38068528       0.96188972       0.42210255
C       -0.14391932       1.08054272      -0.49190186
H        2.32514202      -0.52208970       1.44134358
H        0.52982904      -0.69737036       1.61095291
H        2.05910825       1.47957711      -0.02072046
H        2.15104403      -1.12042342      -0.99248598
H       -0.24347325      -1.21777646      -1.98726080
H       -1.89194942      -1.61811418       0.66399676
H       -2.31926473      -1.47400355      -0.22488653
H       -2.20632910       1.60923706       0.13726859
H       -1.25474248       0.89184794       1.50053962
H       -0.20062264       1.89621329      -1.20739891
17
Frame=15 idx=011158 GeodesicLength=1.1131453550969261 rxn_smarts="[C:1]1([H:8])([H:9])[C@:2]2([H:10])[C@@:3]1([H:11])[C@:4]1([H:12])[C:5]([H:13])([H:14])[C:6]([H:15])([H:16])[C@:7]21[H:17]>>[C:1]1([H:8])([H:9])[C@@:2]2([H:10])[C@:3]1([H:11])[C:4]([H:12])=[C:5]1[C:6]([H:15])([H:16])[C@@:7]21[H:17].[H:13][H:14]"
C        1.36148307      -0.40073084       0.97221607
C        1.24756472       0.76607046       0.04796927
C        1.30757237      -0.66035083      -0.50335311
C       -0.09129722      -0.65959803      -1.07295401
C       -1.22080700      -0.32673512      -0.28805594
C       -1.38783815       0.96806297       0.42353204
C       -0.14535008       1.08476781      -0.48309304
H        2.33260829      -0.52642290       1.43455747
H        0.53833407      -0.70968436       1.60535410
H        2.05775685       1.47939874      -0.01759114
H        2.15772053      -1.10966579      -1.00223738
H       -0.25281673      -1.25007598      -1.97002231
H       -1.89010153      -1.60417097       0.66564948
H       -2.32041735      -1.46291514      -0.24239636
H       -2.21141424       1.61017923       0.12178371
H       -1.28194429       0.89837642       1.50415383
H       -0.20105329       1.90349433      -1.19551268
17
Frame=16 idx=011158 GeodesicLength=1.1871948296353223 rxn_smarts="[C:1]1([H:8])([H:9])[C@:2]2([H:10])[C@@:3]1([H:11])[C@:4]1([H:12])[C:5]([H:13])([H:14])[C:6]([H:15])([H:16])[C@:7]21[H:17]>>[C:1]1([H:8])([H:9])[C@@:2]2([H:10])[C@:3]1([H:11])[C:4]([H:12])=[C:5]1[C:6]([H:15])([H:16])[C@@:7]21[H:17].[H:13][H:14]"
C        1.36829228      -0.40588424       0.96719667
C        1.24636431       0.76579422       0.05078963
C        1.31093684      -0.65793252      -0.51066204
C       -0.08960899      -0.66980948      -1.07171831
C       -1.20263612      -0.32527884      -0.27208607
C       -1.39521036       0.97393365       0.42478498
C       -0.14673149       1.08910953      -0.47391725
H        2.34051904      -0.53079337       1.42739645
H        0.54734450      -0.72200658       1.59978941
H        2.05650912       1.47919846      -0.01460526
H        2.16404460      -1.09880717      -1.01227049
H       -0.26205510      -1.28278160      -1.95134594
H       -1.88816993      -1.59025228       0.66716254
H       -2.32163674      -1.45053456      -0.26054439
H       -2.21642441       1.61067741       0.10603456
H       -1.31010180       0.90450090       1.50727376
H       -0.20143576       1.91086646      -1.18327824
