19
Frame=0 idx=006731 GeodesicLength=0.0 rxn_smarts="[C:1]([C@@:2]1([H:11])[C:3]([H:12])([H:13])[C:4]([H:14])([H:15])[O:5][C@:6]1([C:7]([H:17])([H:18])[H:19])[H:16])([H:8])([H:9])[H:10]>>[C:1]([C@@:2]1([H:11])[C:3]([H:12])([H:13])[C@@:6]1([O:5][C:4]([H:14])([H:15])[H:16])[C:7]([H:17])([H:18])[H:19])([H:8])([H:9])[H:10]"
C       -0.72080500      -1.74777690      -0.06336631
C       -0.69821767      -0.27734572      -0.54168880
C       -1.67475977       0.53535114       0.15434487
C        0.05836369       1.87386697       0.91934359
O        0.84275665       0.71981680       1.07645459
C        0.75428295       0.29065517      -0.23468129
C        1.94399120      -0.50909075      -0.65041780
H       -1.68631722      -2.20827786      -0.27010168
H        0.04555230      -2.34182828      -0.56550429
H       -0.54223071      -1.79920455       1.01243859
H       -0.82018967      -0.25191770      -1.62660378
H       -1.91119965       0.28629715       1.18222533
H       -2.45292776       1.05526344      -0.39189526
H       -0.65155810       2.05133758       1.72504391
H        0.72204129       2.74157383       0.84685677
H        0.01858077       1.70742174      -0.31340219
H        2.11844414      -1.35666310       0.02477887
H        1.81999568      -0.89032295      -1.66450877
H        2.83419683       0.12084402      -0.61931644
19
Frame=1 idx=006731 GeodesicLength=0.1324391200160965 rxn_smarts="[C:1]([C@@:2]1([H:11])[C:3]([H:12])([H:13])[C:4]([H:14])([H:15])[O:5][C@:6]1([C:7]([H:17])([H:18])[H:19])[H:16])([H:8])([H:9])[H:10]>>[C:1]([C@@:2]1([H:11])[C:3]([H:12])([H:13])[C@@:6]1([O:5][C:4]([H:14])([H:15])[H:16])[C:7]([H:17])([H:18])[H:19])([H:8])([H:9])[H:10]"
C       -0.73479859      -1.76882539      -0.11956779
C       -0.70010541      -0.28284361      -0.53733896
C       -1.64709683       0.51798834       0.21520746
C        0.05265437       1.91397366       0.88063545
O        0.84444175       0.76999515       1.07161391
C        0.74201520       0.28102046      -0.21897466
C        1.94248607      -0.51883579      -0.60334574
H       -1.71004246      -2.20920905      -0.32594540
H        0.00918276      -2.35572428      -0.66210485
H       -0.53509400      -1.86742253       0.94922930
H       -0.84385276      -0.20576112      -1.61662353
H       -1.85923902       0.23474130       1.23975423
H       -2.45464245       1.03407998      -0.29082614
H       -0.64106844       2.11629527       1.69546740
H        0.70491370       2.78830903       0.78716821
H        0.04055011       1.70900715      -0.36867008
H        2.12456124      -1.33919712       0.10219418
H        1.83846024      -0.93816242      -1.60423555
H        2.82667450       0.12057098      -0.59363742
19
Frame=2 idx=006731 GeodesicLength=0.26340332882676176 rxn_smarts="[C:1]([C@@:2]1([H:11])[C:3]([H:12])([H:13])[C:4]([H:14])([H:15])[O:5][C@:6]1([C:7]([H:17])([H:18])[H:19])[H:16])([H:8])([H:9])[H:10]>>[C:1]([C@@:2]1([H:11])[C:3]([H:12])([H:13])[C@@:6]1([O:5][C:4]([H:14])([H:15])[H:16])[C:7]([H:17])([H:18])[H:19])([H:8])([H:9])[H:10]"
C       -0.74897566      -1.78662345      -0.17687036
C       -0.70138556      -0.28752929      -0.53283509
C       -1.61608477       0.49904185       0.27684559
C        0.04461402       1.95218166       0.84081456
O        0.84888817       0.82254785       1.06344986
C        0.73055365       0.27256194      -0.20281160
C        1.94000788      -0.52956434      -0.55478445
H       -1.73387934      -2.20650821      -0.38164844
H       -0.02784375      -2.36314105      -0.75997146
H       -0.52881380      -1.93331776       0.88236602
H       -0.86805707      -0.15888988      -1.60341019
H       -1.80129213       0.18161413       1.29685444
H       -2.45231501       1.00979105      -0.18657384
H       -0.63288130       2.17689062       1.66452232
H        0.68192458       2.83494956       0.72494040
H        0.06281475       1.70773741      -0.42407784
H        2.12744444      -1.32085974       0.18146574
H        1.85560670      -0.98741743      -1.54020022
H        2.81967419       0.11653506      -0.56807544
19
Frame=3 idx=006731 GeodesicLength=0.3931879295299154 rxn_smarts="[C:1]([C@@:2]1([H:11])[C:3]([H:12])([H:13])[C:4]([H:14])([H:15])[O:5][C@:6]1([C:7]([H:17])([H:18])[H:19])[H:16])([H:8])([H:9])[H:10]>>[C:1]([C@@:2]1([H:11])[C:3]([H:12])([H:13])[C@@:6]1([O:5][C:4]([H:14])([H:15])[H:16])[C:7]([H:17])([H:18])[H:19])([H:8])([H:9])[H:10]"
C       -0.76325227      -1.80080232      -0.23508037
C       -0.70204849      -0.29122458      -0.52833604
C       -1.58147609       0.47853787       0.33888204
C        0.03398765       1.98815885       0.80005013
O        0.85592301       0.87708804       1.05135954
C        0.72004135       0.26545843      -0.18671531
C        1.93652419      -0.54129630      -0.50480195
H       -1.75767794      -2.19994044      -0.43664158
H       -0.06560880      -2.36370105      -0.85870938
H       -0.52315274      -1.99622036       0.81188938
H       -0.89298157      -0.11155675      -1.58700873
H       -1.73704277       0.12687063       1.35293499
H       -2.44551918       0.98230908      -0.07943652
H       -0.62722701       2.23271826       1.63257214
H        0.65248074       2.88104646       0.66058562
H        0.08568073       1.70400213      -0.47951561
H        2.12698444      -1.30129911       0.26262102
H        1.87104866      -1.03857482      -1.47201951
H        2.81331606       0.10842597      -0.54262986
19
Frame=4 idx=006731 GeodesicLength=0.522011330269527 rxn_smarts="[C:1]([C@@:2]1([H:11])[C:3]([H:12])([H:13])[C:4]([H:14])([H:15])[O:5][C@:6]1([C:7]([H:17])([H:18])[H:19])[H:16])([H:8])([H:9])[H:10]>>[C:1]([C@@:2]1([H:11])[C:3]([H:12])([H:13])[C@@:6]1([O:5][C:4]([H:14])([H:15])[H:16])[C:7]([H:17])([H:18])[H:19])([H:8])([H:9])[H:10]"
C       -0.77753208      -1.81105469      -0.29384926
C       -0.70210625      -0.29376330      -0.52402413
C       -1.54305038       0.45657153       0.40078478
C        0.02058981       2.02150449       0.75862021
O        0.86521796       0.93302929       1.03481707
C        0.71064176       0.25988807      -0.17131038
C        1.93200899      -0.55395288      -0.45354942
H       -1.78127835      -2.18948266      -0.49029249
H       -0.10402249      -2.35710156      -0.95761832
H       -0.51790847      -2.05536476       0.73805092
H       -0.91883807      -0.06404179      -1.56753468
H       -1.66642007       0.07062458       1.40713996
H       -2.43370621       0.95170616       0.03003262
H       -0.62420535       2.28328863       1.60004139
H        0.61615643       2.92594379       0.59470384
H        0.10941418       1.69826562      -0.53480693
H        2.12314804      -1.28007959       0.34546960
H        1.88426435      -1.09203875      -1.39929137
H        2.80762618       0.09605782      -0.51738340
19
Frame=5 idx=006731 GeodesicLength=0.6502093392632858 rxn_smarts="[C:1]([C@@:2]1([H:11])[C:3]([H:12])([H:13])[C:4]([H:14])([H:15])[O:5][C@:6]1([C:7]([H:17])([H:18])[H:19])[H:16])([H:8])([H:9])[H:10]>>[C:1]([C@@:2]1([H:11])[C:3]([H:12])([H:13])[C@@:6]1([O:5][C:4]([H:14])([H:15])[H:16])[C:7]([H:17])([H:18])[H:19])([H:8])([H:9])[H:10]"
C       -0.79162613      -1.81743721      -0.35271777
C       -0.70173645      -0.29519662      -0.51997233
C       -1.50091837       0.43345235       0.46208957
C        0.00469157       2.05187294       0.71675810
O        0.87596521       0.98982717       1.01377248
C        0.70220127       0.25586626      -0.15702639
C        1.92632221      -0.56722527      -0.40111442
H       -1.80447582      -2.17550657      -0.54211605
H       -0.14247643      -2.34327863      -1.05631372
H       -0.51262029      -2.11044162       0.66129572
H       -0.94586374      -0.01654672      -1.54510795
H       -1.59033791       0.01320444       1.45852772
H       -2.41638094       0.91832807       0.14106027
H       -0.62326507       2.32852070       1.56736857
H        0.57346702       2.96865007       0.52775207
H        0.13409145       1.69092244      -0.58984665
H        2.11624693      -1.25665212       0.42966539
H        1.89460248      -1.14795593      -1.32168659
H        2.80211301       0.07959625      -0.49238802
19
Frame=6 idx=006731 GeodesicLength=0.7780954606817685 rxn_smarts="[C:1]([C@@:2]1([H:11])[C:3]([H:12])([H:13])[C:4]([H:14])([H:15])[O:5][C@:6]1([C:7]([H:17])([H:18])[H:19])[H:16])([H:8])([H:9])[H:10]>>[C:1]([C@@:2]1([H:11])[C:3]([H:12])([H:13])[C@@:6]1([O:5][C:4]([H:14])([H:15])[H:16])[C:7]([H:17])([H:18])[H:19])([H:8])([H:9])[H:10]"
C       -0.80551696      -1.81973791      -0.41128606
C       -0.70095393      -0.29532266      -0.51645209
C       -1.45489630       0.40927083       0.52203977
C       -0.01376465       2.07883288       0.67494495
O        0.88787782       1.04653748       0.98785006
C        0.69497443       0.25351853      -0.14476982
C        1.91948193      -0.58102991      -0.34780535
H       -1.82703669      -2.15815738      -0.59162092
H       -0.18098442      -2.32242586      -1.15348103
H       -0.50745016      -2.16054671       0.58216444
H       -0.97412928       0.03057032      -1.51991314
H       -1.50874436      -0.04516924       1.50619410
H       -2.39317177       0.88240483       0.25284522
H       -0.62446121       2.36786195       1.53502762
H        0.52412515       3.00862256       0.46062340
H        0.15986603       1.68249012      -0.64449996
H        2.10618311      -1.23047627       0.51480995
H        1.90157159      -1.20621316      -1.23887183
H        2.79702966       0.05896961      -0.46779932
19
Frame=7 idx=006731 GeodesicLength=0.905664318552153 rxn_smarts="[C:1]([C@@:2]1([H:11])[C:3]([H:12])([H:13])[C:4]([H:14])([H:15])[O:5][C@:6]1([C:7]([H:17])([H:18])[H:19])[H:16])([H:8])([H:9])[H:10]>>[C:1]([C@@:2]1([H:11])[C:3]([H:12])([H:13])[C@@:6]1([O:5][C:4]([H:14])([H:15])[H:16])[C:7]([H:17])([H:18])[H:19])([H:8])([H:9])[H:10]"
C       -0.81908694      -1.81796907      -0.46902623
C       -0.69980137      -0.29410845      -0.51355897
C       -1.40500954       0.38448332       0.57981491
C       -0.03465597       2.10183744       0.63368478
O        0.90040716       1.10214936       0.95702105
C        0.68913676       0.25287310      -0.13511065
C        1.91157436      -0.59513672      -0.29406755
H       -1.84859904      -2.13794520      -0.63823310
H       -0.21920347      -2.29485697      -1.24763088
H       -0.50245881      -2.20490730       0.50142734
H       -1.00356532       0.07687891      -1.49203436
H       -1.42260534      -0.10394334       1.54927153
H       -2.36344337       0.84494544       0.36398098
H       -0.62800804       2.40064338       1.50350420
H        0.46843576       3.04483994       0.39426124
H        0.18670130       1.67342102      -0.69845813
H        2.09337606      -1.20127427       0.60008024
H        1.90457634      -1.26624604      -1.15089746
H        2.79222948       0.03431544      -0.44402894
19
Frame=8 idx=006731 GeodesicLength=1.0333577888692302 rxn_smarts="[C:1]([C@@:2]1([H:11])[C:3]([H:12])([H:13])[C:4]([H:14])([H:15])[O:5][C@:6]1([C:7]([H:17])([H:18])[H:19])[H:16])([H:8])([H:9])[H:10]>>[C:1]([C@@:2]1([H:11])[C:3]([H:12])([H:13])[C@@:6]1([O:5][C:4]([H:14])([H:15])[H:16])[C:7]([H:17])([H:18])[H:19])([H:8])([H:9])[H:10]"
C       -0.83227082      -1.81248964      -0.52534756
C       -0.69845615      -0.29166786      -0.51138231
C       -1.35156867       0.35941372       0.63460461
C       -0.05746690       2.12070456       0.59363549
O        0.91295416       1.15569522       0.92183866
C        0.68464509       0.25372137      -0.12850352
C        1.90254067      -0.60910722      -0.24031780
H       -1.86905353      -2.11551368      -0.68163977
H       -0.25661078      -2.26154393      -1.33781160
H       -0.49763112      -2.24336311       0.42010648
H       -1.03393293       0.12195640      -1.46175350
H       -1.33315879      -0.16257129       1.58679711
H       -2.32710262       0.80666081       0.47301824
H       -0.63320410       2.42703592       1.47339636
H        0.40739281       3.07649196       0.32950982
H        0.21430596       1.66401297      -0.75157045
H        2.07824433      -1.16854137       0.68447575
H        1.90288916      -1.32705308      -1.05791461
H        2.78748422       0.00615825      -0.42114142
19
Frame=9 idx=006731 GeodesicLength=1.1617170305616331 rxn_smarts="[C:1]([C@@:2]1([H:11])[C:3]([H:12])([H:13])[C:4]([H:14])([H:15])[O:5][C@:6]1([C:7]([H:17])([H:18])[H:19])[H:16])([H:8])([H:9])[H:10]>>[C:1]([C@@:2]1([H:11])[C:3]([H:12])([H:13])[C@@:6]1([O:5][C:4]([H:14])([H:15])[H:16])[C:7]([H:17])([H:18])[H:19])([H:8])([H:9])[H:10]"
C       -0.84481519      -1.80399292      -0.57975943
C       -0.69711191      -0.28843500      -0.50975119
C       -1.29538364       0.33460861       0.68599279
C       -0.08131562       2.13555182       0.55529648
O        0.92470992       1.20668538       0.88356506
C        0.68104645       0.25554084      -0.12454075
C        1.89226809      -0.62245731      -0.18699315
H       -1.88817546      -2.09163691      -0.72191422
H       -0.29245145      -2.22351561      -1.42368594
H       -0.49261304      -2.27639016       0.33904204
H       -1.06482612       0.16549853      -1.42923922
H       -1.24274610      -0.22049416       1.61835291
H       -2.28449555       0.76839946       0.57864626
H       -0.63906280       2.44784855       1.44518263
H        0.34256764       3.10310208       0.26669769
H        0.24255026       1.65424474      -0.80366865
H        2.06179737      -1.13205961       0.76688644
H        1.89605227      -1.38761902      -0.96056289
H        2.78200490      -0.02487931      -0.39954686
19
Frame=10 idx=006731 GeodesicLength=1.290700100474868 rxn_smarts="[C:1]([C@@:2]1([H:11])[C:3]([H:12])([H:13])[C:4]([H:14])([H:15])[O:5][C@:6]1([C:7]([H:17])([H:18])[H:19])[H:16])([H:8])([H:9])[H:10]>>[C:1]([C@@:2]1([H:11])[C:3]([H:12])([H:13])[C@@:6]1([O:5][C:4]([H:14])([H:15])[H:16])[C:7]([H:17])([H:18])[H:19])([H:8])([H:9])[H:10]"
C       -0.85680046      -1.79286528      -0.63164096
C       -0.69579816      -0.28444397      -0.50874552
C       -1.23693898       0.31044826       0.73296580
C       -0.10582726       2.14627609       0.51954441
O        0.93557000       1.25409175       0.84293854
C        0.67852130       0.25808037      -0.12339017
C        1.88101154      -0.63488086      -0.13478709
H       -1.90588157      -2.06700406      -0.75859732
H       -0.32682407      -2.18229641      -1.50388502
H       -0.48778188      -2.30370549       0.25951509
H       -1.09535209       0.20687349      -1.39504457
H       -1.15268440      -0.27695459       1.64332302
H       -2.23611705       0.73125199       0.67890965
H       -0.64544562       2.46292423       1.41934215
H        0.27487128       3.12411539       0.20718524
H        0.27107643       1.64421176      -0.85440380
H        2.04471642      -1.09185145       0.84600179
H        1.88369482      -1.44619647      -0.85972016
H        2.77598972      -0.05807475      -0.37951109
19
Frame=11 idx=006731 GeodesicLength=1.4204022390597608 rxn_smarts="[C:1]([C@@:2]1([H:11])[C:3]([H:12])([H:13])[C:4]([H:14])([H:15])[O:5][C@:6]1([C:7]([H:17])([H:18])[H:19])[H:16])([H:8])([H:9])[H:10]>>[C:1]([C@@:2]1([H:11])[C:3]([H:12])([H:13])[C@@:6]1([O:5][C:4]([H:14])([H:15])[H:16])[C:7]([H:17])([H:18])[H:19])([H:8])([H:9])[H:10]"
C       -0.86814021      -1.77977434      -0.68061640
C       -0.69457117      -0.27998716      -0.50822699
C       -1.17712619       0.28736816       0.77511008
C       -0.13039155       2.15316502       0.48690288
O        0.94530200       1.29746257       0.80109087
C        0.67690684       0.26087764      -0.12449352
C        1.86895820      -0.64611934      -0.08418608
H       -1.92211669      -2.04233076      -0.79155241
H       -0.35970765      -2.13920300      -1.57813980
H       -0.48300620      -2.32578506       0.18235607
H       -1.12464342       0.24569801      -1.35969846
H       -1.06489089      -0.33132928       1.66178225
H       -2.18295389       0.69616094       0.77242753
H       -0.65198539       2.47296106       1.39629603
H        0.20556852       3.13945124       0.15162276
H        0.29973252       1.63374061      -0.90354888
H        2.02810063      -1.04821810       0.92073577
H        1.86580097      -1.50138165      -0.75645157
H        2.76916357      -0.09275656      -0.36141012
19
Frame=12 idx=006731 GeodesicLength=1.5510220396326133 rxn_smarts="[C:1]([C@@:2]1([H:11])[C:3]([H:12])([H:13])[C:4]([H:14])([H:15])[O:5][C@:6]1([C:7]([H:17])([H:18])[H:19])[H:16])([H:8])([H:9])[H:10]>>[C:1]([C@@:2]1([H:11])[C:3]([H:12])([H:13])[C@@:6]1([O:5][C:4]([H:14])([H:15])[H:16])[C:7]([H:17])([H:18])[H:19])([H:8])([H:9])[H:10]"
C       -0.87876400      -1.76534099      -0.72656632
C       -0.69346128      -0.27535360      -0.50804835
C       -1.11684474       0.26567534       0.81233111
C       -0.15454166       2.15672101       0.45770393
O        0.95374883       1.33679950       0.75908883
C        0.67597204       0.26349981      -0.12717388
C        1.85631975      -0.65597551      -0.03548704
H       -1.93683635      -2.01823894      -0.82079667
H       -0.39131585      -2.09522857      -1.64671670
H       -0.47799807      -2.34330652       0.10798612
H       -1.15201080       0.28177145      -1.32376918
H       -0.98090743      -0.38318357       1.67413496
H       -2.12624890       0.66355305       0.85846390
H       -0.65819845       2.47883309       1.37624920
H        0.13579175       3.14932415       0.10036968
H        0.32853154       1.62260484      -0.95101849
H        2.01293731      -1.00140503       0.99036315
H        1.84252109      -1.55226245      -0.65155910
H        2.76130524      -0.12848707      -0.34555514
19
Frame=13 idx=006731 GeodesicLength=1.682641656180969 rxn_smarts="[C:1]([C@@:2]1([H:11])[C:3]([H:12])([H:13])[C:4]([H:14])([H:15])[O:5][C@:6]1([C:7]([H:17])([H:18])[H:19])[H:16])([H:8])([H:9])[H:10]>>[C:1]([C@@:2]1([H:11])[C:3]([H:12])([H:13])[C@@:6]1([O:5][C:4]([H:14])([H:15])[H:16])[C:7]([H:17])([H:18])[H:19])([H:8])([H:9])[H:10]"
C       -0.88848892      -1.75010874      -0.76957964
C       -0.69245962      -0.27082222      -0.50800426
C       -1.05702926       0.24563731       0.84501755
C       -0.17785104       2.15752709       0.43195440
O        0.96075774       1.37248692       0.71771391
C        0.67533216       0.26565958      -0.13061437
C        1.84329787      -0.66451020       0.01119041
H       -1.94989509      -1.99515403      -0.84661881
H       -0.42174437      -2.05082721      -1.71028578
H       -0.47224487      -2.35704076       0.03634158
H       -1.17712242       0.31518256      -1.28766319
H       -0.90197211      -0.43236027       1.68132110
H       -2.06722652       0.63369454       0.93694853
H       -0.66374662       2.48150750       1.35932989
H        0.06612610       3.15427429       0.05319849
H        0.35772409       1.61060692      -0.99685175
H        2.00015901      -0.95181533       1.05450009
H        1.81433076      -1.59852871      -0.54563830
H        2.75205311      -0.16540923      -0.33225987
19
Frame=14 idx=006731 GeodesicLength=1.8151520743678562 rxn_smarts="[C:1]([C@@:2]1([H:11])[C:3]([H:12])([H:13])[C:4]([H:14])([H:15])[O:5][C@:6]1([C:7]([H:17])([H:18])[H:19])[H:16])([H:8])([H:9])[H:10]>>[C:1]([C@@:2]1([H:11])[C:3]([H:12])([H:13])[C@@:6]1([O:5][C:4]([H:14])([H:15])[H:16])[C:7]([H:17])([H:18])[H:19])([H:8])([H:9])[H:10]"
C       -0.89739464      -1.73438900      -0.80979064
C       -0.69157886      -0.26642214      -0.50803917
C       -0.99807520       0.22718781       0.87325445
C       -0.20030367       2.15598869       0.40974574
O        0.96654710       1.40459490       0.67725681
C        0.67509349       0.26721585      -0.13457499
C        1.83010318      -0.67173970       0.05583215
H       -1.96138135      -1.97350505      -0.86906152
H       -0.45162281      -2.00651187      -1.76925920
H       -0.46559444      -2.36742947      -0.03264592
H       -1.19953350       0.34585448      -1.25190546
H       -0.82829856      -0.47863543       1.68382723
H       -2.00693421       0.60664642       1.00782110
H       -0.66848923       2.48156780       1.34544626
H       -0.00293748       3.15459301       0.01046298
H        0.38728462       1.59748366      -1.04108220
H        1.99011013      -0.89979393       1.11292494
H        1.78141500      -1.63937470      -0.43883551
H        2.74159043      -0.20333136      -0.32137704
19
Frame=15 idx=006731 GeodesicLength=1.9485373313340668 rxn_smarts="[C:1]([C@@:2]1([H:11])[C:3]([H:12])([H:13])[C:4]([H:14])([H:15])[O:5][C@:6]1([C:7]([H:17])([H:18])[H:19])[H:16])([H:8])([H:9])[H:10]>>[C:1]([C@@:2]1([H:11])[C:3]([H:12])([H:13])[C@@:6]1([O:5][C:4]([H:14])([H:15])[H:16])[C:7]([H:17])([H:18])[H:19])([H:8])([H:9])[H:10]"
C       -0.90539336      -1.71843731      -0.84748081
C       -0.69081341      -0.26224332      -0.50805980
C       -0.94042277       0.21031593       0.89750007
C       -0.22183950       2.15255857       0.39087766
O        0.97116687       1.43350194       0.63789280
C        0.67513739       0.26807979      -0.13870218
C        1.81686676      -0.67782362       0.09855340
H       -1.97123811      -1.95359975      -0.88826340
H       -0.48136330      -1.96230590      -1.82433720
H       -0.45754187      -2.37498746      -0.09943963
H       -1.21920997       0.37397161      -1.21683870
H       -0.75999309      -0.52194658       1.68249258
H       -1.94624282       0.58226554       1.07155247
H       -0.67236551       2.47969380       1.33449720
H       -0.07116910       3.15079649      -0.02802639
H        0.41745228       1.58302388      -1.08388346
H        1.98302739      -0.84585189       1.16562724
H        1.74413537      -1.67449853      -0.33121395
H        2.72980673      -0.24251319      -0.31274792
19
Frame=16 idx=006731 GeodesicLength=2.0828872442805877 rxn_smarts="[C:1]([C@@:2]1([H:11])[C:3]([H:12])([H:13])[C:4]([H:14])([H:15])[O:5][C@:6]1([C:7]([H:17])([H:18])[H:19])[H:16])([H:8])([H:9])[H:10]>>[C:1]([C@@:2]1([H:11])[C:3]([H:12])([H:13])[C@@:6]1([O:5][C:4]([H:14])([H:15])[H:16])[C:7]([H:17])([H:18])[H:19])([H:8])([H:9])[H:10]"
C       -0.91239452      -1.70242477      -0.88298508
C       -0.69016928      -0.25833984      -0.50802383
C       -0.88436750       0.19497184       0.91821830
C       -0.24247977       2.14764136       0.37511228
O        0.97466120       1.45964146       0.59958516
C        0.67534720       0.26823122      -0.14278954
C        1.80366564      -0.68294171       0.13950241
H       -1.97934789      -1.93574482      -0.90436254
H       -0.51130023      -1.91805387      -1.87616443
H       -0.44748958      -2.38007455      -0.16471688
H       -1.23631525       0.39975734      -1.18268141
H       -0.69687859      -0.56234057       1.67806216
H       -1.88579417       0.56033370       1.12876596
H       -0.67525712       2.47645858       1.32640925
H       -0.13853260       3.14337871      -0.06246162
H        0.44846867       1.56705826      -1.12548814
H        1.97896345      -0.79034261       1.21267205
H        1.70262760      -1.70377446      -0.22248330
H        2.71659274      -0.28343528      -0.30617080
