13
Frame=0 idx=002102 GeodesicLength=0.0 rxn_smarts="[C:1]([c:2]1[c:3]([H:10])[c:4]([H:11])[c:5]([H:12])[n:6]1[H:13])([H:7])([H:8])[H:9]>>[C:1](=[C:2]1[C:3]([H:10])=[C:4]([H:11])[C:5]([H:12])=[N:6]1)([H:7])[H:9].[H:8][H:13]"
C        1.77827962       0.05815247       0.08408022
C        0.38891199       0.19518138      -0.02954883
C       -0.50106169       1.27690719       0.15568987
C       -1.76616841       0.71513154       0.24793500
C       -1.60717129      -0.66541277      -0.00235250
N       -0.32420750      -0.95308235      -0.17223444
H        2.21989093      -0.58660488       0.83296599
H        1.77090982      -1.38096646      -0.77033472
H        2.42626036       0.86970993      -0.24248103
H       -0.22716734       2.30594941       0.33404299
H       -2.70413060       1.23486313       0.37538483
H       -2.38043681      -1.39663203      -0.19379901
H        0.92609098      -1.67319661      -0.61934837
13
Frame=1 idx=002102 GeodesicLength=0.07775572336437034 rxn_smarts="[C:1]([c:2]1[c:3]([H:10])[c:4]([H:11])[c:5]([H:12])[n:6]1[H:13])([H:7])([H:8])[H:9]>>[C:1](=[C:2]1[C:3]([H:10])=[C:4]([H:11])[C:5]([H:12])=[N:6]1)([H:7])[H:9].[H:8][H:13]"
C        1.78636881       0.06247553       0.06867850
C        0.39249415       0.19333088       0.00786614
C       -0.49924270       1.27609124       0.17604202
C       -1.76716014       0.71775698       0.23937685
C       -1.60685457      -0.66294949      -0.01008555
N       -0.31949549      -0.96105165      -0.11380628
H        2.25362020      -0.56901275       0.81393486
H        1.75682833      -1.40704713      -0.78545509
H        2.41082093       0.89510337      -0.25087271
H       -0.22731698       2.30744256       0.34315085
H       -2.70667114       1.23644409       0.35874731
H       -2.37307416      -1.39084838      -0.23891999
H        0.89968275      -1.69773525      -0.60865689
13
Frame=2 idx=002102 GeodesicLength=0.15551529605053022 rxn_smarts="[C:1]([c:2]1[c:3]([H:10])[c:4]([H:11])[c:5]([H:12])[n:6]1[H:13])([H:7])([H:8])[H:9]>>[C:1](=[C:2]1[C:3]([H:10])=[C:4]([H:11])[C:5]([H:12])=[N:6]1)([H:7])[H:9].[H:8][H:13]"
C        1.79303116       0.06664009       0.05391654
C        0.39664571       0.19257765       0.04571684
C       -0.49735510       1.27586130       0.19676535
C       -1.76723989       0.72040840       0.22890356
C       -1.60404016      -0.66139638      -0.01367428
N       -0.31509332      -0.96656684      -0.06060852
H        2.28446148      -0.55356456       0.79375645
H        1.74056954      -1.43244533      -0.80250531
H        2.39540923       0.91959523      -0.25460157
H       -0.22764224       2.30957475       0.35188962
H       -2.70878023       1.23749579       0.33806169
H       -2.36101967      -1.38698925      -0.27794464
H        0.87105349      -1.72119088      -0.59967573
13
Frame=3 idx=002102 GeodesicLength=0.2332753550608147 rxn_smarts="[C:1]([c:2]1[c:3]([H:10])[c:4]([H:11])[c:5]([H:12])[n:6]1[H:13])([H:7])([H:8])[H:9]>>[C:1](=[C:2]1[C:3]([H:10])=[C:4]([H:11])[C:5]([H:12])=[N:6]1)([H:7])[H:9].[H:8][H:13]"
C        1.79831692       0.07080107       0.04088008
C        0.40122799       0.19275129       0.08255389
C       -0.49550258       1.27613453       0.21601145
C       -1.76623873       0.72273949       0.21868829
C       -1.59963501      -0.66049581      -0.01458475
N       -0.31088386      -0.97010709      -0.01468815
H        2.31142372      -0.54022503       0.77433410
H        1.72350557      -1.45682980      -0.82103497
H        2.38076967       0.94308970      -0.25198459
H       -0.22821652       2.31263221       0.35582895
H       -2.70996001       1.23761805       0.31837060
H       -2.34607506      -1.38459949      -0.31111518
H        0.84126790      -1.74350911      -0.59325974
13
Frame=4 idx=002102 GeodesicLength=0.3110696021622611 rxn_smarts="[C:1]([c:2]1[c:3]([H:10])[c:4]([H:11])[c:5]([H:12])[n:6]1[H:13])([H:7])([H:8])[H:9]>>[C:1](=[C:2]1[C:3]([H:10])=[C:4]([H:11])[C:5]([H:12])=[N:6]1)([H:7])[H:9].[H:8][H:13]"
C        1.80247008       0.07532859       0.02917277
C        0.40609798       0.19374775       0.11738740
C       -0.49368018       1.27674915       0.23389828
C       -1.76429934       0.72457862       0.21006082
C       -1.59422842      -0.66002558      -0.01379636
N       -0.30666084      -0.97229854       0.02495895
H        2.33495044      -0.52792883       0.75598671
H        1.70615449      -1.48058420      -0.84052078
H        2.36702177       0.96563984      -0.24461971
H       -0.22885705       2.31605562       0.35657901
H       -2.71029874       1.23713539       0.29897515
H       -2.32944081      -1.38321622      -0.33937069
H        0.81077062      -1.76518159      -0.58871156
13
Frame=5 idx=002102 GeodesicLength=0.3888600508421417 rxn_smarts="[C:1]([c:2]1[c:3]([H:10])[c:4]([H:11])[c:5]([H:12])[n:6]1[H:13])([H:7])([H:8])[H:9]>>[C:1](=[C:2]1[C:3]([H:10])=[C:4]([H:11])[C:5]([H:12])=[N:6]1)([H:7])[H:9].[H:8][H:13]"
C        1.80575990       0.08045684       0.01828330
C        0.41116776       0.19549900       0.14947067
C       -0.49189071       1.27763827       0.25050098
C       -1.76166520       0.72595155       0.20331693
C       -1.58816973      -0.65981779      -0.01201141
N       -0.30229148      -0.97351684       0.05937710
H        2.35556834      -0.51575094       0.73878045
H        1.68881096      -1.50425185      -0.86036400
H        2.35416882       0.98729167      -0.23417170
H       -0.22950251       2.31943782       0.35623626
H       -2.70992117       1.23628066       0.27943668
H       -2.31183317      -1.38249828      -0.36374637
H        0.77979818      -1.78672010      -0.58510889
13
Frame=6 idx=002102 GeodesicLength=0.46666887317884703 rxn_smarts="[C:1]([c:2]1[c:3]([H:10])[c:4]([H:11])[c:5]([H:12])[n:6]1[H:13])([H:7])([H:8])[H:9]>>[C:1](=[C:2]1[C:3]([H:10])=[C:4]([H:11])[C:5]([H:12])=[N:6]1)([H:7])[H:9].[H:8][H:13]"
C        1.80843325       0.08632184       0.00783744
C        0.41639927       0.19795271       0.17859468
C       -0.49014400       1.27878273       0.26583849
C       -1.75853623       0.72691831       0.19837857
C       -1.58165798      -0.65978805      -0.00953076
N       -0.29767913      -0.97400371       0.08942927
H        2.37383690      -0.50319296       0.72257406
H        1.67158060      -1.52819520      -0.88034681
H        2.34214411       1.00817316      -0.22186670
H       -0.23016210       2.32252581       0.35684384
H       -2.70891063       1.23529925       0.25873034
H       -2.29375057      -1.38232110      -0.38462035
H        0.74844650      -1.80847279      -0.58186209
13
Frame=7 idx=002102 GeodesicLength=0.544489121326658 rxn_smarts="[C:1]([c:2]1[c:3]([H:10])[c:4]([H:11])[c:5]([H:12])[n:6]1[H:13])([H:7])([H:8])[H:9]>>[C:1](=[C:2]1[C:3]([H:10])=[C:4]([H:11])[C:5]([H:12])=[N:6]1)([H:7])[H:9].[H:8][H:13]"
C        1.81069156       0.09295926      -0.00222221
C        0.42177178       0.20100449       0.20499873
C       -0.48844469       1.28014265       0.27998148
C       -1.75508033       0.72755996       0.19491734
C       -1.57482302      -0.65986932      -0.00669912
N       -0.29277811      -0.97392832       0.11572476
H        2.39022730      -0.49010152       0.70731932
H        1.65449976      -1.55257976      -0.90040733
H        2.33087889       1.02838235      -0.20829724
H       -0.23089953       2.32542819       0.35876529
H       -2.70729822       1.23418602       0.23715067
H       -2.27550532      -1.38255020      -0.40262632
H        0.71675993      -1.83063379      -0.57860537
13
Frame=8 idx=002102 GeodesicLength=0.6223314933645681 rxn_smarts="[C:1]([c:2]1[c:3]([H:10])[c:4]([H:11])[c:5]([H:12])[n:6]1[H:13])([H:7])([H:8])[H:9]>>[C:1](=[C:2]1[C:3]([H:10])=[C:4]([H:11])[C:5]([H:12])=[N:6]1)([H:7])[H:9].[H:8][H:13]"
C        1.81269794       0.10037857      -0.01183801
C        0.42726538       0.20457842       0.22899795
C       -0.48678787       1.28169226       0.29300540
C       -1.75139713       0.72796001       0.19243257
C       -1.56774159      -0.66000039      -0.00387323
N       -0.28757089      -0.97339984       0.13868480
H        2.40509743      -0.47643618       0.69304769
H        1.63758494      -1.57751818      -0.92052720
H        2.32031919       1.04801791      -0.19377875
H       -0.23174913       2.32826108       0.36175418
H       -2.70518447       1.23287414       0.21556488
H       -2.25729325      -1.38306490      -0.41841065
H        0.68475944      -1.85334291      -0.57505962
13
Frame=9 idx=002102 GeodesicLength=0.7001740425584576 rxn_smarts="[C:1]([c:2]1[c:3]([H:10])[c:4]([H:11])[c:5]([H:12])[n:6]1[H:13])([H:7])([H:8])[H:9]>>[C:1](=[C:2]1[C:3]([H:10])=[C:4]([H:11])[C:5]([H:12])=[N:6]1)([H:7])[H:9].[H:8][H:13]"
C        1.81457879       0.10857372      -0.02088381
C        0.43285126       0.20858639       0.25090793
C       -0.48517770       1.28341005       0.30495437
C       -1.74759134       0.72817002       0.19084997
C       -1.56046678      -0.66011779      -0.00135911
N       -0.28205976      -0.97249872       0.15857973
H        2.41870127      -0.46219441       0.67985528
H        1.62084722      -1.60307357      -0.94069872
H        2.31041791       1.06716257      -0.17841403
H       -0.23275249       2.33113089       0.36501807
H       -2.70256509       1.23119721       0.19497918
H       -2.23921775      -1.38366158      -0.43274317
H        0.65243446      -1.87668478      -0.57104568
13
Frame=10 idx=002102 GeodesicLength=0.7780256761326937 rxn_smarts="[C:1]([c:2]1[c:3]([H:10])[c:4]([H:11])[c:5]([H:12])[n:6]1[H:13])([H:7])([H:8])[H:9]>>[C:1](=[C:2]1[C:3]([H:10])=[C:4]([H:11])[C:5]([H:12])=[N:6]1)([H:7])[H:9].[H:8][H:13]"
C        1.81644150       0.11757498      -0.02940796
C        0.43854484       0.21297462       0.27100258
C       -0.48359475       1.28525645       0.31608984
C       -1.74367945       0.72824233       0.18977895
C       -1.55300799      -0.66021263       0.00077550
N       -0.27621182      -0.97129219       0.17569760
H        2.43133368      -0.44736915       0.66758183
H        1.60416840      -1.62929065      -0.96110519
H        2.30109612       1.08597514      -0.16239018
H       -0.23391292       2.33403227       0.36887170
H       -2.69953468       1.22925621       0.17512308
H       -2.22139385      -1.38437874      -0.44567636
H        0.61975090      -1.90076865      -0.56634139
13
Frame=11 idx=002102 GeodesicLength=0.8558813348737125 rxn_smarts="[C:1]([c:2]1[c:3]([H:10])[c:4]([H:11])[c:5]([H:12])[n:6]1[H:13])([H:7])([H:8])[H:9]>>[C:1](=[C:2]1[C:3]([H:10])=[C:4]([H:11])[C:5]([H:12])=[N:6]1)([H:7])[H:9].[H:8][H:13]"
C        1.81836873       0.12741319      -0.03744431
C        0.44434907       0.21769938       0.28948908
C       -0.48202753       1.28721286       0.32652624
C       -1.73966811       0.72822074       0.18895768
C       -1.54536755      -0.66026871       0.00244617
N       -0.27000178      -0.96982250       0.19022832
H        2.44321395      -0.43192898       0.65612463
H        1.58744493      -1.65624135      -0.98186120
H        2.29228355       1.10458975      -0.14582893
H       -0.23522721       2.33695618       0.37348655
H       -2.69613898       1.22707863       0.15596385
H       -2.20389760      -1.38521183      -0.45737258
H        0.58666854      -1.92569736      -0.56071549
13
Frame=12 idx=002102 GeodesicLength=0.9337378884242031 rxn_smarts="[C:1]([c:2]1[c:3]([H:10])[c:4]([H:11])[c:5]([H:12])[n:6]1[H:13])([H:7])([H:8])[H:9]>>[C:1](=[C:2]1[C:3]([H:10])=[C:4]([H:11])[C:5]([H:12])=[N:6]1)([H:7])[H:9].[H:8][H:13]"
C        1.82041933       0.13813558      -0.04506144
C        0.45027968       0.22271375       0.30656759
C       -0.48046677       1.28924196       0.33648987
C       -1.73555492       0.72812553       0.18825186
C       -1.53753681      -0.66028662       0.00364379
N       -0.26339341      -0.96813156       0.20233335
H        2.45454819      -0.41583612       0.64531355
H        1.57052158      -1.68398735      -1.00312897
H        2.28389450       1.12315214      -0.12884283
H       -0.23670498       2.33989244       0.37914313
H       -2.69235665       1.22472472       0.13711876
H       -2.18678459      -1.38617329      -0.46790938
H        0.55313486      -1.95157118      -0.55391926
13
Frame=13 idx=002102 GeodesicLength=1.0115935876393576 rxn_smarts="[C:1]([c:2]1[c:3]([H:10])[c:4]([H:11])[c:5]([H:12])[n:6]1[H:13])([H:7])([H:8])[H:9]>>[C:1](=[C:2]1[C:3]([H:10])=[C:4]([H:11])[C:5]([H:12])=[N:6]1)([H:7])[H:9].[H:8][H:13]"
C        1.82266328       0.14977617      -0.05224714
C        0.45634326       0.22799729       0.32234351
C       -0.47890316       1.29133899       0.34597618
C       -1.73133620       0.72797336       0.18753187
C       -1.52950232      -0.66024744       0.00423545
N       -0.25635771      -0.96623243       0.21203714
H        2.46545122      -0.39907045       0.63514236
H        1.55331656      -1.71264226      -1.02496904
H        2.27590634       1.14176923      -0.11138913
H       -0.23835271       2.34285979       0.38567254
H       -2.68825482       1.22216797       0.11895708
H       -2.17007863      -1.38721841      -0.47755822
H        0.51910488      -1.97847181      -0.54573259
13
Frame=14 idx=002102 GeodesicLength=1.0894472814991651 rxn_smarts="[C:1]([c:2]1[c:3]([H:10])[c:4]([H:11])[c:5]([H:12])[n:6]1[H:13])([H:7])([H:8])[H:9]>>[C:1](=[C:2]1[C:3]([H:10])=[C:4]([H:11])[C:5]([H:12])=[N:6]1)([H:7])[H:9].[H:8][H:13]"
C        1.82517944       0.16236246      -0.05895549
C        0.46254064       0.23353953       0.33686316
C       -0.47732537       1.29351198       0.35488385
C       -1.72701835       0.72776571       0.18678461
C       -1.52124516      -0.66012116       0.00401881
N       -0.24886825      -0.96412320       0.21927634
H        2.47599732      -0.38160094       0.62569658
H        1.53580283      -1.74238542      -1.04734887
H        2.26831893       1.16052323      -0.09338946
H       -0.24017323       2.34589010       0.39266029
H       -2.68397293       1.21934100       0.10221912
H       -2.15375916      -1.38823359      -0.48677150
H        0.48452329      -2.00646968      -0.53593743
13
Frame=15 idx=002102 GeodesicLength=1.167297624013652 rxn_smarts="[C:1]([c:2]1[c:3]([H:10])[c:4]([H:11])[c:5]([H:12])[n:6]1[H:13])([H:7])([H:8])[H:9]>>[C:1](=[C:2]1[C:3]([H:10])=[C:4]([H:11])[C:5]([H:12])=[N:6]1)([H:7])[H:9].[H:8][H:13]"
C        1.82802057       0.17595122      -0.06524254
C        0.46888941       0.23932401       0.35018385
C       -0.47572238       1.29574556       0.36328228
C       -1.72259356       0.72750157       0.18597953
C       -1.51273531      -0.65989353       0.00287720
N       -0.24088153      -0.96180395       0.22400909
H        2.48630211      -0.36335617       0.61689972
H        1.51787179      -1.77342164      -1.07027945
H        2.26108125       1.17952754      -0.07489186
H       -0.24217725       2.34897626       0.40020903
H       -2.67958297       1.21625327       0.08700909
H       -2.13779526      -1.38915354      -0.49583762
H        0.44932313      -2.03565059      -0.52419830
13
Frame=16 idx=002102 GeodesicLength=1.2451447611847062 rxn_smarts="[C:1]([c:2]1[c:3]([H:10])[c:4]([H:11])[c:5]([H:12])[n:6]1[H:13])([H:7])([H:8])[H:9]>>[C:1](=[C:2]1[C:3]([H:10])=[C:4]([H:11])[C:5]([H:12])=[N:6]1)([H:7])[H:9].[H:8][H:13]"
C        1.83123270       0.19061398      -0.07117919
C        0.47540962       0.24533452       0.36233988
C       -0.47408402       1.29801716       0.37126155
C       -1.71805331       0.72716884       0.18513330
C       -1.50393841      -0.65955312       0.00070183
N       -0.23234441      -0.95926847       0.22613665
H        2.49647405      -0.34425134       0.60865599
H        1.49941747      -1.80599888      -1.09374312
H        2.25413576       1.19890206      -0.05594667
H       -0.24437860       2.35209756       0.40848853
H       -2.67513261       1.21291610       0.07334460
H       -2.12215114      -1.38991006      -0.50502620
H        0.41341289      -2.06606835      -0.51016715
