12
Frame=0 idx=000252 GeodesicLength=0.0 rxn_smarts="[C:1]([N:2]1[C:3]([H:10])([H:11])[C@:4]1([C:5]#[N:6])[H:12])([H:7])([H:8])[H:9]>>[C:1]([N+:2]1([H:10])[C-:3]([H:11])[C@:4]1([C:5]#[N:6])[H:12])([H:7])([H:8])[H:9]"
C       -1.28684185       0.31718057       0.83527697
N        0.02746390       0.57302960       0.27015501
C        0.18473668       0.28711135      -1.42334398
C        0.75468918      -0.53124940      -0.32269617
C        2.19306408      -0.56384637      -0.08660930
N        3.32416533      -0.61839466       0.09125818
H       -1.19088062       0.18499959       1.91368028
H       -1.75088519      -0.57251068       0.39833939
H       -1.93065200       1.17475913       0.64371612
H        0.17573522       1.36487408      -0.52034198
H       -0.79136166      -0.12727815      -1.69802488
H        0.29076697      -1.48867503      -0.10140967
12
Frame=1 idx=000252 GeodesicLength=0.05735123973230846 rxn_smarts="[C:1]([N:2]1[C:3]([H:10])([H:11])[C@:4]1([C:5]#[N:6])[H:12])([H:7])([H:8])[H:9]>>[C:1]([N+:2]1([H:10])[C-:3]([H:11])[C@:4]1([C:5]#[N:6])[H:12])([H:7])([H:8])[H:9]"
C       -1.28808140       0.31602794       0.83454415
N        0.02258745       0.56999665       0.26129844
C        0.17880459       0.28788801      -1.41562829
C        0.75346581      -0.53713593      -0.32194688
C        2.19117545      -0.56291886      -0.08519163
N        3.32247838      -0.61245773       0.09325766
H       -1.18594585       0.18257330       1.91222164
H       -1.75438268      -0.57339083       0.39945200
H       -1.93254948       1.17402079       0.64705322
H        0.19523845       1.37784335      -0.52536716
H       -0.79362018      -0.12750923      -1.70003028
H        0.29082946      -1.49493745      -0.09966286
12
Frame=2 idx=000252 GeodesicLength=0.11470758391163463 rxn_smarts="[C:1]([N:2]1[C:3]([H:10])([H:11])[C@:4]1([C:5]#[N:6])[H:12])([H:7])([H:8])[H:9]>>[C:1]([N+:2]1([H:10])[C-:3]([H:11])[C@:4]1([C:5]#[N:6])[H:12])([H:7])([H:8])[H:9]"
C       -1.28925874       0.31484676       0.83390905
N        0.01769073       0.56713575       0.25247462
C        0.17293104       0.28871021      -1.40803916
C        0.75216828      -0.54285664      -0.32120259
C        2.18917911      -0.56196243      -0.08371730
N        3.32064253      -0.60650869       0.09542837
H       -1.18087795       0.18009238       1.91081137
H       -1.75782242      -0.57425762       0.40060273
H       -1.93444093       1.17321003       0.65056585
H        0.21472698       1.39024529      -0.53068812
H       -0.79576531      -0.12759918      -1.70214793
H        0.29082667      -1.50105586      -0.09799690
12
Frame=3 idx=000252 GeodesicLength=0.1720688785590854 rxn_smarts="[C:1]([N:2]1[C:3]([H:10])([H:11])[C@:4]1([C:5]#[N:6])[H:12])([H:7])([H:8])[H:9]>>[C:1]([N+:2]1([H:10])[C-:3]([H:11])[C@:4]1([C:5]#[N:6])[H:12])([H:7])([H:8])[H:9]"
C       -1.29037832       0.31363777       0.83336725
N        0.01278181       0.56443130       0.24370815
C        0.16711664       0.28957536      -1.40056849
C        0.75080338      -0.54841315      -0.32045681
C        2.18708471      -0.56097320      -0.08218783
N        3.31866958      -0.60055885       0.09775224
H       -1.17570228       0.17755537       1.90944574
H       -1.76120582      -0.57511153       0.40178580
H       -1.93632227       1.17233120       0.65424285
H        0.23418487       1.40210447      -0.53631985
H       -0.79780136      -0.12754400      -1.70436079
H        0.29076907      -1.50703473      -0.09640826
12
Frame=4 idx=000252 GeodesicLength=0.22943474652358642 rxn_smarts="[C:1]([N:2]1[C:3]([H:10])([H:11])[C@:4]1([C:5]#[N:6])[H:12])([H:7])([H:8])[H:9]>>[C:1]([N+:2]1([H:10])[C-:3]([H:11])[C@:4]1([C:5]#[N:6])[H:12])([H:7])([H:8])[H:9]"
C       -1.29144500       0.31240145       0.83291467
N        0.00786780       0.56186826       0.23502185
C        0.16136138       0.29048188      -1.39320730
C        0.74937784      -0.55380760      -0.31970356
C        2.18490157      -0.55994692      -0.08060468
N        3.31657110      -0.59461987       0.10021214
H       -1.17044314       0.17496076       1.90812169
H       -1.76453464      -0.57595348       0.40299595
H       -1.93819017       1.17138826       0.65807329
H        0.25359891       1.41344623      -0.54227772
H       -0.79973247      -0.12734019      -1.70665263
H        0.29066682      -1.51287880      -0.09489369
12
Frame=5 idx=000252 GeodesicLength=0.286804959644808 rxn_smarts="[C:1]([N:2]1[C:3]([H:10])([H:11])[C@:4]1([C:5]#[N:6])[H:12])([H:7])([H:8])[H:9]>>[C:1]([N+:2]1([H:10])[C-:3]([H:11])[C@:4]1([C:5]#[N:6])[H:12])([H:7])([H:8])[H:9]"
C       -1.29246370       0.31113814       0.83254764
N        0.00295510       0.55943172       0.22643659
C        0.15566468       0.29142867      -1.38594613
C        0.74789790      -0.55904334      -0.31893784
C        2.18263827      -0.55888077      -0.07896968
N        3.31435788      -0.58869990       0.10279346
H       -1.16512328       0.17230628       1.90683676
H       -1.76781150      -0.57678404       0.40422814
H       -1.94004106       1.17038552       0.66204753
H        0.27295972       1.42429567      -0.54857767
H       -0.80156296      -0.12698441      -1.70900822
H        0.29052895      -1.51859354      -0.09345060
12
Frame=6 idx=000252 GeodesicLength=0.34418068634363047 rxn_smarts="[C:1]([N:2]1[C:3]([H:10])([H:11])[C@:4]1([C:5]#[N:6])[H:12])([H:7])([H:8])[H:9]>>[C:1]([N+:2]1([H:10])[C-:3]([H:11])[C@:4]1([C:5]#[N:6])[H:12])([H:7])([H:8])[H:9]"
C       -1.29344046       0.30984803       0.83226359
N       -0.00195080       0.55710784       0.21797159
C        0.15002632       0.29241514      -1.37877567
C        0.74636982      -0.56412468      -0.31815545
C        2.18030361      -0.55777258      -0.07728506
N        3.31204105      -0.58280570       0.10548257
H       -1.15976545       0.16958951       1.90559011
H       -1.77104047      -0.57760447       0.40547810
H       -1.94187268       1.16932776       0.66615756
H        0.29226176       1.43467877      -0.55523668
H       -0.80329642      -0.12647383      -1.71141380
H        0.29036373      -1.52418579      -0.09207687
12
Frame=7 idx=000252 GeodesicLength=0.40155655451838496 rxn_smarts="[C:1]([N:2]1[C:3]([H:10])([H:11])[C@:4]1([C:5]#[N:6])[H:12])([H:7])([H:8])[H:9]>>[C:1]([N+:2]1([H:10])[C-:3]([H:11])[C@:4]1([C:5]#[N:6])[H:12])([H:7])([H:8])[H:9]"
C       -1.29437846       0.30853047       0.83205790
N       -0.00684522       0.55488214       0.20964443
C        0.14444281       0.29344221      -1.37168336
C        0.74479837      -0.56905386      -0.31735086
C        2.17790275      -0.55661800      -0.07554921
N        3.30962832      -0.57694564       0.10826631
H       -1.15438651       0.16680582       1.90437727
H       -1.77422240      -0.57841362       0.40673944
H       -1.94368023       1.16821700       0.67039330
H        0.31149913       1.44461560      -0.56227160
H       -0.80493800      -0.12580487      -1.71385413
H        0.29017943      -1.52965726      -0.09076949
12
Frame=8 idx=000252 GeodesicLength=0.45893900964439827 rxn_smarts="[C:1]([N:2]1[C:3]([H:10])([H:11])[C@:4]1([C:5]#[N:6])[H:12])([H:7])([H:8])[H:9]>>[C:1]([N+:2]1([H:10])[C-:3]([H:11])[C@:4]1([C:5]#[N:6])[H:12])([H:7])([H:8])[H:9]"
C       -1.29528283       0.30718687       0.83193156
N       -0.01172309       0.55274279       0.20146704
C        0.13891313       0.29450637      -1.36466552
C        0.74318694      -0.57384144      -0.31652480
C        2.17544193      -0.55542469      -0.07376552
N        3.30712733      -0.57109986       0.11114733
H       -1.14900158       0.16394057       1.90320103
H       -1.77737030      -0.57920763       0.40800802
H       -1.94545740       1.16706475       0.67476020
H        0.33068327       1.45412984      -0.56970740
H       -0.80649394      -0.12497623      -1.71632247
H        0.28997655      -1.53502133      -0.08952948
12
Frame=9 idx=000252 GeodesicLength=0.5163242105719412 rxn_smarts="[C:1]([N:2]1[C:3]([H:10])([H:11])[C@:4]1([C:5]#[N:6])[H:12])([H:7])([H:8])[H:9]>>[C:1]([N+:2]1([H:10])[C-:3]([H:11])[C@:4]1([C:5]#[N:6])[H:12])([H:7])([H:8])[H:9]"
C       -1.29616203       0.30581521       0.83187989
N       -0.01658378       0.55067703       0.19345910
C        0.13343736       0.29561277      -1.35770246
C        0.74154345      -0.57848561      -0.31566944
C        2.17292914      -0.55418072      -0.07193236
N        3.30454927      -0.56529935       0.11409608
H       -1.14363724       0.16100225       1.90205667
H       -1.78047929      -0.57999210       0.40928068
H       -1.94721026       1.16586626       0.67924051
H        0.34980541       1.46324276      -0.57755695
H       -0.80796179      -0.12398287      -1.71879883
H        0.28976976      -1.54027564      -0.08835288
12
Frame=10 idx=000252 GeodesicLength=0.5737195478615933 rxn_smarts="[C:1]([N:2]1[C:3]([H:10])([H:11])[C@:4]1([C:5]#[N:6])[H:12])([H:7])([H:8])[H:9]>>[C:1]([N+:2]1([H:10])[C-:3]([H:11])[C@:4]1([C:5]#[N:6])[H:12])([H:7])([H:8])[H:9]"
C       -1.29701519       0.30441350       0.83190510
N       -0.02141975       0.54867070       0.18562819
C        0.12800715       0.29676136      -1.35079489
C        0.73986575      -0.58300138      -0.31479256
C        2.17036671      -0.55290378      -0.07006836
N        3.30189052      -0.55950093       0.11715111
H       -1.13829370       0.15797758       1.90095010
H       -1.78355944      -0.58076578       0.41055601
H       -1.94892463       1.16463080       0.68384033
H        0.36889032       1.47196976      -0.58585075
H       -0.80936014      -0.12281487      -1.72127896
H        0.28955240      -1.54543696      -0.08724531
12
Frame=11 idx=000252 GeodesicLength=0.6311190125902095 rxn_smarts="[C:1]([N:2]1[C:3]([H:10])([H:11])[C@:4]1([C:5]#[N:6])[H:12])([H:7])([H:8])[H:9]>>[C:1]([N+:2]1([H:10])[C-:3]([H:11])[C@:4]1([C:5]#[N:6])[H:12])([H:7])([H:8])[H:9]"
C       -1.29784601       0.30298312       0.83200635
N       -0.02622872       0.54671072       0.17798337
C        0.12262150       0.29794640      -1.34392942
C        0.73815469      -0.58739964      -0.31389366
C        2.16775559      -0.55160674      -0.06817336
N        3.29915183      -0.55367094       0.12030937
H       -1.13298360       0.15484849       1.89987727
H       -1.78662188      -0.58151745       0.41182369
H       -1.95058980       1.16337024       0.68856937
H        0.38795288       1.48031521      -0.59461293
H       -0.81069083      -0.12146728      -1.72375374
H        0.28932435      -1.55051214      -0.08620631
12
Frame=12 idx=000252 GeodesicLength=0.688525846175875 rxn_smarts="[C:1]([N:2]1[C:3]([H:10])([H:11])[C@:4]1([C:5]#[N:6])[H:12])([H:7])([H:8])[H:9]>>[C:1]([N+:2]1([H:10])[C-:3]([H:11])[C@:4]1([C:5]#[N:6])[H:12])([H:7])([H:8])[H:9]"
C       -1.29865378       0.30152104       0.83218528
N       -0.03101112       0.54479072       0.17052635
C        0.11727448       0.29917084      -1.33710812
C        0.73640923      -0.59168694      -0.31298034
C        2.16509582      -0.55029404      -0.06625806
N        3.29632527      -0.54779677       0.12360602
H       -1.12770182       0.15160724       1.89883954
H       -1.78966555      -0.58225101       0.41308912
H       -1.95220389       1.16208439       0.69343407
H        0.40701397       1.48829766      -0.60387328
H       -0.81196765      -0.11993371      -1.72621569
H        0.28908504      -1.55550943      -0.08524490
12
Frame=13 idx=000252 GeodesicLength=0.7459514810317966 rxn_smarts="[C:1]([N:2]1[C:3]([H:10])([H:11])[C@:4]1([C:5]#[N:6])[H:12])([H:7])([H:8])[H:9]>>[C:1]([N+:2]1([H:10])[C-:3]([H:11])[C@:4]1([C:5]#[N:6])[H:12])([H:7])([H:8])[H:9]"
C       -1.29944626       0.30002175       0.83244337
N       -0.03576529       0.54290748       0.16327123
C        0.11196053       0.30045003      -1.33031609
C        0.73463786      -0.59585320      -0.31204715
C        2.16239940      -0.54893575      -0.06431765
N        3.29342568      -0.54193136       0.12703647
H       -1.12246517       0.14825007       1.89784197
H       -1.79269530      -0.58297731       0.41435146
H       -1.95377161       1.16076644       0.69843101
H        0.42606517       1.49593662      -0.61367738
H       -0.81319081      -0.11821064      -1.72865794
H        0.28884578      -1.56042412      -0.08435930
12
Frame=14 idx=000252 GeodesicLength=0.8033754273508915 rxn_smarts="[C:1]([N:2]1[C:3]([H:10])([H:11])[C@:4]1([C:5]#[N:6])[H:12])([H:7])([H:8])[H:9]>>[C:1]([N+:2]1([H:10])[C-:3]([H:11])[C@:4]1([C:5]#[N:6])[H:12])([H:7])([H:8])[H:9]"
C       -1.30022202       0.29848673       0.83278288
N       -0.04049423       0.54104946       0.15621849
C        0.10667810       0.30177420      -1.32355066
C        0.73283878      -0.59991064      -0.31110438
C        2.15965617      -0.54755147      -0.06236802
N        3.29042919      -0.53602638       0.13063110
H       -1.11726911       0.14476485       1.89688031
H       -1.79571162      -0.58368161       0.41560561
H       -1.95528367       1.15942365       0.70357727
H        0.44513320       1.50323081      -0.62404108
H       -0.81436243      -0.11629788      -1.73106760
H        0.28860764      -1.56526173      -0.08356392
12
Frame=15 idx=000252 GeodesicLength=0.8608108818516931 rxn_smarts="[C:1]([N:2]1[C:3]([H:10])([H:11])[C@:4]1([C:5]#[N:6])[H:12])([H:7])([H:8])[H:9]>>[C:1]([N+:2]1([H:10])[C-:3]([H:11])[C@:4]1([C:5]#[N:6])[H:12])([H:7])([H:8])[H:9]"
C       -1.30099151       0.29691132       0.83320633
N       -0.04519651       0.53921460       0.14938345
C        0.10142346       0.30315915      -1.31679774
C        0.73101648      -0.60385813      -0.31014408
C        2.15688075      -0.54612988      -0.06039638
N        3.28736123      -0.53010205       0.13437346
H       -1.11213403       0.14114377       1.89596417
H       -1.79872526      -0.58437520       0.41685021
H       -1.95674757       1.15805454       0.70886320
H        0.46423099       1.51019290      -0.63500758
H       -0.81549087      -0.11418248      -1.73344137
H        0.28837282      -1.57002853      -0.08285366
12
Frame=16 idx=000252 GeodesicLength=0.9182523972248401 rxn_smarts="[C:1]([N:2]1[C:3]([H:10])([H:11])[C@:4]1([C:5]#[N:6])[H:12])([H:7])([H:8])[H:9]>>[C:1]([N+:2]1([H:10])[C-:3]([H:11])[C@:4]1([C:5]#[N:6])[H:12])([H:7])([H:8])[H:9]"
C       -1.30176505       0.29529265       0.83371370
N       -0.04987499       0.53739782       0.14278179
C        0.09620109       0.30461214      -1.31003920
C        0.72917708      -0.60769260      -0.30915711
C        2.15407502      -0.54466002      -0.05839151
N        3.28422936      -0.52418010       0.13822895
H       -1.10708456       0.13738601       1.89509451
H       -1.80173656      -0.58506128       0.41808050
H       -1.95817148       1.15665420       0.71428094
H        0.48336463       1.51683187      -0.64660158
H       -0.81656495      -0.11185995      -1.73576605
H        0.28815042      -1.57472074      -0.08222493
