15
Frame=0 idx=009716 GeodesicLength=0.0 rxn_smarts="[C:1]([C@@:2]([O:3][H:12])([C@@:4]([O:5][H:14])([C:6](=[O:7])[H:15])[H:13])[H:11])([H:8])([H:9])[H:10]>>[C:1]([C:4]([C:2](=[O:3])[H:11])([C:6](=[O:7])[H:15])[H:13])([H:8])([H:9])[H:10].[O:5]([H:12])[H:14]"
C       -0.94896873       0.86985732      -1.29280234
C       -0.73665949      -0.53532009      -0.41213991
O        0.04392213      -1.42468092      -0.95942210
C       -0.16147459       0.25237855       0.64023488
O        0.57493216      -1.55855720       1.52954392
C        1.25361134       0.73026500       0.53563237
O        1.72006562       1.49096053       1.33918444
H       -1.41989763       0.42013467      -2.16548177
H       -1.61797131       1.61230602      -0.86004883
H       -0.00744109       1.31583381      -1.60692029
H       -1.78372264      -0.82095014      -0.20249689
H        0.54986421      -1.82689606       0.54845425
H       -0.76989271       0.73750316       1.39937265
H        1.48643706      -1.59375278       1.82896801
H        1.81719574       0.33091808      -0.32207834
15
Frame=1 idx=009716 GeodesicLength=0.10332974959627302 rxn_smarts="[C:1]([C@@:2]([O:3][H:12])([C@@:4]([O:5][H:14])([C:6](=[O:7])[H:15])[H:13])[H:11])([H:8])([H:9])[H:10]>>[C:1]([C:4]([C:2](=[O:3])[H:11])([C:6](=[O:7])[H:15])[H:13])([H:8])([H:9])[H:10].[O:5]([H:12])[H:14]"
C       -0.95104020       0.87490552      -1.28634169
C       -0.73167815      -0.55077136      -0.42207812
O        0.05594883      -1.44007573      -0.95851137
C       -0.15988247       0.25054234       0.62768671
O        0.55843566      -1.54947720       1.53817431
C        1.25369128       0.73312222       0.52520470
O        1.74285711       1.43059468       1.37188369
H       -1.45173860       0.43857430      -2.14958321
H       -1.59798026       1.63444182      -0.84954819
H       -0.01140309       1.30265413      -1.63046078
H       -1.77505167      -0.84541056      -0.20727173
H        0.56081387      -1.84131556       0.54425431
H       -0.77208105       0.72479126       1.39044008
H        1.46374917      -1.53946881       1.85889609
H        1.81535957       0.37689294      -0.35274479
15
Frame=2 idx=009716 GeodesicLength=0.20634491533078414 rxn_smarts="[C:1]([C@@:2]([O:3][H:12])([C@@:4]([O:5][H:14])([C:6](=[O:7])[H:15])[H:13])[H:11])([H:8])([H:9])[H:10]>>[C:1]([C:4]([C:2](=[O:3])[H:11])([C:6](=[O:7])[H:15])[H:13])([H:8])([H:9])[H:10].[O:5]([H:12])[H:14]"
C       -0.95252123       0.88010045      -1.27925219
C       -0.72586301      -0.56627958      -0.43209348
O        0.06929576      -1.45534542      -0.95702808
C       -0.15818107       0.24828701       0.61565834
O        0.54152809      -1.54071109       1.54711067
C        1.25400217       0.73542173       0.51582510
O        1.76427660       1.37209659       1.39780816
H       -1.48284306       0.45752105      -2.13194861
H       -1.57673148       1.65658351      -0.83896289
H       -0.01598188       1.28962752      -1.65311273
H       -1.76543814      -0.87018635      -0.21250773
H        0.57152231      -1.85635646       0.54094759
H       -0.77417976       0.71209158       1.38156966
H        1.43857681      -1.48781538       1.88754855
H        1.81253791       0.42496485      -0.38156237
15
Frame=3 idx=009716 GeodesicLength=0.30919264469460916 rxn_smarts="[C:1]([C@@:2]([O:3][H:12])([C@@:4]([O:5][H:14])([C:6](=[O:7])[H:15])[H:13])[H:11])([H:8])([H:9])[H:10]>>[C:1]([C:4]([C:2](=[O:3])[H:11])([C:6](=[O:7])[H:15])[H:13])([H:8])([H:9])[H:10].[O:5]([H:12])[H:14]"
C       -0.95349767       0.88537738      -1.27164330
C       -0.71927369      -0.58183517      -0.44221302
O        0.08381511      -1.47053772      -0.95498193
C       -0.15636972       0.24567974       0.60405598
O        0.52413893      -1.53213927       1.55635388
C        1.25455535       0.73711241       0.50722411
O        1.78478401       1.31530513       1.41786743
H       -1.51324483       0.47680201      -2.11263299
H       -1.55430954       1.67865155      -0.82843628
H       -0.02126515       1.27671014      -1.67500934
H       -1.75495351      -0.89520970      -0.21818625
H        0.58188656      -1.87204189       0.53850171
H       -0.77616550       0.69955293       1.37266221
H        1.41123623      -1.43861480       1.91488523
H        1.80866342       0.47518726      -0.40844745
15
Frame=4 idx=009716 GeodesicLength=0.41198332135449856 rxn_smarts="[C:1]([C@@:2]([O:3][H:12])([C@@:4]([O:5][H:14])([C:6](=[O:7])[H:15])[H:13])[H:11])([H:8])([H:9])[H:10]>>[C:1]([C:4]([C:2](=[O:3])[H:11])([C:6](=[O:7])[H:15])[H:13])([H:8])([H:9])[H:10].[O:5]([H:12])[H:14]"
C       -0.95403116       0.89068883      -1.26361424
C       -0.71196644      -0.59743298      -0.45245560
O        0.09936869      -1.48568695      -0.95238568
C       -0.15445484       0.24277359       0.59281076
O        0.50619865      -1.52365973       1.56588535
C        1.25535927       0.73817082       0.49919389
O        1.80478726       1.25998325       1.43277403
H       -1.54300089       0.49627674      -2.09167174
H       -1.53075508       1.70057765      -0.81810520
H       -0.02730862       1.26383086      -1.69629775
H       -1.74367007      -0.92042057      -0.22429631
H        0.59185516      -1.88839210       0.53686771
H       -0.77802341       0.68729042       1.36365575
H        1.38199881      -1.39165501       1.94088407
H        1.80364267       0.52765518      -0.43324505
15
Frame=5 idx=009716 GeodesicLength=0.5146266882315362 rxn_smarts="[C:1]([C@@:2]([O:3][H:12])([C@@:4]([O:5][H:14])([C:6](=[O:7])[H:15])[H:13])[H:11])([H:8])([H:9])[H:10]>>[C:1]([C:4]([C:2](=[O:3])[H:11])([C:6](=[O:7])[H:15])[H:13])([H:8])([H:9])[H:10].[O:5]([H:12])[H:14]"
C       -0.95413808       0.89603613      -1.25527727
C       -0.70398909      -0.61303802      -0.46280085
O        0.11579103      -1.50086735      -0.94916786
C       -0.15236659       0.23964340       0.58186334
O        0.48775607      -1.51517887       1.57572113
C        1.25655386       0.73856894       0.49161718
O        1.82428456       1.20588244       1.44328838
H       -1.57196111       0.51584211      -2.06918920
H       -1.50626720       1.72227851      -0.80814755
H       -0.03410255       1.25102886      -1.71702887
H       -1.73166423      -0.94567624      -0.23075812
H        0.60126573      -1.90544614       0.53609093
H       -0.77971224       0.67539260       1.35450417
H        1.35127659      -1.34680944       1.96546610
H        1.79727326       0.58234307      -0.45618147
15
Frame=6 idx=009716 GeodesicLength=0.6173285390150945 rxn_smarts="[C:1]([C@@:2]([O:3][H:12])([C@@:4]([O:5][H:14])([C:6](=[O:7])[H:15])[H:13])[H:11])([H:8])([H:9])[H:10]>>[C:1]([C:4]([C:2](=[O:3])[H:11])([C:6](=[O:7])[H:15])[H:13])([H:8])([H:9])[H:10].[O:5]([H:12])[H:14]"
C       -0.95387377       0.90135346      -1.24669488
C       -0.69539682      -0.62866499      -0.47326719
O        0.13297698      -1.51607018      -0.94539209
C       -0.15016814       0.23632092       0.57115024
O        0.46871388      -1.50659625       1.58578663
C        1.25802786       0.73833338       0.48425010
O        1.84379364       1.15259405       1.44975233
H       -1.60026662       0.53538481      -2.04514084
H       -1.48078159       1.74370607      -0.79865681
H       -0.04172020       1.23815161      -1.73733843
H       -1.71899141      -0.97096508      -0.23757960
H        0.61023310      -1.92317587       0.53601354
H       -0.78124025       0.66397617       1.34514597
H        1.31916779      -1.30374631       1.98867476
H        1.78952553       0.63939822      -0.47670373
15
Frame=7 idx=009716 GeodesicLength=0.7200940393772154 rxn_smarts="[C:1]([C@@:2]([O:3][H:12])([C@@:4]([O:5][H:14])([C:6](=[O:7])[H:15])[H:13])[H:11])([H:8])([H:9])[H:10]>>[C:1]([C:4]([C:2](=[O:3])[H:11])([C:6](=[O:7])[H:15])[H:13])([H:8])([H:9])[H:10].[O:5]([H:12])[H:14]"
C       -0.95325227       0.90661884      -1.23794532
C       -0.68624710      -0.64430229      -0.48383735
O        0.15078823      -1.53131391      -0.94104276
C       -0.14786645       0.23284848       0.56063603
O        0.44907344      -1.49781993       1.59605090
C        1.25978416       0.73748621       0.47695860
O        1.86351656       1.09974983       1.45240068
H       -1.62783775       0.55481412      -2.01960792
H       -1.45441002       1.76476470      -0.78976974
H       -0.05016338       1.22518282      -1.75723339
H       -1.70572906      -0.99620610      -0.24472213
H        0.61873844      -1.94159066       0.53658788
H       -0.78259656       0.65312452       1.33555857
H        1.28590851      -1.26224379       2.01047831
H        1.78029325       0.69888715      -0.49451235
15
Frame=8 idx=009716 GeodesicLength=0.8228954425603908 rxn_smarts="[C:1]([C@@:2]([O:3][H:12])([C@@:4]([O:5][H:14])([C:6](=[O:7])[H:15])[H:13])[H:11])([H:8])([H:9])[H:10]>>[C:1]([C:4]([C:2](=[O:3])[H:11])([C:6](=[O:7])[H:15])[H:13])([H:8])([H:9])[H:10].[O:5]([H:12])[H:14]"
C       -0.95228849       0.91180191      -1.22910246
C       -0.67660574      -0.65994116      -0.49449219
O        0.16908020      -1.54660860      -0.93610990
C       -0.14548193       0.22926904       0.55028162
O        0.42885071      -1.48874829       1.60645264
C        1.26179874       0.73608279       0.46960365
O        1.88372424       1.04689993       1.45139223
H       -1.65458758       0.57403493      -1.99268874
H       -1.42725515       1.78533429      -0.78161555
H       -0.05942240       1.21210014      -1.77670452
H       -1.69196152      -1.02132767      -0.25214737
H        0.62679702      -1.96067244       0.53775733
H       -0.78376501       0.64291277       1.32572035
H        1.25169262      -1.22201124       2.03084051
H        1.76942427       0.76087358      -0.50918761
15
Frame=9 idx=009716 GeodesicLength=0.9257072542361864 rxn_smarts="[C:1]([C@@:2]([O:3][H:12])([C@@:4]([O:5][H:14])([C:6](=[O:7])[H:15])[H:13])[H:11])([H:8])([H:9])[H:10]>>[C:1]([C:4]([C:2](=[O:3])[H:11])([C:6](=[O:7])[H:15])[H:13])([H:8])([H:9])[H:10].[O:5]([H:12])[H:14]"
C       -0.95095855       0.91691062      -1.22026248
C       -0.66648912      -0.67555261      -0.50517140
O        0.18772929      -1.56201781      -0.93051617
C       -0.14293595       0.22566874       0.54003264
O        0.40815243      -1.47928652       1.61701499
C        1.26421259       0.73413163       0.46214891
O        1.90423275       0.99361200       1.44718893
H       -1.68030674       0.59297927      -1.96455706
H       -1.39956709       1.80537103      -0.77428117
H       -0.06939151       1.19897582      -1.79574455
H       -1.67772965      -1.04618892      -0.25973101
H        0.63436357      -1.98043384       0.53952859
H       -0.78471215       0.63343396       1.31557406
H        1.21684861      -1.18291139       2.04971349
H        1.75655153       0.82530803      -0.52093775
15
Frame=10 idx=009716 GeodesicLength=1.0286056604139808 rxn_smarts="[C:1]([C@@:2]([O:3][H:12])([C@@:4]([O:5][H:14])([C:6](=[O:7])[H:15])[H:13])[H:11])([H:8])([H:9])[H:10]>>[C:1]([C:4]([C:2](=[O:3])[H:11])([C:6](=[O:7])[H:15])[H:13])([H:8])([H:9])[H:10].[O:5]([H:12])[H:14]"
C       -0.94928576       0.92189432      -1.21149838
C       -0.65601141      -0.69115907      -0.51585511
O        0.20658458      -1.57753403      -0.92429051
C       -0.14034856       0.22205422       0.52988674
O        0.38695121      -1.46932645       1.62767680
C        1.26684435       0.73174202       0.45440337
O        1.92557586       0.93935664       1.43936490
H       -1.70494420       0.61156232      -1.93536080
H       -1.37142670       1.82472391      -0.76791211
H       -0.08004866       1.18576730      -1.81428393
H       -1.66316519      -1.07078912      -0.26745053
H        0.64156254      -2.00081537       0.54179061
H       -0.78546135       0.62475732       1.30516640
H        1.18146560      -1.14455901       2.06705651
H        1.74170770       0.89232500      -0.52869398
15
Frame=11 idx=009716 GeodesicLength=1.1315751339107079 rxn_smarts="[C:1]([C@@:2]([O:3][H:12])([C@@:4]([O:5][H:14])([C:6](=[O:7])[H:15])[H:13])[H:11])([H:8])([H:9])[H:10]>>[C:1]([C:4]([C:2](=[O:3])[H:11])([C:6](=[O:7])[H:15])[H:13])([H:8])([H:9])[H:10].[O:5]([H:12])[H:14]"
C       -0.94726008       0.92674017      -1.20289089
C       -0.64524671      -0.70674779      -0.52648792
O        0.22551588      -1.59316587      -0.91738348
C       -0.13776737       0.21847455       0.51982972
O        0.36533259      -1.45873312       1.63842599
C        1.26963184       0.72902750       0.44630094
O        1.94788562       0.88357309       1.42768859
H       -1.72831675       0.62970615      -1.90534356
H       -1.34306965       1.84327381      -0.76260829
H       -0.09126732       1.17252044      -1.83219402
H       -1.64836479      -1.09505254      -0.27522366
H        0.64842756      -2.02177228       0.54451623
H       -0.78604000       0.61693336       1.29449447
H        1.14578712      -1.10665141       2.08277048
H        1.72475206       0.96187396      -0.53189459
15
Frame=12 idx=009716 GeodesicLength=1.2346261337738638 rxn_smarts="[C:1]([C@@:2]([O:3][H:12])([C@@:4]([O:5][H:14])([C:6](=[O:7])[H:15])[H:13])[H:11])([H:8])([H:9])[H:10]>>[C:1]([C:4]([C:2](=[O:3])[H:11])([C:6](=[O:7])[H:15])[H:13])([H:8])([H:9])[H:10].[O:5]([H:12])[H:14]"
C       -0.94487651       0.93141541      -1.19451961
C       -0.63427795      -0.72230907      -0.53700279
O        0.24440000      -1.60888776      -0.90973741
C       -0.13526471       0.21498184       0.50984583
O        0.34340675      -1.44732026       1.64925276
C        1.27246897       0.72616181       0.43779269
O        1.97128760       0.82557696       1.41176357
H       -1.75023651       0.64733871      -1.87480190
H       -1.31476496       1.86090454      -0.75844942
H       -0.10286201       1.15929960      -1.84933512
H       -1.63342607      -1.11892374      -0.28295508
H        0.65501952      -2.04323356       0.54769676
H       -0.78650758       0.61000439       1.28354425
H        1.11009615      -1.06882433       2.09671584
H        1.70553730       1.03381546      -0.52981036
15
Frame=13 idx=009716 GeodesicLength=1.3377320586368164 rxn_smarts="[C:1]([C@@:2]([O:3][H:12])([C@@:4]([O:5][H:14])([C:6](=[O:7])[H:15])[H:13])[H:11])([H:8])([H:9])[H:10]>>[C:1]([C:4]([C:2](=[O:3])[H:11])([C:6](=[O:7])[H:15])[H:13])([H:8])([H:9])[H:10].[O:5]([H:12])[H:14]"
C       -0.94208024       0.93590224      -1.18646605
C       -0.62315941      -0.73782749      -0.54731728
O        0.26311507      -1.62467781      -0.90128636
C       -0.13283459       0.21168385       0.49990475
O        0.32133243      -1.43490426       1.66019276
C        1.27536210       0.72330460       0.42889064
O        1.99549928       0.76478501       1.39151486
H       -1.77048472       0.66432058      -1.84405747
H       -1.28672768       1.87759305      -0.75539779
H       -0.11454375       1.14624820      -1.86568311
H       -1.61841666      -1.14233874      -0.29049696
H        0.66133156      -2.06517279       0.55138581
H       -0.78688901       0.60406619       1.27228869
H        1.07483169      -1.03092363       2.10873370
H        1.68366393       1.10794100      -0.52220619
15
Frame=14 idx=009716 GeodesicLength=1.4410674089041597 rxn_smarts="[C:1]([C@@:2]([O:3][H:12])([C@@:4]([O:5][H:14])([C:6](=[O:7])[H:15])[H:13])[H:11])([H:8])([H:9])[H:10]>>[C:1]([C:4]([C:2](=[O:3])[H:11])([C:6](=[O:7])[H:15])[H:13])([H:8])([H:9])[H:10].[O:5]([H:12])[H:14]"
C       -0.93887106       0.94020959      -1.17885051
C       -0.61202358      -0.75332859      -0.55734170
O        0.28160868      -1.64050479      -0.89193100
C       -0.13076007       0.20860280       0.49007857
O        0.29925985      -1.42125738       1.67137305
C        1.27792610       0.72077417       0.41964587
O        2.02080781       0.70034004       1.36555726
H       -1.78884459       0.68062646      -1.81359798
H       -1.25929811       1.89326202      -0.75365044
H       -0.12603830       1.13342630      -1.88098806
H       -1.60347685      -1.16534078      -0.29773303
H        0.66743251      -2.08745163       0.55561327
H       -0.78747834       0.59909524       1.26083741
H        1.04042451      -0.99249909       2.11854548
H        1.65933143       1.18404564      -0.50755819
15
Frame=15 idx=009716 GeodesicLength=1.5448700701985718 rxn_smarts="[C:1]([C@@:2]([O:3][H:12])([C@@:4]([O:5][H:14])([C:6](=[O:7])[H:15])[H:13])[H:11])([H:8])([H:9])[H:10]>>[C:1]([C:4]([C:2](=[O:3])[H:11])([C:6](=[O:7])[H:15])[H:13])([H:8])([H:9])[H:10].[O:5]([H:12])[H:14]"
C       -0.93519017       0.94434443      -1.17178174
C       -0.60094350      -0.76880139      -0.56695900
O        0.29988999      -1.65624679      -0.88151335
C       -0.12928643       0.20584385       0.48044486
O        0.27743229      -1.40606992       1.68299999
C        1.27983152       0.71894822       0.41034506
O        2.04702978       0.63120841       1.33262200
H       -1.80502771       0.69616095      -1.78397975
H       -1.23279923       1.90791676      -0.75328234
H       -0.13690968       1.12097971      -1.89509106
H       -1.58866121      -1.18794938      -0.30451960
H        0.67331755      -2.10995943       0.56051843
H       -0.78862361       0.59509794       1.24926727
H        1.00753493      -0.95325569       2.12582449
H        1.63240549       1.26178235      -0.48489527
15
Frame=16 idx=009716 GeodesicLength=1.649373893475006 rxn_smarts="[C:1]([C@@:2]([O:3][H:12])([C@@:4]([O:5][H:14])([C:6](=[O:7])[H:15])[H:13])[H:11])([H:8])([H:9])[H:10]>>[C:1]([C:4]([C:2](=[O:3])[H:11])([C:6](=[O:7])[H:15])[H:13])([H:8])([H:9])[H:10].[O:5]([H:12])[H:14]"
C       -0.93095623       0.94835291      -1.16538725
C       -0.59006017      -0.78424932      -0.57605608
O        0.31789379      -1.67179196      -0.86989730
C       -0.12869447       0.20349795       0.47110305
O        0.25623620      -1.38901863       1.69529675
C        1.28070420       0.71822670       0.40136247
O        2.07338400       0.55713594       1.29154540
H       -1.81881996       0.71092457      -1.75578113
H       -1.20739822       1.92165524      -0.75436285
H       -0.14668832       1.10903342      -1.90792890
H       -1.57407966      -1.21020476      -0.31068427
H        0.67890013      -2.13271215       0.56620860
H       -0.79072231       0.59201886       1.23769353
H        0.97723979      -0.91312314       2.13009204
H        1.60306123       1.34025436      -0.45320408
