12
Frame=0 idx=007503 GeodesicLength=0.0 rxn_smarts="[O:1]=[C:2]([C:3]#[C:4][H:8])[C@@:5]1([H:9])[C:6]([H:10])([H:11])[N:7]1[H:12]>>[O:1]([C@:2]([C:3]#[C:4][H:8])([C@@:5]1([H:9])[C:6]([H:11])=[N:7]1)[H:10])[H:12]"
O       -0.03708420       0.69355606       1.60211874
C        0.28154648       0.21241006       0.43000125
C        1.62463716      -0.22406161       0.22546288
C        2.73385711      -0.60305420      -0.01777910
C       -0.67753898       0.66437612      -0.66660886
C       -1.56852894      -0.45132724      -0.50756875
N       -1.97511694       0.71123138       0.01251349
H        3.72438371      -0.93776191      -0.22133579
H       -0.41854545       1.27166164      -1.52082088
H       -0.65971154      -1.02393983       0.32469800
H       -2.00795807      -1.23820163      -1.10565906
H       -1.01994038       0.92511120       1.44497808
12
Frame=1 idx=007503 GeodesicLength=0.08192185091694923 rxn_smarts="[O:1]=[C:2]([C:3]#[C:4][H:8])[C@@:5]1([H:9])[C:6]([H:10])([H:11])[N:7]1[H:12]>>[O:1]([C@:2]([C:3]#[C:4][H:8])([C@@:5]1([H:9])[C:6]([H:11])=[N:7]1)[H:10])[H:12]"
O       -0.03500725       0.69671473       1.60608926
C        0.28284455       0.19791097       0.44059330
C        1.63049994      -0.22413846       0.22871053
C        2.74209193      -0.59392521      -0.01765965
C       -0.66876106       0.64998848      -0.66247074
C       -1.57987412      -0.45281853      -0.50791274
N       -1.97227206       0.71692094       0.00840125
H        3.73093306      -0.92263982      -0.23845618
H       -0.39744893       1.25482062      -1.51428734
H       -0.66918298      -1.03290139       0.33744309
H       -2.02984118      -1.22378653      -1.11855982
H       -1.03398190       0.93385419       1.43810904
12
Frame=2 idx=007503 GeodesicLength=0.1638083386387621 rxn_smarts="[O:1]=[C:2]([C:3]#[C:4][H:8])[C@@:5]1([H:9])[C:6]([H:10])([H:11])[N:7]1[H:12]>>[O:1]([C@:2]([C:3]#[C:4][H:8])([C@@:5]1([H:9])[C:6]([H:11])=[N:7]1)[H:10])[H:12]"
O       -0.03235974       0.69988036       1.60996963
C        0.28418723       0.18334493       0.45127295
C        1.63627174      -0.22412608       0.23161146
C        2.74993364      -0.58518194      -0.01817428
C       -0.66016682       0.63536789      -0.65807970
C       -1.59115358      -0.45431271      -0.50838241
N       -1.96937008       0.72234015       0.00427020
H        3.73730229      -0.90724244      -0.25484015
H       -0.37683070       1.23776652      -1.50741576
H       -0.67878080      -1.04175652       0.35064297
H       -2.05109777      -1.20884819      -1.13184766
H       -1.04793540       0.94276801       1.43097276
12
Frame=3 idx=007503 GeodesicLength=0.2456600053196788 rxn_smarts="[O:1]=[C:2]([C:3]#[C:4][H:8])[C@@:5]1([H:9])[C:6]([H:10])([H:11])[N:7]1[H:12]>>[O:1]([C@:2]([C:3]#[C:4][H:8])([C@@:5]1([H:9])[C:6]([H:11])=[N:7]1)[H:10])[H:12]"
O       -0.02896795       0.70311303       1.61362967
C        0.28572664       0.16942820       0.46161187
C        1.64227262      -0.22235701       0.23314437
C        2.75787672      -0.57436412      -0.02071395
C       -0.65231168       0.62094218      -0.65337561
C       -1.60207865      -0.45609202      -0.50896789
N       -1.96681555       0.72676810       0.00064538
H        3.74279766      -0.89589382      -0.26809198
H       -0.35797106       1.22142283      -1.50004170
H       -0.68753466      -1.05042164       0.36382039
H       -2.07109071      -1.19382681      -1.14550157
H       -1.06190340       0.95128108       1.42384101
12
Frame=4 idx=007503 GeodesicLength=0.32746646507395727 rxn_smarts="[O:1]=[C:2]([C:3]#[C:4][H:8])[C@@:5]1([H:9])[C:6]([H:10])([H:11])[N:7]1[H:12]>>[O:1]([C@:2]([C:3]#[C:4][H:8])([C@@:5]1([H:9])[C:6]([H:11])=[N:7]1)[H:10])[H:12]"
O       -0.02458098       0.70625475       1.61695334
C        0.28749400       0.15592299       0.47144384
C        1.64835591      -0.21941860       0.23302451
C        2.76569337      -0.56209131      -0.02581584
C       -0.64521850       0.60667964      -0.64842837
C       -1.61293241      -0.45803807      -0.50959745
N       -1.96458666       0.73044063      -0.00236873
H        3.74834731      -0.88737503      -0.27724129
H       -0.34083998       1.20569871      -1.49230908
H       -0.69571017      -1.05894580       0.37696247
H       -2.09036479      -1.17852326      -1.15938399
H       -1.07565709       0.95939537       1.41676059
12
Frame=5 idx=007503 GeodesicLength=0.4092518345628804 rxn_smarts="[O:1]=[C:2]([C:3]#[C:4][H:8])[C@@:5]1([H:9])[C:6]([H:10])([H:11])[N:7]1[H:12]>>[O:1]([C@:2]([C:3]#[C:4][H:8])([C@@:5]1([H:9])[C:6]([H:11])=[N:7]1)[H:10])[H:12]"
O       -0.01962536       0.70937386       1.62020509
C        0.28935193       0.14245430       0.48131431
C        1.65427888      -0.21641146       0.23252003
C        2.77312717      -0.54982801      -0.03172893
C       -0.63834938       0.59228787      -0.64323717
C       -1.62369645      -0.46001628      -0.51036962
N       -1.96240833       0.73381296      -0.00537919
H        3.75388900      -0.87907837      -0.28551318
H       -0.32425292       1.18992224      -1.48428790
H       -0.70392455      -1.06731499       0.39056127
H       -2.10891616      -1.16280385      -1.17355886
H       -1.08947385       0.96760172       1.40947414
12
Frame=6 idx=007503 GeodesicLength=0.4910339268242564 rxn_smarts="[O:1]=[C:2]([C:3]#[C:4][H:8])[C@@:5]1([H:9])[C:6]([H:10])([H:11])[N:7]1[H:12]>>[O:1]([C@:2]([C:3]#[C:4][H:8])([C@@:5]1([H:9])[C:6]([H:11])=[N:7]1)[H:10])[H:12]"
O       -0.01491980       0.71270007       1.62389443
C        0.29103833       0.12854672       0.49225148
C        1.65975686      -0.21482317       0.23394051
C        2.77994024      -0.53966260      -0.03521263
C       -0.63080432       0.57727762      -0.63772835
C       -1.63418117      -0.46186945      -0.51150829
N       -1.95979397       0.73748728      -0.00946698
H        3.75861786      -0.86731953      -0.29885527
H       -0.30627216       1.17297825      -1.47595544
H       -0.71308486      -1.07544883       0.40544357
H       -2.12642684      -1.14655738      -1.18826796
H       -1.10387017       0.97669102       1.40146492
12
Frame=7 idx=007503 GeodesicLength=0.5728355178581983 rxn_smarts="[O:1]=[C:2]([C:3]#[C:4][H:8])[C@@:5]1([H:9])[C:6]([H:10])([H:11])[N:7]1[H:12]>>[O:1]([C@:2]([C:3]#[C:4][H:8])([C@@:5]1([H:9])[C:6]([H:11])=[N:7]1)[H:10])[H:12]"
O       -0.00949745       0.71599464       1.62746907
C        0.29288984       0.11497128       0.50302372
C        1.66518321      -0.21264096       0.23452477
C        2.78655182      -0.52855938      -0.04020696
C       -0.62373549       0.56234635      -0.63194193
C       -1.64449103      -0.46385602      -0.51280227
N       -1.95740956       0.74059504      -0.01331737
H        3.76313161      -0.85741067      -0.31017622
H       -0.28938426       1.15639337      -1.46726699
H       -0.72192077      -1.08335949       0.42059132
H       -2.14295989      -1.13010399      -1.20325340
H       -1.11835802       0.98562983       1.39335627
12
Frame=8 idx=007503 GeodesicLength=0.65456284205397 rxn_smarts="[O:1]=[C:2]([C:3]#[C:4][H:8])[C@@:5]1([H:9])[C:6]([H:10])([H:11])[N:7]1[H:12]>>[O:1]([C@:2]([C:3]#[C:4][H:8])([C@@:5]1([H:9])[C:6]([H:11])=[N:7]1)[H:10])[H:12]"
O       -0.00372861       0.71932205       1.63113666
C        0.29473788       0.10131527       0.51417546
C        1.67030503      -0.21109160       0.23550050
C        2.79265765      -0.51822885      -0.04506081
C       -0.61660632       0.54715596      -0.62584913
C       -1.65462318      -0.46580168      -0.51433988
N       -1.95491020       0.74360969      -0.01753581
H        3.76735981      -0.84635014      -0.32255463
H       -0.27239235       1.13939772      -1.45824915
H       -0.73114416      -1.09097798       0.43651724
H       -2.15854107      -1.11325177      -1.21857919
H       -1.13311447       0.99490134       1.38483875
12
Frame=9 idx=007503 GeodesicLength=0.7363142567913851 rxn_smarts="[O:1]=[C:2]([C:3]#[C:4][H:8])[C@@:5]1([H:9])[C:6]([H:10])([H:11])[N:7]1[H:12]>>[O:1]([C@:2]([C:3]#[C:4][H:8])([C@@:5]1([H:9])[C:6]([H:11])=[N:7]1)[H:10])[H:12]"
O        0.00260618       0.72266141       1.63482309
C        0.29669597       0.08788451       0.52540827
C        1.67527396      -0.20947512       0.23619500
C        2.79846460      -0.50747264      -0.05078118
C       -0.60974544       0.53196223      -0.61944788
C       -1.66454090      -0.46783489      -0.51610512
N       -1.95254277       0.74623001      -0.02177974
H        3.77126243      -0.83616518      -0.33426145
H       -0.25601414       1.12252266      -1.44887433
H       -0.74029579      -1.09830657       0.45293974
H       -2.17303906      -1.09621228      -1.23422939
H       -1.14812503       1.00420585       1.37611299
12
Frame=10 idx=007503 GeodesicLength=0.8180559037212565 rxn_smarts="[O:1]=[C:2]([C:3]#[C:4][H:8])[C@@:5]1([H:9])[C:6]([H:10])([H:11])[N:7]1[H:12]>>[O:1]([C@:2]([C:3]#[C:4][H:8])([C@@:5]1([H:9])[C:6]([H:11])=[N:7]1)[H:10])[H:12]"
O        0.01021676       0.72570489       1.63810343
C        0.29896016       0.07482947       0.53589362
C        1.68015422      -0.20726333       0.23486558
C        2.80390453      -0.49539003      -0.05989354
C       -0.60375334       0.51707394      -0.61284798
C       -1.67453212      -0.46995395      -0.51788909
N       -1.95062245       0.74821400      -0.02527461
H        3.77602756      -0.82837185      -0.34068623
H       -0.24147916       1.10642887      -1.43927809
H       -0.74893303      -1.10540378       0.46931170
H       -2.18697655      -1.07890716      -1.24983974
H       -1.16296659       1.01303892       1.36753496
12
Frame=11 idx=007503 GeodesicLength=0.8998366640993779 rxn_smarts="[O:1]=[C:2]([C:3]#[C:4][H:8])[C@@:5]1([H:9])[C:6]([H:10])([H:11])[N:7]1[H:12]>>[O:1]([C@:2]([C:3]#[C:4][H:8])([C@@:5]1([H:9])[C:6]([H:11])=[N:7]1)[H:10])[H:12]"
O        0.01736887       0.72917443       1.64205504
C        0.30103475       0.06173940       0.54771033
C        1.68469902      -0.20615727       0.23594471
C        2.80897928      -0.48457002      -0.06606529
C       -0.59706849       0.50175313      -0.60574510
C       -1.68387662      -0.47210813      -0.52023066
N       -1.94836278       0.75024305      -0.03000170
H        3.77882267      -0.81862222      -0.35357519
H       -0.22553329       1.08942947      -1.42911769
H       -0.75828030      -1.11200145       0.48709536
H       -2.19894983      -1.06156339      -1.26624223
H       -1.17883329       1.02268301       1.35817240
12
Frame=12 idx=007503 GeodesicLength=0.9816057390580452 rxn_smarts="[O:1]=[C:2]([C:3]#[C:4][H:8])[C@@:5]1([H:9])[C:6]([H:10])([H:11])[N:7]1[H:12]>>[O:1]([C@:2]([C:3]#[C:4][H:8])([C@@:5]1([H:9])[C:6]([H:11])=[N:7]1)[H:10])[H:12]"
O        0.02446679       0.73281183       1.64649858
C        0.30294040       0.04850081       0.56051254
C        1.68886609      -0.20639011       0.23869156
C        2.81362452      -0.47477830      -0.07056534
C       -0.58993847       0.48604475      -0.59817255
C       -1.69277002      -0.47421648      -0.52303034
N       -1.94577528       0.75235282      -0.03565991
H        3.78033089      -0.80681685      -0.37074539
H       -0.20860456       1.07159992      -1.41844952
H       -0.76840493      -1.11811783       0.50606622
H       -2.20936365      -1.04402382      -1.28319357
H       -1.19537178       1.03303327       1.34804772
12
Frame=13 idx=007503 GeodesicLength=1.0634094079691128 rxn_smarts="[O:1]=[C:2]([C:3]#[C:4][H:8])[C@@:5]1([H:9])[C:6]([H:10])([H:11])[N:7]1[H:12]>>[O:1]([C@:2]([C:3]#[C:4][H:8])([C@@:5]1([H:9])[C:6]([H:11])=[N:7]1)[H:10])[H:12]"
O        0.03192174       0.73658593       1.65118317
C        0.30482731       0.03538362       0.57383702
C        1.69277206      -0.20733311       0.24206683
C        2.81779440      -0.46567944      -0.07471937
C       -0.58276293       0.47023599      -0.59015463
C       -1.70129870      -0.47634654      -0.52620148
N       -1.94313719       0.75428413      -0.04176867
H        3.78098506      -0.79422949      -0.38969185
H       -0.19155755       1.05353257      -1.40728972
H       -0.77886157      -1.12370895       0.52592758
H       -2.21823003      -1.02643653      -1.30063494
H       -1.21245258       1.04371183       1.33744605
12
Frame=14 idx=007503 GeodesicLength=1.1452388042994124 rxn_smarts="[O:1]=[C:2]([C:3]#[C:4][H:8])[C@@:5]1([H:9])[C:6]([H:10])([H:11])[N:7]1[H:12]>>[O:1]([C@:2]([C:3]#[C:4][H:8])([C@@:5]1([H:9])[C:6]([H:11])=[N:7]1)[H:10])[H:12]"
O        0.03979624       0.74042628       1.65614300
C        0.30669303       0.02236183       0.58766343
C        1.69642688      -0.20907910       0.24601765
C        2.82154151      -0.45690418      -0.07880677
C       -0.57556607       0.45433572      -0.58167746
C       -1.70944118      -0.47849665      -0.52975660
N       -1.94043576       0.75602980      -0.04831363
H        3.78074639      -0.78104557      -0.41010988
H       -0.17441557       1.03522045      -1.39562115
H       -0.78968937      -1.12876513       0.54663399
H       -2.22559861      -1.00878356      -1.31849898
H       -1.23005750       1.05470012       1.32632639
12
Frame=15 idx=007503 GeodesicLength=1.2270967290628332 rxn_smarts="[O:1]=[C:2]([C:3]#[C:4][H:8])[C@@:5]1([H:9])[C:6]([H:10])([H:11])[N:7]1[H:12]>>[O:1]([C@:2]([C:3]#[C:4][H:8])([C@@:5]1([H:9])[C:6]([H:11])=[N:7]1)[H:10])[H:12]"
O        0.04816303       0.74435755       1.66135752
C        0.30854108       0.00948171       0.60196462
C        1.69982826      -0.21163766       0.25045759
C        2.82477438      -0.44884622      -0.08283981
C       -0.56838664       0.43840958      -0.57272025
C       -1.71718877      -0.48066894      -0.53370402
N       -1.93770152       0.75757966      -0.05526090
H        3.77967382      -0.76705885      -0.43192781
H       -0.15725372       1.01676932      -1.38341571
H       -0.80087628      -1.13321210       0.56819167
H       -2.23136182      -0.99116303      -1.33680030
H       -1.24821180       1.06598897       1.31469740
12
Frame=16 idx=007503 GeodesicLength=1.3089606583981417 rxn_smarts="[O:1]=[C:2]([C:3]#[C:4][H:8])[C@@:5]1([H:9])[C:6]([H:10])([H:11])[N:7]1[H:12]>>[O:1]([C@:2]([C:3]#[C:4][H:8])([C@@:5]1([H:9])[C:6]([H:11])=[N:7]1)[H:10])[H:12]"
O        0.05725979       0.74834999       1.66670030
C        0.31048210      -0.00305147       0.61643144
C        1.70305557      -0.21451105       0.25471424
C        2.82747851      -0.44113641      -0.08767337
C       -0.56147449       0.42268839      -0.56331172
C       -1.72454160      -0.48293137      -0.53800234
N       -1.93513998       0.75873769      -0.06230685
H        3.77806571      -0.75335182      -0.45354205
H       -0.14063333       0.99865043      -1.37068937
H       -0.81208413      -1.13704097       0.59036040
H       -2.23554796      -0.97369826      -1.35543128
H       -1.26692018       1.07729486       1.30275059
