11
Frame=0 idx=010786 GeodesicLength=0.0 rxn_smarts="[O:1]=[C:2]([C:3]1([C:6](=[O:7])[H:11])[C:4]([H:9])([H:10])[O:5]1)[H:8]>>[C+:3](=[C:4]([O-:5])[H:9])[C:6](=[O:7])[H:11].[O:1]=[C:2]([H:8])[H:10]"
O       -1.99626730       0.79678330      -0.48108391
C       -1.06150787       0.73369708       0.36374668
C        0.18481721      -0.06324482      -0.13076997
C        0.07886767      -1.23217394       0.62954743
O       -0.40482311      -1.47996596      -0.51678721
C        1.33062802       0.36265678      -0.97635019
O        1.89707159       1.39313808      -0.75949373
H       -0.65339221       1.63658865       0.86991775
H        0.30167124      -1.85551040       1.48471936
H       -1.28393641       0.03432661       1.31249869
H        1.60687114      -0.32629542      -1.79594492
11
Frame=1 idx=010786 GeodesicLength=0.11527606230246616 rxn_smarts="[O:1]=[C:2]([C:3]1([C:6](=[O:7])[H:11])[C:4]([H:9])([H:10])[O:5]1)[H:8]>>[C+:3](=[C:4]([O-:5])[H:9])[C:6](=[O:7])[H:11].[O:1]=[C:2]([H:8])[H:10]"
O       -2.00194524       0.81830111      -0.49247559
C       -1.07740535       0.75342821       0.35693947
C        0.18054703      -0.07420766      -0.13824582
C        0.06894800      -1.23692111       0.63631789
O       -0.40751694      -1.50725567      -0.50936784
C        1.32169865       0.35676665      -0.97787281
O        1.90643841       1.36599691      -0.70828793
H       -0.65140558       1.65228797       0.85406777
H        0.36510703      -1.84993687       1.47694589
H       -1.29802139       0.03399534       1.31603501
H        1.59355537      -0.31245488      -1.81405603
11
Frame=2 idx=010786 GeodesicLength=0.23062276818428815 rxn_smarts="[O:1]=[C:2]([C:3]1([C:6](=[O:7])[H:11])[C:4]([H:9])([H:10])[O:5]1)[H:8]>>[C+:3](=[C:4]([O-:5])[H:9])[C:6](=[O:7])[H:11].[O:1]=[C:2]([H:8])[H:10]"
O       -2.00655902       0.84031961      -0.50415017
C       -1.09297837       0.77362637       0.35054510
C        0.17663522      -0.08579632      -0.14496550
C        0.05925784      -1.24222933       0.64391690
O       -0.40916149      -1.53529215      -0.50106096
C        1.31317835       0.35087469      -0.97834410
O        1.91350448       1.33800433      -0.65932381
H       -0.64868483       1.66771722       0.83874533
H        0.42709562      -1.84228394       1.46604920
H       -1.31276818       0.03295629       1.31953913
H        1.58048038      -0.29789678      -1.83095111
11
Frame=3 idx=010786 GeodesicLength=0.34603520746182537 rxn_smarts="[O:1]=[C:2]([C:3]1([C:6](=[O:7])[H:11])[C:4]([H:9])([H:10])[O:5]1)[H:8]>>[C+:3](=[C:4]([O-:5])[H:9])[C:6](=[O:7])[H:11].[O:1]=[C:2]([H:8])[H:10]"
O       -2.01008193       0.86266045      -0.51590843
C       -1.10809796       0.79421442       0.34462574
C        0.17320684      -0.09798229      -0.15110145
C        0.05031150      -1.24807721       0.65217870
O       -0.40949453      -1.56413435      -0.49188147
C        1.30502211       0.34507035      -0.97809277
O        1.91835993       1.30967415      -0.61278375
H       -0.64511760       1.68277900       0.82400569
H        0.48613259      -1.83269593       1.45286992
H       -1.32789360       0.03098188       1.32301108
H        1.56765265      -0.28249047      -1.84692325
11
Frame=4 idx=010786 GeodesicLength=0.4614890112183197 rxn_smarts="[O:1]=[C:2]([C:3]1([C:6](=[O:7])[H:11])[C:4]([H:9])([H:10])[O:5]1)[H:8]>>[C+:3](=[C:4]([O-:5])[H:9])[C:6](=[O:7])[H:11].[O:1]=[C:2]([H:8])[H:10]"
O       -2.01251596       0.88526022      -0.52759749
C       -1.12269324       0.81517279       0.33921465
C        0.17030733      -0.11072242      -0.15684528
C        0.04242358      -1.25442581       0.66090777
O       -0.40835693      -1.59381008      -0.48188709
C        1.29716503       0.33943042      -0.97739987
O        1.92115338       1.28140185      -0.56876560
H       -0.64063017       1.69741965       0.80987450
H        0.54131572      -1.82146862       1.43829170
H       -1.34322133       0.02789304       1.32639458
H        1.55505260      -0.26615104      -1.86218786
11
Frame=5 idx=010786 GeodesicLength=0.5769812187426551 rxn_smarts="[O:1]=[C:2]([C:3]1([C:6](=[O:7])[H:11])[C:4]([H:9])([H:10])[O:5]1)[H:8]>>[C+:3](=[C:4]([O-:5])[H:9])[C:6](=[O:7])[H:11].[O:1]=[C:2]([H:8])[H:10]"
O       -2.01389154       0.90815797      -0.53913468
C       -1.13675109       0.83653813       0.33432816
C        0.16791264      -0.12399091      -0.16237756
C        0.03571680      -1.26123315       0.66992434
O       -0.40567429      -1.62433500      -0.47117969
C        1.28954278       0.33396459      -0.97646334
O        1.92203103       1.25343255      -0.52725149
H       -0.63518776       1.71161949       0.79638300
H        0.59235099      -1.80888492       1.42306351
H       -1.35869501       0.02358910       1.32960720
H        1.54264546      -0.24885786      -1.87689944
11
Frame=6 idx=010786 GeodesicLength=0.6925091466234066 rxn_smarts="[O:1]=[C:2]([C:3]1([C:6](=[O:7])[H:11])[C:4]([H:9])([H:10])[O:5]1)[H:8]>>[C+:3](=[C:4]([O-:5])[H:9])[C:6](=[O:7])[H:11].[O:1]=[C:2]([H:8])[H:10]"
O       -2.01424692       0.93144056      -0.55047329
C       -1.15029467       0.85838139       0.32996463
C        0.16596102      -0.13776677      -0.16784001
C        0.03017589      -1.26845850       0.67910339
O       -0.40142147      -1.65571727      -0.45982230
C        1.28208499       0.32866566      -0.97542807
O        1.92116911       1.22591013      -0.48817242
H       -0.62878934       1.72538633       0.78353234
H        0.63933203      -1.79522750       1.40772845
H       -1.37435158       0.01801437       1.33254877
H        1.53038093      -0.23062840      -1.89114148
11
Frame=7 idx=010786 GeodesicLength=0.8080706897010611 rxn_smarts="[O:1]=[C:2]([C:3]1([C:6](=[O:7])[H:11])[C:4]([H:9])([H:10])[O:5]1)[H:8]>>[C+:3](=[C:4]([O-:5])[H:9])[C:6](=[O:7])[H:11].[O:1]=[C:2]([H:8])[H:10]"
O       -2.01360873       0.95521241      -0.56159624
C       -1.16335674       0.88079217       0.32611761
C        0.16437420      -0.15204735      -0.17334451
C        0.02572135      -1.27606577       0.68835632
O       -0.39557835      -1.68797412      -0.44786421
C        1.27471668       0.32349650      -0.97438940
O        1.91871924       1.19888701      -0.45140180
H       -0.62144778       1.73873885       0.77132783
H        0.68255435      -1.78068988       1.39265847
H       -1.39027335       0.01114961       1.33510542
H        1.51817913      -0.21149942      -1.90496948
11
Frame=8 idx=010786 GeodesicLength=0.9236794550423868 rxn_smarts="[O:1]=[C:2]([C:3]1([C:6](=[O:7])[H:11])[C:4]([H:9])([H:10])[O:5]1)[H:8]>>[C+:3](=[C:4]([O-:5])[H:9])[C:6](=[O:7])[H:11].[O:1]=[C:2]([H:8])[H:10]"
O       -2.01199964       0.97958053      -0.57249522
C       -1.17597228       0.90386799       0.32278214
C        0.16307286      -0.16684325      -0.17898250
C        0.02225371      -1.28402910       0.69762219
O       -0.38810911      -1.72113362      -0.43533612
C        1.26736270       0.31841253      -0.97342111
O        1.91482412       1.17235571      -0.41679479
H       -0.61318195       1.75169685       0.75978072
H        0.72237046      -1.76538805       1.37811521
H       -1.40656509       0.00298817       1.33715763
H        1.50594422      -0.19150775      -1.91842816
11
Frame=9 idx=010786 GeodesicLength=1.039347767539663 rxn_smarts="[O:1]=[C:2]([C:3]1([C:6](=[O:7])[H:11])[C:4]([H:9])([H:10])[O:5]1)[H:8]>>[C+:3](=[C:4]([O-:5])[H:9])[C:6](=[O:7])[H:11].[O:1]=[C:2]([H:8])[H:10]"
O       -2.00942136       1.00464228      -0.58316317
C       -1.18816281       0.92770499       0.31995600
C        0.16198742      -0.18217871      -0.18482840
C        0.01967445      -1.29233575       0.70685772
O       -0.37894825      -1.75523647      -0.42224932
C        1.25995297       0.31336362      -0.97257975
O        1.90961273       1.14627327      -0.38420882
H       -0.60400236       1.76427172       0.74890783
H        0.75909863      -1.74936260       1.36430429
H       -1.42333564      -0.00648057       1.33857243
H        1.49354422      -0.17066177      -1.93156881
11
Frame=10 idx=010786 GeodesicLength=1.1550572276696682 rxn_smarts="[O:1]=[C:2]([C:3]1([C:6](=[O:7])[H:11])[C:4]([H:9])([H:10])[O:5]1)[H:8]>>[C+:3](=[C:4]([O-:5])[H:9])[C:6](=[O:7])[H:11].[O:1]=[C:2]([H:8])[H:10]"
O       -2.00585907       1.03049724      -0.59358281
C       -1.19994491       0.95240393       0.31764511
C        0.16104604      -0.19807117      -0.19093852
C        0.01787232      -1.30095450       0.71603954
O       -0.36802905      -1.79030234      -0.40858160
C        1.25240274       0.30831046      -0.97191860
O        1.90316102       1.12061884      -0.35354784
H       -0.59392484       1.77646720       0.73874465
H        0.79307858      -1.73266152       1.35130792
H       -1.44070708      -0.01726167       1.33920331
H        1.48090425      -0.14904647      -1.94437115
11
Frame=11 idx=010786 GeodesicLength=1.2708174734684274 rxn_smarts="[O:1]=[C:2]([C:3]1([C:6](=[O:7])[H:11])[C:4]([H:9])([H:10])[O:5]1)[H:8]>>[C+:3](=[C:4]([O-:5])[H:9])[C:6](=[O:7])[H:11].[O:1]=[C:2]([H:8])[H:10]"
O       -2.00128920       1.05723987      -0.60373235
C       -1.21132253       0.97806512       0.31586272
C        0.16018980      -0.21455345      -0.19736645
C        0.01675625      -1.30987388       0.72514674
O       -0.35524329      -1.82636771      -0.39430676
C        1.24463584       0.30320808      -0.97148703
O        1.89554440       1.09534424      -0.32471874
H       -0.58295549       1.78827727       0.72934171
H        0.82457008      -1.71526041       1.33922009
H       -1.45879734      -0.02937073       1.33888933
H        1.46791149      -0.12670840      -1.95684925
11
Frame=12 idx=010786 GeodesicLength=1.3866304814191885 rxn_smarts="[O:1]=[C:2]([C:3]1([C:6](=[O:7])[H:11])[C:4]([H:9])([H:10])[O:5]1)[H:8]>>[C+:3](=[C:4]([O-:5])[H:9])[C:6](=[O:7])[H:11].[O:1]=[C:2]([H:8])[H:10]"
O       -1.99567210       1.08495495      -0.61358434
C       -1.22228776       1.00478671       0.31462565
C        0.15936812      -0.23166382      -0.20415779
C        0.01623902      -1.31908294       0.73416679
O       -0.34045756      -1.86346307      -0.37937726
C        1.23657830       0.29801349      -0.97133171
O        1.88683160       1.07038817      -0.29764408
H       -0.57109725       1.79968351       0.72075806
H        0.85378728      -1.69710786       1.32811633
H       -1.47772405      -0.04282850       1.33745033
H        1.45443441      -0.10368064      -1.96902199
11
Frame=13 idx=010786 GeodesicLength=1.50250375366646 rxn_smarts="[O:1]=[C:2]([C:3]1([C:6](=[O:7])[H:11])[C:4]([H:9])([H:10])[O:5]1)[H:8]>>[C+:3](=[C:4]([O-:5])[H:9])[C:6](=[O:7])[H:11].[O:1]=[C:2]([H:8])[H:10]"
O       -1.98896126       1.11372111      -0.62309773
C       -1.23282244       1.03266836       0.31395958
C        0.15853730      -0.24944608      -0.21135718
C        0.01623996      -1.32857570       0.74308499
O       -0.32351106      -1.90161298      -0.36373655
C        1.22815451       0.29268594      -0.97150191
O        1.87707647       1.04568736      -0.27226595
H       -0.55835046       1.81065865       0.71306498
H        0.88089180      -1.67812551       1.31806190
H       -1.49759649      -0.05765787       1.33469155
H        1.44034167      -0.08000326      -1.98090369
11
Frame=14 idx=010786 GeodesicLength=1.618447392080028 rxn_smarts="[O:1]=[C:2]([C:3]1([C:6](=[O:7])[H:11])[C:4]([H:9])([H:10])[O:5]1)[H:8]>>[C+:3](=[C:4]([O-:5])[H:9])[C:6](=[O:7])[H:11].[O:1]=[C:2]([H:8])[H:10]"
O       -1.98110272       1.14360742      -0.63221977
C       -1.24289668       1.06181057       0.31389642
C        0.15766096      -0.26795120      -0.21900778
C        0.01668102      -1.33835178       0.75188482
O       -0.30421666      -1.94083333      -0.34731536
C        1.21928931       0.28718448      -0.97204710
O        1.86632459       1.02117292      -0.24854105
H       -0.54471238       1.82116562       0.70634118
H        0.90599562      -1.65821200       1.30911834
H       -1.51851404      -0.07388143       1.33040043
H        1.42549100      -0.05571126      -1.99251012
11
Frame=15 idx=010786 GeodesicLength=1.7344731655053587 rxn_smarts="[O:1]=[C:2]([C:3]1([C:6](=[O:7])[H:11])[C:4]([H:9])([H:10])[O:5]1)[H:8]>>[C+:3](=[C:4]([O-:5])[H:9])[C:6](=[O:7])[H:11].[O:1]=[C:2]([H:8])[H:10]"
O       -1.97204086       1.17466957      -0.64088122
C       -1.25247028       1.09231555       0.31447651
C        0.15670878      -0.28723481      -0.22715367
C        0.01748430      -1.34841572       0.76054289
O       -0.28236615      -1.98112350      -0.33003474
C        1.20990455       0.28147244      -0.97301921
O        1.85460962       0.99677858      -0.22644142
H       -0.53018096       1.83116025       0.70066986
H        0.92916321      -1.63725191       1.30133658
H       -1.54055805      -0.09151706       1.32435255
H        1.40974583      -0.03085339      -2.00384813
11
Frame=16 idx=010786 GeodesicLength=1.8505942760294525 rxn_smarts="[O:1]=[C:2]([C:3]1([C:6](=[O:7])[H:11])[C:4]([H:9])([H:10])[O:5]1)[H:8]>>[C+:3](=[C:4]([O-:5])[H:9])[C:6](=[O:7])[H:11].[O:1]=[C:2]([H:8])[H:10]"
O       -1.96171775       1.20694820      -0.64899835
C       -1.26149183       1.12428722       0.31574726
C        0.15565766      -0.30735823      -0.23583970
C        0.01857032      -1.35877742       0.76902899
O       -0.25773097      -2.02246202      -0.31180276
C        1.19992037       0.27551543      -0.97447104
O        1.84195468       0.97244172      -0.20595260
H       -0.51475553       1.84058896       0.69613853
H        0.95041174      -1.61511965       1.29475846
H       -1.56379024      -0.11057544       1.31631125
H        1.39297154      -0.00548878      -2.01492003
