12
Frame=0 idx=009911 GeodesicLength=0.0 rxn_smarts="[N:1]#[C:2][C:3]12[C:4]([H:8])([H:9])[C:5]([H:10])([C:6]1([H:11])[H:12])[O:7]2>>[N+:1](#[C-:2])[C:3]12[C:4]([H:8])([H:9])[C:5]([H:10])([C:6]1([H:11])[H:12])[O:7]2"
N       -0.18251774       2.37457394       0.35972856
C       -1.25569341       1.91046696       0.54769795
C       -0.24888311       0.55910991       0.25568013
C        1.11841963       0.12638659      -0.29537542
C        0.35749845      -1.08055568       0.27929548
C       -0.92044907      -0.63042998      -0.45218625
O       -0.03242959      -0.24162879       1.43656659
H        1.26427857       0.18036678      -1.37226097
H        1.96923477       0.46600202       0.28762194
H        0.70608670      -2.08463929       0.49793218
H       -0.91674936      -0.63540036      -1.54016635
H       -1.85879589      -0.94425205      -0.00453388
12
Frame=1 idx=009911 GeodesicLength=0.04143476483991473 rxn_smarts="[N:1]#[C:2][C:3]12[C:4]([H:8])([H:9])[C:5]([H:10])([C:6]1([H:11])[H:12])[O:7]2>>[N+:1](#[C-:2])[C:3]12[C:4]([H:8])([H:9])[C:5]([H:10])([C:6]1([H:11])[H:12])[O:7]2"
N       -0.20026780       2.38128612       0.31539806
C       -1.25259391       1.91841035       0.58775914
C       -0.24699241       0.56022400       0.25769796
C        1.12087902       0.12411351      -0.29180502
C        0.35698509      -1.08296590       0.27803373
C       -0.91910960      -0.62771044      -0.45327305
O       -0.03243438      -0.24667855       1.43662416
H        1.26941511       0.18000131      -1.36827425
H        1.97174147       0.46007416       0.29339769
H        0.70377776      -2.08830615       0.49380743
H       -0.91420747      -0.63241340      -1.54131835
H       -1.85719288      -0.94603501      -0.00804750
12
Frame=2 idx=009911 GeodesicLength=0.08296157793679232 rxn_smarts="[N:1]#[C:2][C:3]12[C:4]([H:8])([H:9])[C:5]([H:10])([C:6]1([H:11])[H:12])[O:7]2>>[N+:1](#[C-:2])[C:3]12[C:4]([H:8])([H:9])[C:5]([H:10])([C:6]1([H:11])[H:12])[O:7]2"
N       -0.22135726       2.38645707       0.27030626
C       -1.24642928       1.92748714       0.62797337
C       -0.24501622       0.56118539       0.25994396
C        1.12340413       0.12188523      -0.28807570
C        0.35654398      -1.08547246       0.27665957
C       -0.91773641      -0.62498794      -0.45431697
O       -0.03244218      -0.25209400       1.43674305
H        1.27477117       0.17953397      -1.36410682
H        1.97412178       0.45445716       0.29942700
H        0.70152315      -2.09210119       0.48938278
H       -0.91162728      -0.62921300      -1.54242749
H       -1.85575558      -0.94713738      -0.01150900
12
Frame=3 idx=009911 GeodesicLength=0.12470980378382557 rxn_smarts="[N:1]#[C:2][C:3]12[C:4]([H:8])([H:9])[C:5]([H:10])([C:6]1([H:11])[H:12])[O:7]2>>[N+:1](#[C-:2])[C:3]12[C:4]([H:8])([H:9])[C:5]([H:10])([C:6]1([H:11])[H:12])[O:7]2"
N       -0.24586841       2.38984470       0.22468216
C       -1.23690286       1.93797910       0.66813570
C       -0.24303437       0.56197016       0.26240203
C        1.12595236       0.11971882      -0.28417524
C        0.35616245      -1.08807401       0.27518692
C       -0.91634327      -0.62231565      -0.45533715
O       -0.03254274      -0.25787871       1.43691545
H        1.28030040       0.17907100      -1.35974217
H        1.97633871       0.44914868       0.30573000
H        0.69942748      -2.09598731       0.48465211
H       -0.90898680      -0.62585545      -1.54351321
H       -1.85450293      -0.94762131      -0.01493660
12
Frame=4 idx=009911 GeodesicLength=0.16625467587707696 rxn_smarts="[N:1]#[C:2][C:3]12[C:4]([H:8])([H:9])[C:5]([H:10])([C:6]1([H:11])[H:12])[O:7]2>>[N+:1](#[C-:2])[C:3]12[C:4]([H:8])([H:9])[C:5]([H:10])([C:6]1([H:11])[H:12])[O:7]2"
N       -0.27358084       2.39165752       0.18057769
C       -1.22446591       1.94975133       0.70718341
C       -0.24099116       0.56272300       0.26477382
C        1.12853023       0.11766694      -0.28034196
C        0.35588119      -1.09064089       0.27364411
C       -0.91489653      -0.61971052      -0.45638630
O       -0.03272249      -0.26369930       1.43701037
H        1.28606458       0.17817039      -1.35544078
H        1.97850727       0.44408648       0.31197443
H        0.69734823      -2.09983767       0.47994545
H       -0.90628616      -0.62268128      -1.54462720
H       -1.85338841      -0.94748601      -0.01831303
12
Frame=5 idx=009911 GeodesicLength=0.20774516216115868 rxn_smarts="[N:1]#[C:2][C:3]12[C:4]([H:8])([H:9])[C:5]([H:10])([C:6]1([H:11])[H:12])[O:7]2>>[N+:1](#[C-:2])[C:3]12[C:4]([H:8])([H:9])[C:5]([H:10])([C:6]1([H:11])[H:12])[O:7]2"
N       -0.30386858       2.39155163       0.13792827
C       -1.20883486       1.96330186       0.74480437
C       -0.23914674       0.56331482       0.26715111
C        1.13097055       0.11573154      -0.27645797
C        0.35562808      -1.09320108       0.27208372
C       -0.91347108      -0.61731461      -0.45746373
O       -0.03318343      -0.26965178       1.43707746
H        1.29176367       0.17737989      -1.35106575
H        1.98044784       0.43928485       0.31829358
H        0.69565249      -2.10355957       0.47508009
H       -0.90354634      -0.61976050      -1.54576435
H       -1.85241160      -0.94707704      -0.02166680
12
Frame=6 idx=009911 GeodesicLength=0.2491841403947225 rxn_smarts="[N:1]#[C:2][C:3]12[C:4]([H:8])([H:9])[C:5]([H:10])([C:6]1([H:11])[H:12])[O:7]2>>[N+:1](#[C-:2])[C:3]12[C:4]([H:8])([H:9])[C:5]([H:10])([C:6]1([H:11])[H:12])[O:7]2"
N       -0.33731361       2.38994805       0.09743645
C       -1.19026683       1.97812862       0.78119113
C       -0.23729192       0.56392621       0.26925964
C        1.13341248       0.11392912      -0.27269854
C        0.35545051      -1.09566057       0.27048336
C       -0.91197639      -0.61502140      -0.45866990
O       -0.03380070      -0.27545558       1.43698168
H        1.29772792       0.17604867      -1.34680162
H        1.98235018       0.43464343       0.32450484
H        0.69392188      -2.10714812       0.47043600
H       -0.90066914      -0.61717716      -1.54702394
H       -1.85154438      -0.94616128      -0.02509911
12
Frame=7 idx=009911 GeodesicLength=0.29056852611065664 rxn_smarts="[N:1]#[C:2][C:3]12[C:4]([H:8])([H:9])[C:5]([H:10])([C:6]1([H:11])[H:12])[O:7]2>>[N+:1](#[C-:2])[C:3]12[C:4]([H:8])([H:9])[C:5]([H:10])([C:6]1([H:11])[H:12])[O:7]2"
N       -0.37324738       2.38692175       0.05979647
C       -1.16898474       1.99441583       0.81577920
C       -0.23557618       0.56454394       0.27105413
C        1.13577375       0.11226678      -0.26909052
C        0.35531727      -1.09802017       0.26889797
C       -0.91045348      -0.61292706      -0.46001767
O       -0.03469641      -0.28105142       1.43673023
H        1.30381245       0.17437232      -1.34268317
H        1.98416950       0.43013933       0.33054737
H        0.69232827      -2.11056057       0.46602526
H       -0.89766256      -0.61509954      -1.54842678
H       -1.85078049      -0.94500120      -0.02861249
12
Frame=8 idx=009911 GeodesicLength=0.33186940598616155 rxn_smarts="[N:1]#[C:2][C:3]12[C:4]([H:8])([H:9])[C:5]([H:10])([C:6]1([H:11])[H:12])[O:7]2>>[N+:1](#[C-:2])[C:3]12[C:4]([H:8])([H:9])[C:5]([H:10])([C:6]1([H:11])[H:12])[O:7]2"
N       -0.41122838       2.38246919       0.02522654
C       -1.14507441       2.01224591       0.84825907
C       -0.23409236       0.56513231       0.27255297
C        1.13798275       0.11074567      -0.26559595
C        0.35519584      -1.10026808       0.26736540
C       -0.90892736      -0.61108236      -0.46150896
O       -0.03593086      -0.28642378       1.43633529
H        1.30988498       0.17252712      -1.33865988
H        1.98584928       0.42574751       0.33645180
H        0.69098253      -2.11374394       0.46177158
H       -0.89455299      -0.61355667      -1.54996613
H       -1.85008903      -0.94379288      -0.03223173
12
Frame=9 idx=009911 GeodesicLength=0.37327225147525056 rxn_smarts="[N:1]#[C:2][C:3]12[C:4]([H:8])([H:9])[C:5]([H:10])([C:6]1([H:11])[H:12])[O:7]2>>[N+:1](#[C-:2])[C:3]12[C:4]([H:8])([H:9])[C:5]([H:10])([C:6]1([H:11])[H:12])[O:7]2"
N       -0.45158841       2.37678848      -0.00617597
C       -1.11849022       2.03146378       0.87886618
C       -0.23279429       0.56575297       0.27364894
C        1.14009184       0.10935959      -0.26226145
C        0.35508910      -1.10239384       0.26588249
C       -0.90736301      -0.60945653      -0.46321142
O       -0.03749884      -0.29148645       1.43575633
H        1.31610135       0.17030400      -1.33478091
H        1.98743840       0.42142975       0.34219375
H        0.68974345      -2.11672132       0.45784368
H       -0.89125701      -0.61257481      -1.55171722
H       -1.84947235      -0.94246563      -0.03604440
12
Frame=10 idx=009911 GeodesicLength=0.41469836020235223 rxn_smarts="[N:1]#[C:2][C:3]12[C:4]([H:8])([H:9])[C:5]([H:10])([C:6]1([H:11])[H:12])[O:7]2>>[N+:1](#[C-:2])[C:3]12[C:4]([H:8])([H:9])[C:5]([H:10])([C:6]1([H:11])[H:12])[O:7]2"
N       -0.49425418       2.37024478      -0.03371080
C       -1.08956716       2.05173657       0.90751736
C       -0.23162500       0.56650585       0.27413717
C        1.14213728       0.10809745      -0.25920920
C        0.35499558      -1.10433621       0.26445845
C       -0.90572915      -0.60800976      -0.46520784
O       -0.03937323      -0.29603389       1.43490823
H        1.32256815       0.16740266      -1.33117038
H        1.98899757       0.41714004       0.34763531
H        0.68845499      -2.11943405       0.45454166
H       -0.88770510      -0.61233172      -1.55376329
H       -1.84889975      -0.94098171      -0.04013667
12
Frame=11 idx=009911 GeodesicLength=0.4558458878098745 rxn_smarts="[N:1]#[C:2][C:3]12[C:4]([H:8])([H:9])[C:5]([H:10])([C:6]1([H:11])[H:12])[O:7]2>>[N+:1](#[C-:2])[C:3]12[C:4]([H:8])([H:9])[C:5]([H:10])([C:6]1([H:11])[H:12])[O:7]2"
N       -0.53757378       2.36272969      -0.05720494
C       -1.05899151       2.07340188       0.93308868
C       -0.23078938       0.56723169       0.27433103
C        1.14395521       0.10694354      -0.25628069
C        0.35486182      -1.10615943       0.26318138
C       -0.90412762      -0.60686562      -0.46733646
O       -0.04162971      -0.30024457       1.43396145
H        1.32880476       0.16456291      -1.32766944
H        1.99040669       0.41286762       0.35286975
H        0.68751264      -2.12189572       0.45133891
H       -0.88411698      -0.61268500      -1.55593288
H       -1.84831214      -0.93988698      -0.04434679
12
Frame=12 idx=009911 GeodesicLength=0.497115749768749 rxn_smarts="[N:1]#[C:2][C:3]12[C:4]([H:8])([H:9])[C:5]([H:10])([C:6]1([H:11])[H:12])[O:7]2>>[N+:1](#[C-:2])[C:3]12[C:4]([H:8])([H:9])[C:5]([H:10])([C:6]1([H:11])[H:12])[O:7]2"
N       -0.58363746       2.35463432      -0.07650480
C       -1.02589593       2.09574214       0.95702467
C       -0.23001851       0.56817856       0.27366983
C        1.14575452       0.10589842      -0.25369994
C        0.35470167      -1.10772220       0.26194777
C       -0.90241047      -0.60584627      -0.46990679
O       -0.04420527      -0.30373766       1.43259657
H        1.33548336       0.16071112      -1.32445412
H        1.99179830       0.40862479       0.35777447
H        0.68630262      -2.12398390       0.44911843
H       -0.88012119      -0.61395759      -1.55851149
H       -1.84775164      -0.93854172      -0.04905461
12
Frame=13 idx=009911 GeodesicLength=0.5383139281083543 rxn_smarts="[N:1]#[C:2][C:3]12[C:4]([H:8])([H:9])[C:5]([H:10])([C:6]1([H:11])[H:12])[O:7]2>>[N+:1](#[C-:2])[C:3]12[C:4]([H:8])([H:9])[C:5]([H:10])([C:6]1([H:11])[H:12])[O:7]2"
N       -0.63058903       2.34551758      -0.09194750
C       -0.99115052       2.11947125       0.97778381
C       -0.22952642       0.56909852       0.27281169
C        1.14737802       0.10493345      -0.25116678
C        0.35449197      -1.10919284       0.26087812
C       -0.90070343      -0.60506533      -0.47259759
O       -0.04713169      -0.30694789       1.43118848
H        1.34200391       0.15695430      -1.32125644
H        1.99309030       0.40432090       0.36257334
H        0.68536630      -2.12590527       0.44685704
H       -0.87606238      -0.61561892      -1.56119913
H       -1.84716703      -0.93756574      -0.05392506
12
Frame=14 idx=009911 GeodesicLength=0.5794996252041607 rxn_smarts="[N:1]#[C:2][C:3]12[C:4]([H:8])([H:9])[C:5]([H:10])([C:6]1([H:11])[H:12])[O:7]2>>[N+:1](#[C-:2])[C:3]12[C:4]([H:8])([H:9])[C:5]([H:10])([C:6]1([H:11])[H:12])[O:7]2"
N       -0.67946780       2.33618218      -0.10242957
C       -0.95464906       2.14366526       0.99634998
C       -0.22911467       0.57028991       0.27102695
C        1.14897775       0.10403582      -0.24903671
C        0.35421514      -1.11039258       0.25989209
C       -0.89889776      -0.60438218      -0.47575302
O       -0.05039827      -0.30932927       1.42936070
H        1.34891967       0.15219018      -1.31840044
H        1.99437425       0.40002642       0.36695459
H        0.68418682      -2.12743010       0.44566372
H       -0.87158258      -0.61833579      -1.56431593
H       -1.84656350      -0.93651985      -0.05931237
12
Frame=15 idx=009911 GeodesicLength=0.6209419696640096 rxn_smarts="[N:1]#[C:2][C:3]12[C:4]([H:8])([H:9])[C:5]([H:10])([C:6]1([H:11])[H:12])[O:7]2>>[N+:1](#[C-:2])[C:3]12[C:4]([H:8])([H:9])[C:5]([H:10])([C:6]1([H:11])[H:12])[O:7]2"
N       -0.73013262       2.32571274      -0.10881191
C       -0.91614410       2.16917772       1.01179019
C       -0.22886349       0.57152496       0.26893943
C        1.15050283       0.10317840      -0.24696322
C        0.35387799      -1.11147858       0.25906062
C       -0.89703333      -0.60384002      -0.47912430
O       -0.05399977      -0.31134223       1.42743365
H        1.35592387       0.14725853      -1.31553845
H        1.99562546       0.39560782       0.37127534
H        0.68307460      -2.12880157       0.44458861
H       -0.86688611      -0.62139154      -1.56762482
H       -1.84594533      -0.93560623      -0.06502515
12
Frame=16 idx=009911 GeodesicLength=0.6627317863028859 rxn_smarts="[N:1]#[C:2][C:3]12[C:4]([H:8])([H:9])[C:5]([H:10])([C:6]1([H:11])[H:12])[O:7]2>>[N+:1](#[C-:2])[C:3]12[C:4]([H:8])([H:9])[C:5]([H:10])([C:6]1([H:11])[H:12])[O:7]2"
N       -0.78309368       2.31454093      -0.11007105
C       -0.87554582       2.19558777       1.02438424
C       -0.22869230       0.57298557       0.26609668
C        1.15202017       0.10235205      -0.24515544
C        0.35344631      -1.11235397       0.25834779
C       -0.89505139      -0.60337598      -0.48294296
O       -0.05798402      -0.31264666       1.42518938
H        1.36331124       0.14156265      -1.31286056
H        1.99685900       0.39113535       0.37536298
H        0.68176854      -2.12988153       0.44429794
H       -0.86173929      -0.62525213      -1.57134547
H       -1.84529877      -0.93465404      -0.07130352
