11
Frame=0 idx=004447 GeodesicLength=0.0 rxn_smarts="[N:1]1([H:7])[C@@:2]2([H:8])[C@:3]1([H:9])[C@@:4]1([H:10])[O:5][C@@:6]21[H:11]>>[N:1]1([H:7])[C@@:2]2([H:8])[C@:3]1([H:9])[C:4]([H:10])([H:11])[O+:5]=[C-:6]2"
N        1.18546322       0.31351497       0.95015937
C        0.06380179       1.05611373       0.40397863
C        0.80217258       0.07612028      -0.40921229
C       -0.40579588      -0.87663401      -0.54918104
O       -0.97376503      -1.02523251       0.71333874
C       -1.31848566       0.30491868       0.35639900
H        0.87568143      -0.42809387       1.57065228
H        0.10561874       2.13346383       0.36417736
H        1.49451906       0.26450133      -1.21736374
H       -0.52193573      -1.72947428      -1.20998135
H       -1.30727447      -0.08919819      -0.97296692
11
Frame=1 idx=004447 GeodesicLength=0.05079619827342516 rxn_smarts="[N:1]1([H:7])[C@@:2]2([H:8])[C@:3]1([H:9])[C@@:4]1([H:10])[O:5][C@@:6]21[H:11]>>[N:1]1([H:7])[C@@:2]2([H:8])[C@:3]1([H:9])[C:4]([H:10])([H:11])[O+:5]=[C-:6]2"
N        1.18654154       0.31166993       0.94929629
C        0.06530735       1.05696266       0.40575070
C        0.80164895       0.07611533      -0.41045049
C       -0.40694457      -0.87409054      -0.55292202
O       -0.98042610      -1.02240197       0.71099304
C       -1.31476928       0.30754229       0.36042940
H        0.87635456      -0.43019312       1.56928721
H        0.11002146       2.13436047       0.36791408
H        1.49461313       0.26649257      -1.21762134
H       -0.50704799      -1.73734087      -1.20224459
H       -1.32529905      -0.08911676      -0.98043227
11
Frame=2 idx=004447 GeodesicLength=0.10159729883864357 rxn_smarts="[N:1]1([H:7])[C@@:2]2([H:8])[C@:3]1([H:9])[C@@:4]1([H:10])[O:5][C@@:6]21[H:11]>>[N:1]1([H:7])[C@@:2]2([H:8])[C@:3]1([H:9])[C:4]([H:10])([H:11])[O+:5]=[C-:6]2"
N        1.18762266       0.30977161       0.94842829
C        0.06684648       1.05778950       0.40752900
C        0.80115397       0.07611175      -0.41170536
C       -0.40809568      -0.87152023      -0.55678675
O       -0.98710616      -1.01952416       0.70853804
C       -1.31103141       0.31015313       0.36433937
H        0.87700802      -0.43237390       1.56787150
H        0.11447358       2.13522394       0.37167584
H        1.49474330       0.26851065      -1.21787720
H       -0.49197025      -1.74501085      -1.19415092
H       -1.34364452      -0.08913145      -0.98786182
11
Frame=3 idx=004447 GeodesicLength=0.15240428186083554 rxn_smarts="[N:1]1([H:7])[C@@:2]2([H:8])[C@:3]1([H:9])[C@@:4]1([H:10])[O:5][C@@:6]21[H:11]>>[N:1]1([H:7])[C@@:2]2([H:8])[C@:3]1([H:9])[C:4]([H:10])([H:11])[O+:5]=[C-:6]2"
N        1.18870625       0.30781843       0.94755604
C        0.06841856       1.05859277       0.40931348
C        0.80068883       0.07611159      -0.41297801
C       -0.40924353      -0.86892303      -0.56077792
O       -0.99380252      -1.01659657       0.70597198
C       -1.30727084       0.31275093       0.36812408
H        0.87764392      -0.43464081       1.56640352
H        0.11897253       2.13605198       0.37546367
H        1.49491514       0.27055568      -1.21812904
H       -0.47671308      -1.75246695      -1.18568921
H       -1.36231526      -0.08925401      -0.99525860
11
Frame=4 idx=004447 GeodesicLength=0.20322165738168385 rxn_smarts="[N:1]1([H:7])[C@@:2]2([H:8])[C@:3]1([H:9])[C@@:4]1([H:10])[O:5][C@@:6]21[H:11]>>[N:1]1([H:7])[C@@:2]2([H:8])[C@:3]1([H:9])[C:4]([H:10])([H:11])[O+:5]=[C-:6]2"
N        1.18979300       0.30581511       0.94668253
C        0.07002417       1.05937075       0.41110154
C        0.80025778       0.07611061      -0.41426569
C       -0.41038185      -0.86630704      -0.56489529
O       -1.00050852      -1.01362627       0.70329500
C       -1.30348520       0.31532631       0.37178699
H        0.87826013      -0.43698313       1.56489200
H        0.12351509       2.13684289       0.37926798
H        1.49513532       0.27261920      -1.21837294
H       -0.46129449      -1.75968119      -1.17687556
H       -1.38131543      -0.08948724      -1.00261656
11
Frame=5 idx=004447 GeodesicLength=0.2540407227277393 rxn_smarts="[N:1]1([H:7])[C@@:2]2([H:8])[C@:3]1([H:9])[C@@:4]1([H:10])[O:5][C@@:6]21[H:11]>>[N:1]1([H:7])[C@@:2]2([H:8])[C@:3]1([H:9])[C:4]([H:10])([H:11])[O+:5]=[C-:6]2"
N        1.19088546       0.30375928       0.94580570
C        0.07166417       1.06012086       0.41289169
C        0.79986457       0.07611107      -0.41556810
C       -0.41150374      -0.86367105      -0.56913771
O       -1.00722411      -1.01060669       0.70050359
C       -1.29967468       0.31788171       0.37531832
H        0.87885922      -0.43940357       1.56333092
H        0.12810017       2.13759295       0.38309744
H        1.49540855       0.27470908      -1.21860388
H       -0.44573231      -1.76664315      -1.16769763
H       -1.40064730      -0.08985048      -1.00994033
11
Frame=6 idx=004447 GeodesicLength=0.3048891636810021 rxn_smarts="[N:1]1([H:7])[C@@:2]2([H:8])[C@:3]1([H:9])[C@@:4]1([H:10])[O:5][C@@:6]21[H:11]>>[N:1]1([H:7])[C@@:2]2([H:8])[C@:3]1([H:9])[C:4]([H:10])([H:11])[O+:5]=[C-:6]2"
N        1.19198643       0.30166205       0.94493885
C        0.07333711       1.06084789       0.41468349
C        0.79951454       0.07610751      -0.41688082
C       -0.41259878      -0.86103148      -0.57350721
O       -1.01393602      -1.00755123       0.69760189
C       -1.29583562       0.32040675       0.37872351
H        0.87944772      -0.44189073       1.56174072
H        0.13271844       2.13831125       0.38693760
H        1.49574523       0.27680396      -1.21881821
H       -0.43006197      -1.77331510      -1.15819129
H       -1.42031707      -0.09035087      -1.01722854
11
Frame=7 idx=004447 GeodesicLength=0.35570205979666514 rxn_smarts="[N:1]1([H:7])[C@@:2]2([H:8])[C@:3]1([H:9])[C@@:4]1([H:10])[O:5][C@@:6]21[H:11]>>[N:1]1([H:7])[C@@:2]2([H:8])[C@:3]1([H:9])[C:4]([H:10])([H:11])[O+:5]=[C-:6]2"
N        1.19308630       0.29951847       0.94406267
C        0.07504639       1.06153752       0.41647098
C        0.79921118       0.07610741      -0.41820310
C       -0.41366146      -0.85837437      -0.57799138
O       -1.02065532      -1.00444746       0.69458466
C       -1.29196666       0.32289603       0.38199522
H        0.88000613      -0.44444551       1.56009312
H        0.13738293       2.13897192       0.39079231
H        1.49615001       0.27892693      -1.21900869
H       -0.41428253      -1.77968635      -1.14833098
H       -1.44031697      -0.09100460      -1.02446484
11
Frame=8 idx=004447 GeodesicLength=0.4065465485453073 rxn_smarts="[N:1]1([H:7])[C@@:2]2([H:8])[C@:3]1([H:9])[C@@:4]1([H:10])[O:5][C@@:6]21[H:11]>>[N:1]1([H:7])[C@@:2]2([H:8])[C@:3]1([H:9])[C:4]([H:10])([H:11])[O+:5]=[C-:6]2"
N        1.19419581       0.29733503       0.94320089
C        0.07679005       1.06220336       0.41825811
C        0.79896055       0.07610243      -0.41953288
C       -0.41468026      -0.85572145      -0.58259689
O       -1.02736718      -1.00130616       0.69145928
C       -1.28806729       0.32535363       0.38513357
H        0.88055286      -0.44706434       1.55842268
H        0.14208211       2.13960133       0.39465773
H        1.49662738       0.28106110      -1.21918011
H       -0.39843400      -1.78573961      -1.13815760
H       -1.46066003      -0.09182531      -1.03166479
11
Frame=9 idx=004447 GeodesicLength=0.45740197376519587 rxn_smarts="[N:1]1([H:7])[C@@:2]2([H:8])[C@:3]1([H:9])[C@@:4]1([H:10])[O:5][C@@:6]21[H:11]>>[N:1]1([H:7])[C@@:2]2([H:8])[C@:3]1([H:9])[C:4]([H:10])([H:11])[O+:5]=[C-:6]2"
N        1.19531386       0.29511614       0.94235162
C        0.07856950       1.06284041       0.42004175
C        0.79876850       0.07609401      -0.42086548
C       -0.41564488      -0.85307332      -0.58731619
O       -1.03406912      -0.99812583       0.68822450
C       -1.28413458       0.32777250       0.38813548
H        0.88108460      -0.44973918       1.55672590
H        0.14681630       2.14019002       0.39852946
H        1.49718616       0.28320811      -1.21932267
H       -0.38254501      -1.79145157      -1.12768342
H       -1.48134533      -0.09283129      -1.03882095
11
Frame=10 idx=004447 GeodesicLength=0.5082750747387661 rxn_smarts="[N:1]1([H:7])[C@@:2]2([H:8])[C@:3]1([H:9])[C@@:4]1([H:10])[O:5][C@@:6]21[H:11]>>[N:1]1([H:7])[C@@:2]2([H:8])[C@:3]1([H:9])[C:4]([H:10])([H:11])[O+:5]=[C-:6]2"
N        1.19644237       0.29286616       0.94152119
C        0.08038516       1.06345050       0.42182144
C        0.79864088       0.07608102      -0.42219774
C       -0.41654452      -0.85043552      -0.59214514
O       -1.04075527      -0.99490782       0.68488358
C       -1.28016636       0.33015140       0.39099984
H        0.88160382      -0.45246468       1.55501201
H        0.15158243       2.14074159       0.40240426
H        1.49783376       0.28536472      -1.21943294
H       -0.36664643      -1.79680839      -1.11693367
H       -1.50237585      -0.09403897      -1.04593283
11
Frame=11 idx=004447 GeodesicLength=0.5591492476677629 rxn_smarts="[N:1]1([H:7])[C@@:2]2([H:8])[C@:3]1([H:9])[C@@:4]1([H:10])[O:5][C@@:6]21[H:11]>>[N:1]1([H:7])[C@@:2]2([H:8])[C@:3]1([H:9])[C:4]([H:10])([H:11])[O+:5]=[C-:6]2"
N        1.19758114       0.29059274       0.94071105
C        0.08223840       1.06402978       0.42359342
C        0.79858500       0.07606337      -0.42352237
C       -0.41736670      -0.84781273      -0.59707460
O       -1.04742069      -0.99165357       0.68143646
C       -1.27615873       0.33248076       0.39372486
H        0.88210877      -0.45522861       1.55328306
H        0.15637967       2.14124804       0.40627217
H        1.49858116       0.28752824      -1.21949843
H       -0.35077638      -1.80177868      -1.10593510
H       -1.52375164      -0.09546934      -1.05299051
11
Frame=12 idx=004447 GeodesicLength=0.6100312649146088 rxn_smarts="[N:1]1([H:7])[C@@:2]2([H:8])[C@:3]1([H:9])[C@@:4]1([H:10])[O:5][C@@:6]21[H:11]>>[N:1]1([H:7])[C@@:2]2([H:8])[C@:3]1([H:9])[C:4]([H:10])([H:11])[O+:5]=[C-:6]2"
N        1.19873171       0.28830326       0.93993037
C        0.08412887       1.06458000       0.42535672
C        0.79860943       0.07603877      -0.42483362
C       -0.41809629      -0.84521117      -0.60209744
O       -1.05405508      -0.98836851       0.67789000
C       -1.27210809       0.33475606       0.39631437
H        0.88260204      -0.45802131       1.55155418
H        0.16119981       2.14171320       0.41012152
H        1.49943981       0.28969236      -1.21951396
H       -0.33498162      -1.80634447      -1.09472966
H       -1.54547060      -0.09713819      -1.05999248
11
Frame=13 idx=004447 GeodesicLength=0.6609179238187097 rxn_smarts="[N:1]1([H:7])[C@@:2]2([H:8])[C@:3]1([H:9])[C@@:4]1([H:10])[O:5][C@@:6]21[H:11]>>[N:1]1([H:7])[C@@:2]2([H:8])[C@:3]1([H:9])[C:4]([H:10])([H:11])[O+:5]=[C-:6]2"
N        1.19989720       0.28600042       0.93918272
C        0.08606011       1.06510640       0.42711176
C        0.79871690       0.07600911      -0.42613014
C       -0.41873005      -0.84263127      -0.60721127
O       -1.06065862      -0.98504776       0.67424165
C       -1.26801350       0.33698411       0.39876192
H        0.88308528      -0.46084063       1.54982738
H        0.16604879       2.14214521       0.41396338
H        1.50041264       0.29185759      -1.21947501
H       -0.31927464      -1.81051813      -1.08333646
H       -1.56754413      -0.09906503      -1.06693591
11
Frame=14 idx=004447 GeodesicLength=0.7118159513497776 rxn_smarts="[N:1]1([H:7])[C@@:2]2([H:8])[C@:3]1([H:9])[C@@:4]1([H:10])[O:5][C@@:6]21[H:11]>>[N:1]1([H:7])[C@@:2]2([H:8])[C@:3]1([H:9])[C:4]([H:10])([H:11])[O+:5]=[C-:6]2"
N        1.20107816       0.28369092       0.93847500
C        0.08803110       1.06560714       0.42885778
C        0.79891687       0.07597231      -0.42740514
C       -0.41925159      -0.84007654      -0.61240678
O       -1.06722386      -0.98169277       0.67049779
C       -1.26387227       0.33915896       0.40107249
H        0.88355941      -0.46367517       1.54811463
H        0.17091930       2.14253983       0.41778312
H        1.50151249       0.29401857      -1.21937580
H       -0.30369797      -1.81427844      -1.07179679
H       -1.58997163      -0.10126480      -1.07381630
11
Frame=15 idx=004447 GeodesicLength=0.762710003571666 rxn_smarts="[N:1]1([H:7])[C@@:2]2([H:8])[C@:3]1([H:9])[C@@:4]1([H:10])[O:5][C@@:6]21[H:11]>>[N:1]1([H:7])[C@@:2]2([H:8])[C@:3]1([H:9])[C:4]([H:10])([H:11])[O+:5]=[C-:6]2"
N        1.20227671       0.28138340       0.93781317
C        0.09004380       1.06608267       0.43059301
C        0.79921730       0.07592771      -0.42864987
C       -0.41965031      -0.83754859      -0.61767482
O       -1.07374409      -0.97830567       0.66665918
C       -1.25968100       0.34127588       0.40324756
H        0.88402592      -0.46651247       1.54642367
H        0.17580818       2.14289701       0.42156993
H        1.50274982       0.29617130      -1.21920321
H       -0.28829244      -1.81761619      -1.06015395
H       -1.61275388      -0.10375505      -1.08062468
11
Frame=16 idx=004447 GeodesicLength=0.8136109049857602 rxn_smarts="[N:1]1([H:7])[C@@:2]2([H:8])[C@:3]1([H:9])[C@@:4]1([H:10])[O:5][C@@:6]21[H:11]>>[N:1]1([H:7])[C@@:2]2([H:8])[C@:3]1([H:9])[C:4]([H:10])([H:11])[O+:5]=[C-:6]2"
N        1.20349521       0.27908229       0.93720620
C        0.09209994       1.06653860       0.43231856
C        0.79962381       0.07587464      -0.42986095
C       -0.41991768      -0.83505016      -0.62301175
O       -1.08021529      -0.97488681       0.66272889
C       -1.25543740       0.34333862       0.40528866
H        0.88448703      -0.46934788       1.54476733
H        0.18071557       2.14322600       0.42532191
H        1.50413155       0.29831212      -1.21895485
H       -0.27308287      -1.82053523      -1.04844436
H       -1.63589987      -0.10655219      -1.08735966
