19
Frame=0 idx=011044 GeodesicLength=0.0 rxn_smarts="[C:1]([C:2]([C:3]([C@@:4]1([H:15])[C:5]([H:16])([H:17])[C@:6]1([O:7][H:19])[H:18])([H:13])[H:14])([H:11])[H:12])([H:8])([H:9])[H:10]>>[C:1]([C:2]([C:3]([C:4]1([H:15])[C:5]([H:17])=[C:6]1[H:18])([H:13])[H:14])([H:11])[H:12])([H:8])([H:9])[H:10].[O:7]([H:16])[H:19]"
C       -2.67230890       0.27438174      -0.32098164
C       -1.29104011       0.57633370       0.24443266
C       -0.36765324      -0.63794626       0.25951354
C        0.99510808      -0.35837719       0.86113174
C        2.26550728      -0.99281208       0.35507946
C        2.07560709       0.39444453       0.17471439
O        1.87910480       0.45732573      -1.48936931
H       -2.60754324      -0.10216410      -1.34525358
H       -3.18065070      -0.48774222       0.27430517
H       -3.30462252       1.16388073      -0.33277385
H       -1.38548050       0.96717226       1.26260987
H       -0.82530877       1.38654970      -0.33173559
H       -0.25280461      -1.04454541      -0.75226725
H       -0.83666837      -1.44413913       0.83320602
H        0.91891210      -0.08211057       1.91730784
H        2.02022834      -0.59236485      -1.27436182
H        3.03543319      -1.43765092       0.96914665
H        2.57621118       1.31980524       0.41805698
H        0.95796895       0.63995917      -1.72276136
19
Frame=1 idx=011044 GeodesicLength=0.077882864506496 rxn_smarts="[C:1]([C:2]([C:3]([C@@:4]1([H:15])[C:5]([H:16])([H:17])[C@:6]1([O:7][H:19])[H:18])([H:13])[H:14])([H:11])[H:12])([H:8])([H:9])[H:10]>>[C:1]([C:2]([C:3]([C:4]1([H:15])[C:5]([H:17])=[C:6]1[H:18])([H:13])[H:14])([H:11])[H:12])([H:8])([H:9])[H:10].[O:7]([H:16])[H:19]"
C       -2.67116073       0.27435706      -0.32286736
C       -1.29299568       0.57616322       0.25009069
C       -0.36816125      -0.63708659       0.26492061
C        0.99344444      -0.35550887       0.86747648
C        2.26336234      -0.98695019       0.35703054
C        2.07117953       0.39900115       0.17655444
O        1.87972886       0.45326474      -1.50682173
H       -2.60070631      -0.09577807      -1.34911356
H       -3.18038553      -0.49239858       0.26567649
H       -3.30533835       1.16255240      -0.33237665
H       -1.39210410       0.96332533       1.26922003
H       -0.82522062       1.38794378      -0.32206277
H       -0.25176785      -1.04136415      -0.74749316
H       -0.83713363      -1.44456368       0.83689942
H        0.91912586      -0.08371030       1.92457179
H        2.02478102      -0.60988037      -1.27469394
H        3.03442098      -1.43919212       0.96395338
H        2.57779003       1.32163535       0.41717553
H        0.96114100       0.64818986      -1.73814022
19
Frame=2 idx=011044 GeodesicLength=0.1557404832978765 rxn_smarts="[C:1]([C:2]([C:3]([C@@:4]1([H:15])[C:5]([H:16])([H:17])[C@:6]1([O:7][H:19])[H:18])([H:13])[H:14])([H:11])[H:12])([H:8])([H:9])[H:10]>>[C:1]([C:2]([C:3]([C:4]1([H:15])[C:5]([H:17])=[C:6]1[H:18])([H:13])[H:14])([H:11])[H:12])([H:8])([H:9])[H:10].[O:7]([H:16])[H:19]"
C       -2.66999164       0.27433681      -0.32471886
C       -1.29496702       0.57597912       0.25576583
C       -0.36865915      -0.63622026       0.27031707
C        0.99176954      -0.35264042       0.87386785
C        2.26121733      -0.98100424       0.35898982
C        2.06667964       0.40362762       0.17843989
O        1.88026811       0.44900314      -1.52453880
H       -2.59384924      -0.08934825      -1.35287792
H       -3.18003223      -0.49703560       0.25704384
H       -3.30606476       1.16119424      -0.33194558
H       -1.39874246       0.95942955       1.27582481
H       -0.82518290       1.38933133      -0.31235267
H       -0.25068194      -1.03808183      -0.74275637
H       -0.83758078      -1.44502489       0.84051780
H        0.91932457      -0.08536126       1.93187141
H        2.02945111      -0.62779184      -1.27478141
H        3.03331042      -1.44069863       0.95869299
H        2.57923986       1.32352823       0.41628646
H        0.96449153       0.65677717      -1.75364616
19
Frame=3 idx=011044 GeodesicLength=0.2335850300262307 rxn_smarts="[C:1]([C:2]([C:3]([C@@:4]1([H:15])[C:5]([H:16])([H:17])[C@:6]1([O:7][H:19])[H:18])([H:13])[H:14])([H:11])[H:12])([H:8])([H:9])[H:10]>>[C:1]([C:2]([C:3]([C:4]1([H:15])[C:5]([H:17])=[C:6]1[H:18])([H:13])[H:14])([H:11])[H:12])([H:8])([H:9])[H:10].[O:7]([H:16])[H:19]"
C       -2.66880062       0.27432079      -0.32653732
C       -1.29695383       0.57578013       0.26145902
C       -0.36914647      -0.63534824       0.27570403
C        0.99008443      -0.34977242       0.88030537
C        2.25907261      -0.97497219       0.36095381
C        2.06210718       0.40832559       0.18037196
O        1.88070179       0.44453318      -1.54252905
H       -2.58697039      -0.08287441      -1.35654749
H       -3.17959058      -0.50165310       0.24840541
H       -3.30680007       1.15980627      -0.33148322
H       -1.40539630       0.95548195       1.28242547
H       -0.82519540       1.39071234      -0.30260231
H       -0.24954740      -1.03470028      -0.73805468
H       -0.83800840      -1.44552297       0.84406322
H        0.91951018      -0.08706540       1.93920602
H        2.03424281      -0.64612005      -1.27460883
H        3.03209702      -1.44216855       0.95336146
H        2.58055848       1.32548865       0.41538378
H        0.96803498       0.66574869      -1.76927661
19
Frame=4 idx=011044 GeodesicLength=0.31143322831012576 rxn_smarts="[C:1]([C:2]([C:3]([C@@:4]1([H:15])[C:5]([H:16])([H:17])[C@:6]1([O:7][H:19])[H:18])([H:13])[H:14])([H:11])[H:12])([H:8])([H:9])[H:10]>>[C:1]([C:2]([C:3]([C:4]1([H:15])[C:5]([H:17])=[C:6]1[H:18])([H:13])[H:14])([H:11])[H:12])([H:8])([H:9])[H:10].[O:7]([H:16])[H:19]"
C       -2.66758665       0.27430896      -0.32832366
C       -1.29895567       0.57556498       0.26717135
C       -0.36962281      -0.63447155       0.28108253
C        0.98839030      -0.34690549       0.88678818
C        2.25692888      -0.96885196       0.36291828
C        2.05746184       0.41309685       0.18235162
O        1.88100759       0.43984907      -1.56080153
H       -2.58006787      -0.07635455      -1.36012394
H       -3.17906014      -0.50625140       0.23975825
H       -3.30754272       1.15838823      -0.33099107
H       -1.41206591       0.95147948       1.28902338
H       -0.82525791       1.39208661      -0.29280869
H       -0.24836492      -1.03122143      -0.73338597
H       -0.83841509      -1.44605817       0.84753764
H        0.91968515      -0.08882530       1.94657470
H        2.03915919      -0.66488771      -1.27415914
H        3.03077662      -1.44359841       0.94795625
H        2.58174381       1.32752131       0.41446190
H        0.97178631       0.67513050      -1.78503006
19
Frame=5 idx=011044 GeodesicLength=0.38929174906013253 rxn_smarts="[C:1]([C:2]([C:3]([C@@:4]1([H:15])[C:5]([H:16])([H:17])[C@:6]1([O:7][H:19])[H:18])([H:13])[H:14])([H:11])[H:12])([H:8])([H:9])[H:10]>>[C:1]([C:2]([C:3]([C:4]1([H:15])[C:5]([H:17])=[C:6]1[H:18])([H:13])[H:14])([H:11])[H:12])([H:8])([H:9])[H:10].[O:7]([H:16])[H:19]"
C       -2.66634863       0.27430137      -0.33007899
C       -1.30097223       0.57533236       0.27290368
C       -0.37008778      -0.63359130       0.28645320
C        0.98668832      -0.34404039       0.89331494
C        2.25478642      -0.96264185       0.36487936
C        2.05274363       0.41794256       0.18437912
O        1.88116459       0.43494456      -1.57936544
H       -2.57314003      -0.06978791      -1.36360765
H       -3.17844042      -0.51083085       0.23110034
H       -3.30829112       1.15694036      -0.33047036
H       -1.41875207       0.94741885       1.29561950
H       -0.82537013       1.39345424      -0.28296878
H       -0.24713547      -1.02764743      -0.72874839
H       -0.83879950      -1.44663078       0.85094272
H        0.91985170      -0.09064299       1.95397586
H        2.04420482      -0.68411639      -1.27341490
H        3.02934437      -1.44498505       0.94247584
H        2.58279378       1.32963044       0.41351489
H        0.97575974       0.68495023      -1.80090495
19
Frame=6 idx=011044 GeodesicLength=0.4671648214757281 rxn_smarts="[C:1]([C:2]([C:3]([C@@:4]1([H:15])[C:5]([H:16])([H:17])[C@:6]1([O:7][H:19])[H:18])([H:13])[H:14])([H:11])[H:12])([H:8])([H:9])[H:10]>>[C:1]([C:2]([C:3]([C:4]1([H:15])[C:5]([H:17])=[C:6]1[H:18])([H:13])[H:14])([H:11])[H:12])([H:8])([H:9])[H:10].[O:7]([H:16])[H:19]"
C       -2.66508562       0.27429772      -0.33180411
C       -1.30300218       0.57508109       0.27865542
C       -0.37054094      -0.63270899       0.29181729
C        0.98497966      -0.34117889       0.89988529
C        2.25264592      -0.95633913       0.36683157
C        2.04795209       0.42286557       0.18645835
O        1.88114326       0.42981484      -1.59822994
H       -2.56618672      -0.06317545      -1.36699889
H       -3.17773108      -0.51539017       0.22243155
H       -3.30904328       1.15546228      -0.32992371
H       -1.42545285       0.94329958       1.30221276
H       -0.82553090       1.39481324      -0.27308388
H       -0.24585969      -1.02398179      -0.72413918
H       -0.83916083      -1.44724081       0.85428120
H        0.92001203      -0.09252399       1.96140942
H        2.04938032      -0.70382490      -1.27235878
H        3.02779549      -1.44632549       0.93691470
H        2.58370634       1.33182152       0.41253992
H        0.97997896       0.69523375      -1.81689897
19
Frame=7 idx=011044 GeodesicLength=0.5450682111963276 rxn_smarts="[C:1]([C:2]([C:3]([C@@:4]1([H:15])[C:5]([H:16])([H:17])[C@:6]1([O:7][H:19])[H:18])([H:13])[H:14])([H:11])[H:12])([H:8])([H:9])[H:10]>>[C:1]([C:2]([C:3]([C:4]1([H:15])[C:5]([H:17])=[C:6]1[H:18])([H:13])[H:14])([H:11])[H:12])([H:8])([H:9])[H:10].[O:7]([H:16])[H:19]"
C       -2.66379667       0.27429814      -0.33349932
C       -1.30504484       0.57480982       0.28442638
C       -0.37098199      -0.63182606       0.29717460
C        0.98326546      -0.33832273       0.90649717
C        2.25050762      -0.94994143       0.36876915
C        2.04308664       0.42786853       0.18859141
O        1.88091813       0.42445692      -1.61740486
H       -2.55920705      -0.05651601      -1.37029796
H       -3.17693114      -0.51992880       0.21375120
H       -3.30979749       1.15395457      -0.32935121
H       -1.43216761       0.93911928       1.30880287
H       -0.82573965       1.39616290      -0.26315306
H       -0.24453863      -1.02022704      -0.71955737
H       -0.83949794      -1.44788889       0.85755379
H        0.92016838      -0.09447389       1.96887369
H        2.05468785      -0.72403916      -1.27097011
H        3.02612679      -1.44761313       0.93127251
H        2.58447937       1.33409959       0.41153295
H        0.98446276       0.70600739      -1.83301184
19
Frame=8 idx=011044 GeodesicLength=0.6229896191692249 rxn_smarts="[C:1]([C:2]([C:3]([C@@:4]1([H:15])[C:5]([H:16])([H:17])[C@:6]1([O:7][H:19])[H:18])([H:13])[H:14])([H:11])[H:12])([H:8])([H:9])[H:10]>>[C:1]([C:2]([C:3]([C:4]1([H:15])[C:5]([H:17])=[C:6]1[H:18])([H:13])[H:14])([H:11])[H:12])([H:8])([H:9])[H:10].[O:7]([H:16])[H:19]"
C       -2.66248111       0.27430222      -0.33516509
C       -1.30709860       0.57451737       0.29021534
C       -0.37141074      -0.63094441       0.30252629
C        0.98154691      -0.33547444       0.91314971
C        2.24837198      -0.94344687       0.37068504
C        2.03814709       0.43295349       0.19078173
O        1.88045528       0.41886697      -1.63689972
H       -2.55220185      -0.04981159      -1.37350443
H       -3.17604030      -0.52444525       0.20505993
H       -3.31055187       1.15241701      -0.32875496
H       -1.43889340       0.93487858       1.31538774
H       -0.82599474       1.39750042      -0.25317950
H       -0.24317358      -1.01638775      -0.71500003
H       -0.83981051      -1.44857493       0.86076364
H        0.92032348      -0.09649910       1.97636782
H        2.06012814      -0.74477413      -1.26923028
H        3.02433324      -1.44884413       0.92554598
H        2.58511095       1.33646938       0.41049207
H        0.98923963       0.71729716      -1.84924129
19
Frame=9 idx=011044 GeodesicLength=0.7009264108659383 rxn_smarts="[C:1]([C:2]([C:3]([C@@:4]1([H:15])[C:5]([H:16])([H:17])[C@:6]1([O:7][H:19])[H:18])([H:13])[H:14])([H:11])[H:12])([H:8])([H:9])[H:10]>>[C:1]([C:2]([C:3]([C:4]1([H:15])[C:5]([H:17])=[C:6]1[H:18])([H:13])[H:14])([H:11])[H:12])([H:8])([H:9])[H:10].[O:7]([H:16])[H:19]"
C       -2.66113787       0.27430973      -0.33680119
C       -1.30916229       0.57420237       0.29602087
C       -0.37182680      -0.63006592       0.30787180
C        0.97982531      -0.33263635       0.91984036
C        2.24623929      -0.93685423       0.37257313
C        2.03313332       0.43812212       0.19303130
O        1.87972418       0.41304225      -1.65672511
H       -2.54517130      -0.04306370      -1.37661720
H       -3.17505742      -0.52893811       0.19635958
H       -3.31130456       1.15085064      -0.32813587
H       -1.44562850       0.93057641       1.32196524
H       -0.82629486       1.39882428      -0.24316496
H       -0.24176586      -1.01246762      -0.71046634
H       -0.84009772      -1.44929958       0.86391137
H        0.92047993      -0.09860595       1.98388941
H        2.06570357      -0.76605122      -1.26711716
H        3.02241016      -1.45001192       0.91973548
H        2.58559882       1.33893548       0.40941447
H        0.99433258       0.72913134      -1.86558518
19
Frame=10 idx=011044 GeodesicLength=0.778890046553043 rxn_smarts="[C:1]([C:2]([C:3]([C@@:4]1([H:15])[C:5]([H:16])([H:17])[C@:6]1([O:7][H:19])[H:18])([H:13])[H:14])([H:11])[H:12])([H:8])([H:9])[H:10]>>[C:1]([C:2]([C:3]([C:4]1([H:15])[C:5]([H:17])=[C:6]1[H:18])([H:13])[H:14])([H:11])[H:12])([H:8])([H:9])[H:10].[O:7]([H:16])[H:19]"
C       -2.65976709       0.27432032      -0.33840676
C       -1.31123384       0.57386410       0.30184019
C       -0.37223007      -0.62919250       0.31321111
C        0.97810161      -0.32981200       0.92656792
C        2.24411010      -0.93016014       0.37442342
C        2.02804458       0.44337932       0.19534730
O        1.87868930       0.40698903      -1.67689139
H       -2.53811876      -0.03627518      -1.37963512
H       -3.17398323      -0.53340517       0.18765397
H       -3.31205423       1.14925535      -0.32749464
H       -1.45236759       0.92621567       1.32853181
H       -0.82663825       1.40013074      -0.23311639
H       -0.24031637      -1.00847100      -0.70595455
H       -0.84035968      -1.45006285       0.86699877
H        0.92063984      -0.10080581       1.99143791
H        2.07141041      -0.78789174      -1.26460905
H        3.02035451      -1.45110919       0.91383679
H        2.58594160       1.34150354       0.40830380
H        0.99977716       0.74152751      -1.88204511
19
Frame=11 idx=011044 GeodesicLength=0.8568752797950959 rxn_smarts="[C:1]([C:2]([C:3]([C@@:4]1([H:15])[C:5]([H:16])([H:17])[C@:6]1([O:7][H:19])[H:18])([H:13])[H:14])([H:11])[H:12])([H:8])([H:9])[H:10]>>[C:1]([C:2]([C:3]([C:4]1([H:15])[C:5]([H:17])=[C:6]1[H:18])([H:13])[H:14])([H:11])[H:12])([H:8])([H:9])[H:10].[O:7]([H:16])[H:19]"
C       -2.65836911       0.27433407      -0.33998070
C       -1.31331136       0.57350167       0.30767026
C       -0.37262060      -0.62832628       0.31854259
C        0.97637679      -0.32700564       0.93332922
C        2.24198416      -0.92336347       0.37622601
C        2.02288050       0.44872797       0.19773475
O        1.87731378       0.40071184      -1.69740967
H       -2.53104838      -0.02945074      -1.38255522
H       -3.17281793      -0.53784288       0.17894847
H       -3.31279912       1.14763232      -0.32683145
H       -1.45910550       0.92179834       1.33508355
H       -0.82702314       1.40141668      -0.22304029
H       -0.23882670      -1.00440158      -0.70146508
H       -0.84059678      -1.45086548       0.87002488
H        0.92080564      -0.10311069       1.99901098
H        2.07724686      -0.81031459      -1.26168260
H        3.01816564      -1.45212562       0.90785363
H        2.58613792       1.34417782       0.40716193
H        1.00560734       0.75450628      -1.89862126
19
Frame=12 idx=011044 GeodesicLength=0.9348781214239442 rxn_smarts="[C:1]([C:2]([C:3]([C@@:4]1([H:15])[C:5]([H:16])([H:17])[C@:6]1([O:7][H:19])[H:18])([H:13])[H:14])([H:11])[H:12])([H:8])([H:9])[H:10]>>[C:1]([C:2]([C:3]([C:4]1([H:15])[C:5]([H:17])=[C:6]1[H:18])([H:13])[H:14])([H:11])[H:12])([H:8])([H:9])[H:10].[O:7]([H:16])[H:19]"
C       -2.65694408       0.27435043      -0.34152157
C       -1.31539275       0.57311446       0.31350806
C       -0.37299816      -0.62746908       0.32386526
C        0.97465196      -0.32422119       0.94012202
C        2.23986187      -0.91646072       0.37797052
C        2.01764045       0.45417282       0.20020037
O        1.87556306       0.39421879      -1.71829032
H       -2.52396407      -0.02259362      -1.38537559
H       -3.17156174      -0.54224893       0.17024867
H       -3.31353789       1.14598204      -0.32614611
H       -1.46583696       0.91732721       1.34161655
H       -0.82744761       1.40267870      -0.21294393
H       -0.23729784      -1.00026327      -0.69699740
H       -0.84080893      -1.45170776       0.87298986
H        0.92097981      -0.10553268       2.00660670
H        2.08320940      -0.83334057      -1.25831322
H        3.01583906      -1.45305265       0.90178247
H        2.58618533       1.34696461       0.40599394
H        1.01185910       0.76808141      -1.91531627
19
Frame=13 idx=011044 GeodesicLength=1.0128817046253045 rxn_smarts="[C:1]([C:2]([C:3]([C@@:4]1([H:15])[C:5]([H:16])([H:17])[C@:6]1([O:7][H:19])[H:18])([H:13])[H:14])([H:11])[H:12])([H:8])([H:9])[H:10]>>[C:1]([C:2]([C:3]([C:4]1([H:15])[C:5]([H:17])=[C:6]1[H:18])([H:13])[H:14])([H:11])[H:12])([H:8])([H:9])[H:10].[O:7]([H:16])[H:19]"
C       -2.65549277       0.27436969      -0.34302701
C       -1.31747581       0.57270171       0.31934967
C       -0.37336316      -0.62662358       0.32917690
C        0.97292789      -0.32146434       0.94694289
C        2.23774241      -0.90945047       0.37964509
C        2.01232356       0.45971790       0.20275158
O        1.87339674       0.38751944      -1.73954489
H       -2.51687145      -0.01570935      -1.38809301
H       -3.17021574      -0.54661849       0.16156267
H       -3.31426904       1.14430687      -0.32543843
H       -1.47255542       0.91280593       1.34812577
H       -0.82790918       1.40391281      -0.20283657
H       -0.23573193      -0.99606061      -0.69255230
H       -0.84099736      -1.45259073       0.87589246
H        0.92116454      -0.10808779       2.01422266
H        2.08929390      -0.85698525      -1.25447904
H        3.01337703      -1.45387647       0.89562751
H        2.58608168       1.34986892       0.40480608
H        1.01857411       0.78226380      -1.93213205
19
Frame=14 idx=011044 GeodesicLength=1.0908823307330295 rxn_smarts="[C:1]([C:2]([C:3]([C@@:4]1([H:15])[C:5]([H:16])([H:17])[C@:6]1([O:7][H:19])[H:18])([H:13])[H:14])([H:11])[H:12])([H:8])([H:9])[H:10]>>[C:1]([C:2]([C:3]([C:4]1([H:15])[C:5]([H:17])=[C:6]1[H:18])([H:13])[H:14])([H:11])[H:12])([H:8])([H:9])[H:10].[O:7]([H:16])[H:19]"
C       -2.65401693       0.27439143      -0.34449472
C       -1.31955802       0.57226317       0.32519071
C       -0.37371583      -0.62579179       0.33447492
C        0.97120549      -0.31874056       0.95378812
C        2.23562573      -0.90233047       0.38123625
C        2.00692945       0.46536766       0.20539557
O        1.87077197       0.38062761      -1.76118597
H       -2.50977810      -0.00880383      -1.39070412
H       -3.16878165      -0.55094858       0.15289937
H       -3.31499207       1.14260727      -0.32470662
H       -1.47925298       0.90823937       1.35460606
H       -0.82840570       1.40511498      -0.19272910
H       -0.23413053      -0.99179723      -0.68813109
H       -0.84116289      -1.45351487       0.87873082
H        0.92136278      -0.11079207       2.02185553
H        2.09549589      -0.88127019      -1.25015130
H        3.01077839      -1.45458405       0.88939139
H        2.58582547       1.35289582       0.40360538
H        1.02579951       0.79706633      -1.94907121
19
Frame=15 idx=011044 GeodesicLength=1.1688661314192472 rxn_smarts="[C:1]([C:2]([C:3]([C@@:4]1([H:15])[C:5]([H:16])([H:17])[C@:6]1([O:7][H:19])[H:18])([H:13])[H:14])([H:11])[H:12])([H:8])([H:9])[H:10]>>[C:1]([C:2]([C:3]([C:4]1([H:15])[C:5]([H:17])=[C:6]1[H:18])([H:13])[H:14])([H:11])[H:12])([H:8])([H:9])[H:10].[O:7]([H:16])[H:19]"
C       -2.65251848       0.27441530      -0.34592121
C       -1.32163686       0.57179863       0.33102640
C       -0.37405640      -0.62497595       0.33975579
C        0.96948556      -0.31605616       0.96065350
C        2.23351092      -0.89509852       0.38273046
C        2.00145773       0.47112654       0.20814051
O        1.86764510       0.37356005      -1.78322636
H       -2.50269243      -0.00188389      -1.39320506
H       -3.16726150      -0.55523481       0.14426968
H       -3.31570656       1.14088498      -0.32394876
H       -1.48592143       0.90363270       1.36105182
H       -0.82893479       1.40628097      -0.18263334
H       -0.23249530      -0.98747630      -0.68373639
H       -0.84130661      -1.45448125       0.88150150
H        0.92157700      -0.11366345       2.02950173
H        2.10180914      -0.90621444      -1.24530267
H        3.00804520      -1.45515992       0.88307871
H        2.58541473       1.35605043       0.40240120
H        1.03358499       0.81249510      -1.96613752
19
Frame=16 idx=011044 GeodesicLength=1.246815577318493 rxn_smarts="[C:1]([C:2]([C:3]([C@@:4]1([H:15])[C:5]([H:16])([H:17])[C@:6]1([O:7][H:19])[H:18])([H:13])[H:14])([H:11])[H:12])([H:8])([H:9])[H:10]>>[C:1]([C:2]([C:3]([C:4]1([H:15])[C:5]([H:17])=[C:6]1[H:18])([H:13])[H:14])([H:11])[H:12])([H:8])([H:9])[H:10].[O:7]([H:16])[H:19]"
C       -2.65100016       0.27444080      -0.34730279
C       -1.32370995       0.57130816       0.33685183
C       -0.37438531      -0.62417799       0.34501557
C        0.96776877      -0.31341740       0.96753452
C        2.23139715      -0.88775203       0.38411244
C        1.99590783       0.47699993       0.21099549
O        1.86397305       0.36633621      -1.80567896
H       -2.49562438       0.00504319      -1.39559147
H       -3.16565811      -0.55947337       0.13568557
H       -3.31641285       1.13914109      -0.32316168
H       -1.49255197       0.89899181       1.36745759
H       -0.82949440       1.40740669      -0.17256204
H       -0.23082802      -0.98310038      -0.67937119
H       -0.84142971      -1.45549077       0.88420049
H        0.92180985      -0.11672118       2.03715725
H        2.10822646      -0.93183809      -1.23990454
H        3.00517837      -1.45558726       0.87669289
H        2.58484753       1.35933867       0.40120458
H        1.04198583       0.82855193      -1.98333556
