11
Frame=0 idx=002401 GeodesicLength=0.0 rxn_smarts="[C:1](/[N:2]=[C:3](\[O:4][C:5](=[O:6])[H:11])[H:10])([H:7])([H:8])[H:9]>>[C:1]([N+:2]#[C-:3])([H:7])([H:8])[H:9].[O:4]=[C:5]([O:6][H:10])[H:11]"
C       -1.95979769      -0.37756275      -0.82434115
N       -1.25642388       0.36492048       0.17209683
C       -0.23485403       0.61772270       0.66566797
O        1.35730777      -0.41920830      -0.22242583
C        2.30297294       0.02095474       0.47961576
O        2.17893657       0.84890607       1.41159047
H       -2.50138616       0.31458726      -1.46609307
H       -2.67546102      -1.03406996      -0.33300384
H       -1.24346829      -0.95923404      -1.40436492
H        0.71354431       0.97646624       1.26747881
H        3.31862947      -0.35348246       0.25377899
11
Frame=1 idx=002401 GeodesicLength=0.04488768974665806 rxn_smarts="[C:1](/[N:2]=[C:3](\[O:4][C:5](=[O:6])[H:11])[H:10])([H:7])([H:8])[H:9]>>[C:1]([N+:2]#[C-:3])([H:7])([H:8])[H:9].[O:4]=[C:5]([O:6][H:10])[H:11]"
C       -1.96596411      -0.37769651      -0.82563863
N       -1.26280129       0.36502305       0.17104991
C       -0.23357890       0.61135586       0.65698848
O        1.36446157      -0.41441591      -0.22115597
C        2.30904182       0.00421868       0.49788453
O        2.18226123       0.85146279       1.41281110
H       -2.50924464       0.31474795      -1.46581820
H       -2.68120343      -1.03467987      -0.33406445
H       -1.25283967      -0.95977734      -1.40920377
H        0.72099011       0.98257073       1.26647984
H        3.32887732      -0.34280944       0.25066716
11
Frame=2 idx=002401 GeodesicLength=0.08983577427212278 rxn_smarts="[C:1](/[N:2]=[C:3](\[O:4][C:5](=[O:6])[H:11])[H:10])([H:7])([H:8])[H:9]>>[C:1]([N+:2]#[C-:3])([H:7])([H:8])[H:9].[O:4]=[C:5]([O:6][H:10])[H:11]"
C       -1.97210689      -0.37751514      -0.82721641
N       -1.26851913       0.36799848       0.16737028
C       -0.23154022       0.60848016       0.64485428
O        1.37102185      -0.41440087      -0.21572711
C        2.31625555      -0.00723400       0.51165272
O        2.18552713       0.85297664       1.41474723
H       -2.51646992       0.31365737      -1.46802839
H       -2.68750961      -1.03277417      -0.33332771
H       -1.26270228      -0.96248691      -1.41243834
H        0.72716743       0.98062822       1.27251271
H        3.33887609      -0.32932977       0.24560073
11
Frame=3 idx=002401 GeodesicLength=0.13480322317738563 rxn_smarts="[C:1](/[N:2]=[C:3](\[O:4][C:5](=[O:6])[H:11])[H:10])([H:7])([H:8])[H:9]>>[C:1]([N+:2]#[C-:3])([H:7])([H:8])[H:9].[O:4]=[C:5]([O:6][H:10])[H:11]"
C       -1.97831764      -0.37701535      -0.82911074
N       -1.27473564       0.36724102       0.16671378
C       -0.23079644       0.59733592       0.63943523
O        1.37720169      -0.41783231      -0.20724098
C        2.32440547      -0.01506098       0.52257357
O        2.18900593       0.85524613       1.41617382
H       -2.51918676       0.31582091      -1.47126217
H       -2.69786212      -1.02863161      -0.33616327
H       -1.27293600      -0.96660495      -1.41457953
H        0.73445544       0.98432097       1.27360975
H        3.34876607      -0.31481976       0.23985054
11
Frame=4 idx=002401 GeodesicLength=0.17981986020033608 rxn_smarts="[C:1](/[N:2]=[C:3](\[O:4][C:5](=[O:6])[H:11])[H:10])([H:7])([H:8])[H:9]>>[C:1]([N+:2]#[C-:3])([H:7])([H:8])[H:9].[O:4]=[C:5]([O:6][H:10])[H:11]"
C       -1.98460575      -0.37631676      -0.83120086
N       -1.28070993       0.36690581       0.16547280
C       -0.23000682       0.58561328       0.63400409
O        1.38326302      -0.42326100      -0.19702632
C        2.33329856      -0.02057349       0.53174830
O        2.19261733       0.85827752       1.41706530
H       -2.52042015       0.31814826      -1.47600440
H       -2.70965095      -1.02253914      -0.33895502
H       -1.28369636      -0.97230112      -1.41558593
H        0.74125733       0.98495753       1.27737352
H        3.35865371      -0.29891088       0.23310853
11
Frame=5 idx=002401 GeodesicLength=0.22490290479742817 rxn_smarts="[C:1](/[N:2]=[C:3](\[O:4][C:5](=[O:6])[H:11])[H:10])([H:7])([H:8])[H:9]>>[C:1]([N+:2]#[C-:3])([H:7])([H:8])[H:9].[O:4]=[C:5]([O:6][H:10])[H:11]"
C       -1.99084958      -0.37513848      -0.83372341
N       -1.28676724       0.36462734       0.16569276
C       -0.23017381       0.56752816       0.63360201
O        1.38891777      -0.43270498      -0.18321038
C        2.34301242      -0.02389736       0.53942381
O        2.19655470       0.86335831       1.41630422
H       -2.51624362       0.32281455      -1.48349483
H       -2.72592758      -1.01228368      -0.34427293
H       -1.29514957      -0.98101772      -1.41416695
H        0.74813194       0.98585950       1.28080950
H        3.36849458      -0.27914564       0.22303620
11
Frame=6 idx=002401 GeodesicLength=0.270027124245626 rxn_smarts="[C:1](/[N:2]=[C:3](\[O:4][C:5](=[O:6])[H:11])[H:10])([H:7])([H:8])[H:9]>>[C:1]([N+:2]#[C-:3])([H:7])([H:8])[H:9].[O:4]=[C:5]([O:6][H:10])[H:11]"
C       -1.99700011      -0.37369617      -0.83646962
N       -1.29257977       0.36198008       0.16603136
C       -0.23054449       0.54746960       0.63442464
O        1.39444528      -0.44455652      -0.16708257
C        2.35323996      -0.02583824       0.54622098
O        2.20056830       0.86968253       1.41453748
H       -2.50984141       0.32814329      -1.49223370
H       -2.74375102      -0.99992959      -0.35035628
H       -1.30709867      -0.99106142      -1.41173616
H        0.75470383       0.98528925       1.28552578
H        3.37785809      -0.25748278       0.21113809
11
Frame=7 idx=002401 GeodesicLength=0.31519093780839424 rxn_smarts="[C:1](/[N:2]=[C:3](\[O:4][C:5](=[O:6])[H:11])[H:10])([H:7])([H:8])[H:9]>>[C:1]([N+:2]#[C-:3])([H:7])([H:8])[H:9].[O:4]=[C:5]([O:6][H:10])[H:11]"
C       -2.00284174      -0.37178003      -0.83961160
N       -1.29801183       0.35892479       0.16654618
C       -0.23137441       0.52404668       0.63774746
O        1.39964741      -0.46027046      -0.14715255
C        2.36405674      -0.02585592       0.55170994
O        2.20471404       0.87852435       1.41053527
H       -2.49872985       0.33447855      -1.50379359
H       -2.76463448      -0.98329523      -0.35785447
H       -1.31978420      -1.00404035      -1.40684046
H        0.76057601       0.98127702       1.29342586
H        3.38638231      -0.23200941       0.19528796
11
Frame=8 idx=002401 GeodesicLength=0.3603531804457252 rxn_smarts="[C:1](/[N:2]=[C:3](\[O:4][C:5](=[O:6])[H:11])[H:10])([H:7])([H:8])[H:9]>>[C:1]([N+:2]#[C-:3])([H:7])([H:8])[H:9].[O:4]=[C:5]([O:6][H:10])[H:11]"
C       -2.00889724      -0.37041116      -0.84229534
N       -1.30316082       0.35640014       0.16636457
C       -0.23140742       0.50429691       0.63733625
O        1.40573974      -0.47238105      -0.13025068
C        2.37467463      -0.02684830       0.55800571
O        2.20835478       0.88367664       1.40994829
H       -2.49237954       0.33922551      -1.51217124
H       -2.78179278      -0.97046444      -0.36355426
H       -1.33244583      -1.01410613      -1.40458833
H        0.76712690       0.98073119       1.29820151
H        3.39418757      -0.21011934       0.18300349
11
Frame=9 idx=002401 GeodesicLength=0.40556224855242834 rxn_smarts="[C:1](/[N:2]=[C:3](\[O:4][C:5](=[O:6])[H:11])[H:10])([H:7])([H:8])[H:9]>>[C:1]([N+:2]#[C-:3])([H:7])([H:8])[H:9].[O:4]=[C:5]([O:6][H:10])[H:11]"
C       -2.01526102      -0.36943868      -0.84464735
N       -1.30805068       0.35407482       0.16567401
C       -0.23098991       0.48582399       0.63503840
O        1.41277290      -0.48112402      -0.11639190
C        2.38539901      -0.02793415       0.56439799
O        2.21171361       0.88646142       1.41168013
H       -2.48779574       0.34301362      -1.51950250
H       -2.79796101      -0.95863395      -0.36808481
H       -1.34567621      -1.02378061      -1.40288947
H        0.77397468       0.98158813       1.30155833
H        3.40187437      -0.19005058       0.17316717
11
Frame=10 idx=002401 GeodesicLength=0.4508418710255451 rxn_smarts="[C:1](/[N:2]=[C:3](\[O:4][C:5](=[O:6])[H:11])[H:10])([H:7])([H:8])[H:9]>>[C:1]([N+:2]#[C-:3])([H:7])([H:8])[H:9].[O:4]=[C:5]([O:6][H:10])[H:11]"
C       -2.02188930      -0.36865133      -0.84685616
N       -1.31271341       0.35168821       0.16468328
C       -0.23023483       0.46788469       0.63145894
O        1.42046190      -0.48832711      -0.10392655
C        2.39632502      -0.02886748       0.57083581
O        2.21499654       0.88849686       1.41427771
H       -2.48434471       0.34639507      -1.52611361
H       -2.81360383      -0.94731460      -0.37200718
H       -1.35945850      -1.03310576      -1.40172133
H        0.78093977       0.98289529       1.30439866
H        3.40952136      -0.17109385       0.16497042
11
Frame=11 idx=002401 GeodesicLength=0.4962130559022282 rxn_smarts="[C:1](/[N:2]=[C:3](\[O:4][C:5](=[O:6])[H:11])[H:10])([H:7])([H:8])[H:9]>>[C:1]([N+:2]#[C-:3])([H:7])([H:8])[H:9].[O:4]=[C:5]([O:6][H:10])[H:11]"
C       -2.02883065      -0.36805530      -0.84890974
N       -1.31694199       0.34962861       0.16294360
C       -0.22921029       0.44958556       0.62711994
O        1.42900198      -0.49346665      -0.09352960
C        2.40763141      -0.02913315       0.57674446
O        2.21807418       0.88909184       1.41842081
H       -2.47983284       0.34904354      -1.53385142
H       -2.83049291      -0.93404644      -0.37520754
H       -1.37452260      -1.04441608      -1.39904352
H        0.78777070       0.98302687       1.30813998
H        3.41735301      -0.15125880       0.15717303
11
Frame=12 idx=002401 GeodesicLength=0.5416752709446274 rxn_smarts="[C:1](/[N:2]=[C:3](\[O:4][C:5](=[O:6])[H:11])[H:10])([H:7])([H:8])[H:9]>>[C:1]([N+:2]#[C-:3])([H:7])([H:8])[H:9].[O:4]=[C:5]([O:6][H:10])[H:11]"
C       -2.03600301      -0.36753044      -0.85091006
N       -1.32067094       0.34778623       0.16052980
C       -0.22796589       0.43049091       0.62236311
O        1.43821169      -0.49780436      -0.08402920
C        2.41936033      -0.02861341       0.58206249
O        2.22099752       0.88871126       1.42368031
H       -2.47367446       0.35112957      -1.54299964
H       -2.84884539      -0.91830273      -0.37804604
H       -1.39096187      -1.05783786      -1.39467310
H        0.79440839       0.98161364       1.31315340
H        3.42514364      -0.12964281       0.14886894
11
Frame=13 idx=002401 GeodesicLength=0.5872571237194169 rxn_smarts="[C:1](/[N:2]=[C:3](\[O:4][C:5](=[O:6])[H:11])[H:10])([H:7])([H:8])[H:9]>>[C:1]([N+:2]#[C-:3])([H:7])([H:8])[H:9].[O:4]=[C:5]([O:6][H:10])[H:11]"
C       -2.04346834      -0.36711796      -0.85281626
N       -1.32370337       0.34650811       0.15702013
C       -0.22644869       0.41042167       0.61709042
O        1.44828422      -0.50071625      -0.07616601
C        2.43160177      -0.02706885       0.58648698
O        2.22369259       0.88671058       1.43064361
H       -2.46496639       0.35213119      -1.55443960
H       -2.86931416      -0.89877990      -0.38033304
H       -1.40937471      -1.07449337      -1.38749529
H        0.80073408       0.97769431       1.32028203
H        3.43296300      -0.10528953       0.13972705
11
Frame=14 idx=002401 GeodesicLength=0.6329505824618621 rxn_smarts="[C:1](/[N:2]=[C:3](\[O:4][C:5](=[O:6])[H:11])[H:10])([H:7])([H:8])[H:9]>>[C:1]([N+:2]#[C-:3])([H:7])([H:8])[H:9].[O:4]=[C:5]([O:6][H:10])[H:11]"
C       -2.05133811      -0.36688610      -0.85456223
N       -1.32612074       0.34569556       0.15246544
C       -0.22450715       0.39017909       0.61053217
O        1.45925808      -0.50176440      -0.07038187
C        2.44425424      -0.02494193       0.59044804
O        2.22621155       0.88300160       1.43931888
H       -2.45547019       0.35190006      -1.56696646
H       -2.89067708      -0.87703436      -0.38185903
H       -1.42958266      -1.09292983      -1.37865882
H        0.80695936       0.97235959       1.32846343
H        3.44101269      -0.07957927       0.13120045
11
Frame=15 idx=002401 GeodesicLength=0.6787430711391997 rxn_smarts="[C:1](/[N:2]=[C:3](\[O:4][C:5](=[O:6])[H:11])[H:10])([H:7])([H:8])[H:9]>>[C:1]([N+:2]#[C-:3])([H:7])([H:8])[H:9].[O:4]=[C:5]([O:6][H:10])[H:11]"
C       -2.05977592      -0.36697475      -0.85602738
N       -1.32802466       0.34550179       0.14670949
C       -0.22192165       0.37097323       0.60160448
O        1.47118997      -0.50012738      -0.06751710
C        2.45721723      -0.02287017       0.59443005
O        2.22852855       0.87651358       1.45056564
H       -2.44724025       0.35014313      -1.57945802
H       -2.91172179      -0.85480265      -0.38203836
H       -1.45130220      -1.11185434      -1.36922956
H        0.81341600       0.96715341       1.33618059
H        3.44963472      -0.05365585       0.12478019
11
Frame=16 idx=002401 GeodesicLength=0.7245812312187582 rxn_smarts="[C:1](/[N:2]=[C:3](\[O:4][C:5](=[O:6])[H:11])[H:10])([H:7])([H:8])[H:9]>>[C:1]([N+:2]#[C-:3])([H:7])([H:8])[H:9].[O:4]=[C:5]([O:6][H:10])[H:11]"
C       -2.06862360      -0.36724083      -0.85732714
N       -1.32956256       0.34556051       0.14017997
C       -0.21878568       0.35274576       0.59061645
O        1.48371542      -0.49729601      -0.06596221
C        2.47039292      -0.02097758       0.59866053
O        2.23076745       0.86842558       1.46316381
H       -2.44083420       0.34745948      -1.59124916
H       -2.93183359      -0.83306416      -0.38130878
H       -1.47391726      -1.13014092      -1.36015648
H        0.82012941       0.96252397       1.34315353
H        3.45855169      -0.02799579       0.12022949
