13
Frame=0 idx=005905 GeodesicLength=0.0 rxn_smarts="[C:1]([C:2]([C@@:3]1([H:11])[C:4]([H:12])([H:13])[O:5]1)([H:9])[H:10])([H:6])([H:7])[H:8]>>[C:1](=[C:2]([C@@:3]1([H:11])[C:4]([H:12])([H:13])[O:5]1)[H:10])([H:6])[H:7].[H:8][H:9]"
C       -1.54383774       0.77240662       0.44745034
C       -0.62334423      -0.28739617       0.15944048
C        0.66096583       0.02983395      -0.52588987
C        1.89994613      -0.04669969       0.24002538
O        1.56925011      -1.02907293      -0.72804759
H       -2.27512314       0.65097992       1.22968828
H       -1.51787855       1.67872226      -0.13863609
H       -1.66786691      -0.38221934      -0.54364368
H       -1.12624302      -1.26321568      -0.93695461
H       -0.55665099      -1.09443995       0.88171970
H        0.58808511       0.74390564      -1.34206567
H        2.72641713       0.60869172      -0.01622138
H        1.86628031      -0.38149640       1.27313465
13
Frame=1 idx=005905 GeodesicLength=0.10425894699269148 rxn_smarts="[C:1]([C:2]([C@@:3]1([H:11])[C:4]([H:12])([H:13])[O:5]1)([H:9])[H:10])([H:6])([H:7])[H:8]>>[C:1](=[C:2]([C@@:3]1([H:11])[C:4]([H:12])([H:13])[O:5]1)[H:10])([H:6])[H:7].[H:8][H:9]"
C       -1.55335144       0.76887901       0.43499981
C       -0.62238123      -0.28414822       0.15965948
C        0.66272106       0.03889534      -0.52146031
C        1.90413776      -0.04938157       0.23936896
O        1.56704091      -1.02209807      -0.73598814
H       -2.27550077       0.65499516       1.22741932
H       -1.51170088       1.68648444      -0.13290238
H       -1.69680202      -0.40289511      -0.55898128
H       -1.12439385      -1.27981088      -0.92921798
H       -0.54962182      -1.07903891       0.89518307
H        0.59332691       0.75826915      -1.33347659
H        2.73317814       0.60399346      -0.01394445
H        1.87334723      -0.39414378       1.26934049
13
Frame=2 idx=005905 GeodesicLength=0.20786928810736047 rxn_smarts="[C:1]([C:2]([C@@:3]1([H:11])[C:4]([H:12])([H:13])[O:5]1)([H:9])[H:10])([H:6])([H:7])[H:8]>>[C:1](=[C:2]([C@@:3]1([H:11])[C:4]([H:12])([H:13])[O:5]1)[H:10])([H:6])[H:7].[H:8][H:9]"
C       -1.56312643       0.76515834       0.42190359
C       -0.62108925      -0.28063558       0.16029413
C        0.66465874       0.04819924      -0.51679124
C        1.90858217      -0.05219792       0.23858830
O        1.56471932      -1.01490358      -0.74410403
H       -2.27625809       0.65905485       1.22419415
H       -1.50555792       1.69405047      -0.12658069
H       -1.72643300      -0.42450513      -0.57444658
H       -1.12264538      -1.29595468      -0.92084959
H       -0.54262780      -1.06312395       0.90885208
H        0.59870992       0.77301142      -1.32444903
H        2.74027861       0.59900651      -0.01184764
H        1.88078910      -0.40716000       1.26523654
13
Frame=3 idx=005905 GeodesicLength=0.311107495147552 rxn_smarts="[C:1]([C:2]([C@@:3]1([H:11])[C:4]([H:12])([H:13])[O:5]1)([H:9])[H:10])([H:6])([H:7])[H:8]>>[C:1](=[C:2]([C@@:3]1([H:11])[C:4]([H:12])([H:13])[O:5]1)[H:10])([H:6])[H:7].[H:8][H:9]"
C       -1.57315610       0.76121797       0.40811809
C       -0.61939776      -0.27679835       0.16145634
C        0.66681878       0.05777442      -0.51183880
C        1.91334343      -0.05518505       0.23765831
O        1.56226297      -1.00748721      -0.75241444
H       -2.27754262       0.66307173       1.21984708
H       -1.49955562       1.70134957      -0.11965774
H       -1.75683850      -0.44705262      -0.59011829
H       -1.12107840      -1.31150647      -0.91177429
H       -0.53561375      -1.04662707       0.92284873
H        0.60426430       0.78817362      -1.31492188
H        2.74779502       0.59366544      -0.00998562
H        1.88869824      -0.42059598       1.26078251
13
Frame=4 idx=005905 GeodesicLength=0.4142631936429846 rxn_smarts="[C:1]([C:2]([C@@:3]1([H:11])[C:4]([H:12])([H:13])[O:5]1)([H:9])[H:10])([H:6])([H:7])[H:8]>>[C:1](=[C:2]([C@@:3]1([H:11])[C:4]([H:12])([H:13])[O:5]1)[H:10])([H:6])[H:7].[H:8][H:9]"
C       -1.58342400       0.75701985       0.39359854
C       -0.61722174      -0.27255065       0.16328822
C        0.66925199       0.06766102      -0.50654382
C        1.91849205      -0.05839005       0.23654673
O        1.55963199      -0.99983734      -0.76094003
H       -2.27951584       0.66692564       1.21419498
H       -1.49383836       1.70829192      -0.11215472
H       -1.78810125      -0.47054323      -0.60610468
H       -1.11978813      -1.32629681      -0.90189361
H       -0.52851188      -1.02945263       0.93732539
H        0.61003193       0.80381541      -1.30481113
H        2.75581730       0.58788273      -0.00842748
H        1.89717593      -0.43452585       1.25592161
13
Frame=5 idx=005905 GeodesicLength=0.5176088561330814 rxn_smarts="[C:1]([C:2]([C@@:3]1([H:11])[C:4]([H:12])([H:13])[O:5]1)([H:9])[H:10])([H:6])([H:7])[H:8]>>[C:1](=[C:2]([C@@:3]1([H:11])[C:4]([H:12])([H:13])[O:5]1)[H:10])([H:6])[H:7].[H:8][H:9]"
C       -1.59390397       0.75250940       0.37830150
C       -0.61446103      -0.26778585       0.16596639
C        0.67201338       0.07790107      -0.50083665
C        1.92411835      -0.06186942       0.23521513
O        1.55677810      -0.99195849      -0.76969668
H       -2.28239131       0.67045741       1.20703567
H       -1.48859304       1.71478252      -0.10410434
H       -1.82030168      -0.49494509      -0.62255958
H       -1.11889361      -1.34011877      -0.89108456
H       -0.52124079      -1.01150013       0.95245422
H        0.61605309       0.81999265      -1.29402950
H        2.76445743       0.58155486      -0.00726245
H        1.90636507      -0.44902017       1.25060086
13
Frame=6 idx=005905 GeodesicLength=0.6212482137791571 rxn_smarts="[C:1]([C:2]([C@@:3]1([H:11])[C:4]([H:12])([H:13])[O:5]1)([H:9])[H:10])([H:6])([H:7])[H:8]>>[C:1](=[C:2]([C@@:3]1([H:11])[C:4]([H:12])([H:13])[O:5]1)[H:10])([H:6])[H:7].[H:8][H:9]"
C       -1.60454250       0.74764163       0.36220800
C       -0.61102795      -0.26238720       0.16964396
C        0.67516712       0.08855586      -0.49463911
C        1.93028747      -0.06568607       0.23363120
O        1.55364064      -0.98381315      -0.77870925
H       -2.28626469       0.67352369       1.19822822
H       -1.48405290       1.72068763      -0.09566192
H       -1.85351920      -0.52029629      -0.63957684
H       -1.11850636      -1.35276496      -0.87926400
H       -0.51372504      -0.99263567       0.96840218
H        0.62239802       0.83680358      -1.28245324
H        2.77380465       0.57456408      -0.00655762
H        1.91634074      -0.46419313       1.24474842
13
Frame=7 idx=005905 GeodesicLength=0.7253233472306226 rxn_smarts="[C:1]([C:2]([C@@:3]1([H:11])[C:4]([H:12])([H:13])[O:5]1)([H:9])[H:10])([H:6])([H:7])[H:8]>>[C:1](=[C:2]([C@@:3]1([H:11])[C:4]([H:12])([H:13])[O:5]1)[H:10])([H:6])[H:7].[H:8][H:9]"
C       -1.61529060       0.74233618       0.34529201
C       -0.60680704      -0.25620469       0.17452178
C        0.67878601       0.09969295      -0.48785982
C        1.93709179      -0.06991438       0.23175587
O        1.55014511      -0.97538202      -0.78799974
H       -2.29130992       0.67593801       1.18761319
H       -1.48047138       1.72586420      -0.08699771
H       -1.88783125      -0.54661842      -0.65730188
H       -1.11877738      -1.36396376      -0.86631858
H       -0.50586304      -0.97270956       0.98536406
H        0.62913703       0.85434710      -1.26995302
H        2.78397369       0.56677513      -0.00640265
H        1.92721697      -0.48016075       1.23828648
13
Frame=8 idx=005905 GeodesicLength=0.8298117822947418 rxn_smarts="[C:1]([C:2]([C@@:3]1([H:11])[C:4]([H:12])([H:13])[O:5]1)([H:9])[H:10])([H:6])([H:7])[H:8]>>[C:1](=[C:2]([C@@:3]1([H:11])[C:4]([H:12])([H:13])[O:5]1)[H:10])([H:6])[H:7].[H:8][H:9]"
C       -1.62605778       0.73653188       0.32758246
C       -0.60171152      -0.24908163       0.18076110
C        0.68294192       0.11138930      -0.48040972
C        1.94457132      -0.07463226       0.22955574
O        1.54620571      -0.96659480      -0.79759405
H       -2.29755646       0.67754092       1.17512073
H       -1.47814219       1.73016053      -0.07840064
H       -1.92329441      -0.57400415      -0.67583975
H       -1.11981890      -1.37346873      -0.85217041
H       -0.49757098      -0.95155786       1.00349419
H        0.63636161       0.87274839      -1.25638073
H        2.79503752       0.55803808      -0.00685920
H        1.93903417      -0.49706968       1.23114028
13
Frame=9 idx=005905 GeodesicLength=0.9347818653968643 rxn_smarts="[C:1]([C:2]([C@@:3]1([H:11])[C:4]([H:12])([H:13])[O:5]1)([H:9])[H:10])([H:6])([H:7])[H:8]>>[C:1](=[C:2]([C@@:3]1([H:11])[C:4]([H:12])([H:13])[O:5]1)[H:10])([H:6])[H:7].[H:8][H:9]"
C       -1.63658517       0.73032268       0.30923954
C       -0.59572420      -0.24090375       0.18836045
C        0.68768577       0.12370536      -0.47223924
C        1.95266003      -0.07985713       0.22703771
O        1.54178986      -0.95729999      -0.80748597
H       -2.30461135       0.67836014       1.16093869
H       -1.47722273       1.73330134      -0.07042609
H       -1.96031454      -0.60263083      -0.69502350
H       -1.12151536      -1.38116680      -0.83683909
H       -0.48890814      -0.92931246       1.02260010
H        0.64422358       0.89213024      -1.24156172
H        2.80694142       0.54833822      -0.00785349
H        1.95158083      -0.51498701       1.22325263
13
Frame=10 idx=005905 GeodesicLength=1.0399491930626512 rxn_smarts="[C:1]([C:2]([C@@:3]1([H:11])[C:4]([H:12])([H:13])[O:5]1)([H:9])[H:10])([H:6])([H:7])[H:8]>>[C:1](=[C:2]([C@@:3]1([H:11])[C:4]([H:12])([H:13])[O:5]1)[H:10])([H:6])[H:7].[H:8][H:9]"
C       -1.64689900       0.72345762       0.29019512
C       -0.58871144      -0.23145157       0.19764621
C        0.69310572       0.13674449      -0.46319572
C        1.96149212      -0.08572305       0.22412939
O        1.53674554      -0.94747816      -0.81773504
H       -2.31286619       0.67808967       1.14483690
H       -1.47809773       1.73524521      -0.06327530
H       -1.99857517      -0.63261801      -0.71514723
H       -1.12425890      -1.38662185      -0.82023142
H       -0.47965390      -0.90556523       1.04315502
H        0.65277594       0.91264945      -1.22530263
H        2.81986978       0.53741045      -0.00956143
H        1.96507324      -0.53413903       1.21448612
13
Frame=11 idx=005905 GeodesicLength=1.1451145399346827 rxn_smarts="[C:1]([C:2]([C@@:3]1([H:11])[C:4]([H:12])([H:13])[O:5]1)([H:9])[H:10])([H:6])([H:7])[H:8]>>[C:1](=[C:2]([C@@:3]1([H:11])[C:4]([H:12])([H:13])[O:5]1)[H:10])([H:6])[H:7].[H:8][H:9]"
C       -1.65688126       0.71584935       0.27051156
C       -0.58061719      -0.22057870       0.20872562
C        0.69926411       0.15058093      -0.45319352
C        1.97107328      -0.09229393       0.22080709
O        1.53098441      -0.93704500      -0.82834569
H       -2.32227047       0.67663100       1.12687369
H       -1.48098002       1.73587273      -0.05733136
H       -2.03810523      -0.66415276      -0.73621270
H       -1.12817514      -1.38958742      -0.80239396
H       -0.46974035      -0.88019750       1.06525247
H        0.66211630       0.93442728      -1.20744527
H        2.83385848       0.52513857      -0.01200820
H        1.97947309      -0.55464455       1.20476028
13
Frame=12 idx=005905 GeodesicLength=1.2501537161653042 rxn_smarts="[C:1]([C:2]([C@@:3]1([H:11])[C:4]([H:12])([H:13])[O:5]1)([H:9])[H:10])([H:6])([H:7])[H:8]>>[C:1](=[C:2]([C@@:3]1([H:11])[C:4]([H:12])([H:13])[O:5]1)[H:10])([H:6])[H:7].[H:8][H:9]"
C       -1.66637280       0.70740318       0.25027436
C       -0.57142106      -0.20812620       0.22167725
C        0.70621843       0.16530144      -0.44214092
C        1.98136210      -0.09962652       0.21704880
O        1.52441164      -0.92584836      -0.83933199
H       -2.33265180       0.67393568       1.10717396
H       -1.48601942       1.73507224      -0.05304442
H       -2.07893918      -0.69754407      -0.75817823
H       -1.13336297      -1.38986043      -0.78340724
H       -0.45912562      -0.85308702       1.08894557
H        0.67236656       0.95761365      -1.18778701
H        2.84890231       0.51140735      -0.01519492
H        1.99463182      -0.57664094       1.19396479
13
Frame=13 idx=005905 GeodesicLength=1.3548531280796463 rxn_smarts="[C:1]([C:2]([C@@:3]1([H:11])[C:4]([H:12])([H:13])[O:5]1)([H:9])[H:10])([H:6])([H:7])[H:8]>>[C:1](=[C:2]([C@@:3]1([H:11])[C:4]([H:12])([H:13])[O:5]1)[H:10])([H:6])[H:7].[H:8][H:9]"
C       -1.67524534       0.69803471       0.22958960
C       -0.56112110      -0.19394463       0.23652074
C        0.71399718       0.18095456      -0.43000741
C        1.99229585      -0.10775801       0.21285111
O        1.51695354      -0.91381620      -0.85066941
H       -2.34385835       0.66994163       1.08588655
H       -1.49328600       1.73283625      -0.05067811
H       -2.12097244      -0.73309470      -0.78102111
H       -1.13993947      -1.38725572      -0.76339393
H       -0.44777641      -0.82411334       1.11423168
H        0.68359963       0.98227601      -1.16625101
H        2.86495259       0.49613132      -0.01911161
H        2.01040032      -0.60019187       1.18205289
13
Frame=14 idx=005905 GeodesicLength=1.4591092588968497 rxn_smarts="[C:1]([C:2]([C@@:3]1([H:11])[C:4]([H:12])([H:13])[O:5]1)([H:9])[H:10])([H:6])([H:7])[H:8]>>[C:1](=[C:2]([C@@:3]1([H:11])[C:4]([H:12])([H:13])[O:5]1)[H:10])([H:6])[H:7].[H:8][H:9]"
C       -1.68332629       0.68771976       0.20859027
C       -0.54977386      -0.17793940       0.25320374
C        0.72262402       0.19759274      -0.41675476
C        2.00374221      -0.11670111       0.20820351
O        1.50853754      -0.90075993      -0.86236536
H       -2.35561934       0.66468825       1.06320937
H       -1.50269051       1.72914216      -0.05054554
H       -2.16411449      -0.77122657      -0.80460762
H       -1.14797124      -1.38172942      -0.74252528
H       -0.43570721      -0.79318692       1.14105937
H        0.69592986       1.00851618      -1.14267696
H        2.88189644       0.47925677      -0.02371658
H        2.02647286      -0.62537249       1.16892584
13
Frame=15 idx=005905 GeodesicLength=1.56286029692816 rxn_smarts="[C:1]([C:2]([C@@:3]1([H:11])[C:4]([H:12])([H:13])[O:5]1)([H:9])[H:10])([H:6])([H:7])[H:8]>>[C:1](=[C:2]([C@@:3]1([H:11])[C:4]([H:12])([H:13])[O:5]1)[H:10])([H:6])[H:7].[H:8][H:9]"
C       -1.69045391       0.67647988       0.18743823
C       -0.53746344      -0.16004639       0.27161091
C        0.73208829       0.21521786      -0.40240844
C        2.01554616      -0.12643969       0.20310366
O        1.49912853      -0.88658739      -0.87438001
H       -2.36771348       0.65819912       1.03934871
H       -1.51405193       1.72409217      -0.05270748
H       -2.20813482      -0.81229583      -0.82887188
H       -1.15753367      -1.37331222      -0.72097999
H       -0.42295680      -0.76025876       1.16930998
H        0.70941460       1.03632120      -1.11704671
H        2.89958335       0.46077556      -0.02897122
H        2.04254712      -0.65214552       1.15455424
13
Frame=16 idx=005905 GeodesicLength=1.6661761685472551 rxn_smarts="[C:1]([C:2]([C@@:3]1([H:11])[C:4]([H:12])([H:13])[O:5]1)([H:9])[H:10])([H:6])([H:7])[H:8]>>[C:1](=[C:2]([C@@:3]1([H:11])[C:4]([H:12])([H:13])[O:5]1)[H:10])([H:6])[H:7].[H:8][H:9]"
C       -1.69646586       0.66439171       0.16630272
C       -0.52431481      -0.14022790       0.29159834
C        0.74235471       0.23381183      -0.38701242
C        2.02751617      -0.13694637       0.19753606
O        1.48867942      -0.87118570      -0.88668536
H       -2.37991547       0.65050734       1.01450096
H       -1.52708241       1.71784370      -0.05709663
H       -2.25265770      -0.85666559      -0.85382605
H       -1.16869834      -1.36216153      -0.69886733
H       -0.40958938      -0.72525926       1.19886214
H        0.72409615       1.06565383      -1.08934991
H        2.91782165       0.44069677      -0.03484711
H        2.05825587      -0.68045884       1.13888458
