10
Frame=0 idx=000378 GeodesicLength=0.0 rxn_smarts="[N:1](=[C:2](/[O:3][C:4]([C:5]#[N:6])([H:9])[H:10])[H:8])\[H:7]>>[N:1]([C:2](=[O:3])[H:8])([C:5]1=[N:6][C:4]1([H:9])[H:10])[H:7]"
N        0.62566132      -0.76692981      -0.56232640
C        1.24240671      -0.33076703       0.52067310
O        0.71612283       0.51916226       1.26729847
C       -0.97293843       0.78776051       0.31166838
C       -0.69869664      -0.14780598      -0.74652281
N       -1.60659989      -0.22613845      -1.55731948
H        1.01710712      -1.45289956      -1.18546594
H        2.23519376      -0.72860932       0.76083446
H       -0.88954566       1.84706642       0.10111592
H       -1.66871113       0.49916096       1.09004430
10
Frame=1 idx=000378 GeodesicLength=0.10266297071344772 rxn_smarts="[N:1](=[C:2](/[O:3][C:4]([C:5]#[N:6])([H:9])[H:10])[H:8])\[H:7]>>[N:1]([C:2](=[O:3])[H:8])([C:5]1=[N:6][C:4]1([H:9])[H:10])[H:7]"
N        0.61915019      -0.80813289      -0.53690933
C        1.24829090      -0.34268487       0.52657365
O        0.73559583       0.54798761       1.23608548
C       -0.97791187       0.78506617       0.30856323
C       -0.69280485      -0.11458084      -0.77617777
N       -1.61017033      -0.16586763      -1.57572859
H        1.01262225      -1.50853788      -1.14301494
H        2.25961103      -0.70343782       0.74672885
H       -0.92861354       1.85318023       0.13478088
H       -1.66576962       0.45700791       1.07909854
10
Frame=2 idx=000378 GeodesicLength=0.20379295690795526 rxn_smarts="[N:1](=[C:2](/[O:3][C:4]([C:5]#[N:6])([H:9])[H:10])[H:8])\[H:7]>>[N:1]([C:2](=[O:3])[H:8])([C:5]1=[N:6][C:4]1([H:9])[H:10])[H:7]"
N        0.61379838      -0.84339410      -0.51294430
C        1.25423634      -0.35263447       0.53201696
O        0.75534036       0.57714528       1.20202557
C       -0.98257843       0.78218661       0.30462283
C       -0.68618891      -0.08248819      -0.80398565
N       -1.61296747      -0.10865645      -1.59081008
H        1.00755667      -1.55991678      -1.09990970
H        2.27899061      -0.68424858       0.73419361
H       -0.96765142       1.85672572       0.16790505
H       -1.66053611       0.41528095       1.06688573
10
Frame=3 idx=000378 GeodesicLength=0.30528081698352894 rxn_smarts="[N:1](=[C:2](/[O:3][C:4]([C:5]#[N:6])([H:9])[H:10])[H:8])\[H:7]>>[N:1]([C:2](=[O:3])[H:8])([C:5]1=[N:6][C:4]1([H:9])[H:10])[H:7]"
N        0.60859479      -0.87641056      -0.48861611
C        1.26064628      -0.36144167       0.53754017
O        0.77245097       0.60116271       1.17011716
C       -0.98731007       0.77927995       0.30016238
C       -0.68115803      -0.05406788      -0.82875831
N       -1.61518811      -0.05236303      -1.60459986
H        1.00311783      -1.60785526      -1.05664737
H        2.29822904      -0.66382042       0.71835496
H       -1.00229847       1.85782199       0.19966940
H       -1.65708424       0.37769417       1.05277759
10
Frame=4 idx=000378 GeodesicLength=0.4067404565232401 rxn_smarts="[N:1](=[C:2](/[O:3][C:4]([C:5]#[N:6])([H:9])[H:10])[H:8])\[H:7]>>[N:1]([C:2](=[O:3])[H:8])([C:5]1=[N:6][C:4]1([H:9])[H:10])[H:7]"
N        0.60481864      -0.90587971      -0.46553961
C        1.26783193      -0.36835230       0.54218538
O        0.78869484       0.62360756       1.13774344
C       -0.99204689       0.77636852       0.29525752
C       -0.67757847      -0.02796632      -0.85164356
N       -1.61813028       0.00207744      -1.61621369
H        0.99984922      -1.65224106      -1.01383278
H        2.31512966      -0.64695680       0.70386886
H       -1.03495178       1.85690478       0.23035999
H       -1.65361686       0.34243790       1.03781446
10
Frame=5 idx=000378 GeodesicLength=0.5081437661763571 rxn_smarts="[N:1](=[C:2](/[O:3][C:4]([C:5]#[N:6])([H:9])[H:10])[H:8])\[H:7]>>[N:1]([C:2](=[O:3])[H:8])([C:5]1=[N:6][C:4]1([H:9])[H:10])[H:7]"
N        0.60199231      -0.93324447      -0.44288823
C        1.27555114      -0.37397203       0.54623388
O        0.80377141       0.64399461       1.10547712
C       -0.99679027       0.77343230       0.28997482
C       -0.67545265      -0.00376826      -0.87308896
N       -1.62161647       0.05554580      -1.62620260
H        0.99770496      -1.69387775      -0.97107061
H        2.33079874      -0.63172335       0.68950230
H       -1.06528714       1.85420889       0.26026172
H       -1.65067204       0.30940426       1.02180056
10
Frame=6 idx=000378 GeodesicLength=0.6095128468236836 rxn_smarts="[N:1](=[C:2](/[O:3][C:4]([C:5]#[N:6])([H:9])[H:10])[H:8])\[H:7]>>[N:1]([C:2](=[O:3])[H:8])([C:5]1=[N:6][C:4]1([H:9])[H:10])[H:7]"
N        0.60001743      -0.95905259      -0.42043111
C        1.28377595      -0.37840462       0.54959990
O        0.81791580       0.66274627       1.07304258
C       -1.00156191       0.77044842       0.28435285
C       -0.67471864       0.01906066      -0.89358767
N       -1.62575609       0.10844614      -1.63476665
H        0.99669705      -1.73325984      -0.92815036
H        2.34548748      -0.61800882       0.67548080
H       -1.09365610       1.84989009       0.28964884
H       -1.64820097       0.27813428       1.00481083
10
Frame=7 idx=000378 GeodesicLength=0.7108520574719895 rxn_smarts="[N:1](=[C:2](/[O:3][C:4]([C:5]#[N:6])([H:9])[H:10])[H:8])\[H:7]>>[N:1]([C:2](=[O:3])[H:8])([C:5]1=[N:6][C:4]1([H:9])[H:10])[H:7]"
N        0.59874318      -0.98377176      -0.39791353
C        1.29244484      -0.38185672       0.55236168
O        0.83124637       0.68010040       1.04030200
C       -1.00637711       0.76737995       0.27842136
C       -0.67530767       0.04092635      -0.91351334
N       -1.63049895       0.16120077      -1.64214090
H        0.99674378      -1.77087002      -0.88476739
H        2.35948599      -0.60541552       0.66163901
H       -1.12025342       1.84402890       0.31879297
H       -1.64622701       0.24827766       0.98681815
10
Frame=8 idx=000378 GeodesicLength=0.8119417011244549 rxn_smarts="[N:1](=[C:2](/[O:3][C:4]([C:5]#[N:6])([H:9])[H:10])[H:8])\[H:7]>>[N:1]([C:2](=[O:3])[H:8])([C:5]1=[N:6][C:4]1([H:9])[H:10])[H:7]"
N        0.59797128      -1.00783113      -0.37492664
C        1.30159883      -0.38430367       0.55435400
O        0.84363351       0.69593555       1.00742501
C       -1.01123450       0.76413413       0.27221017
C       -0.67714104       0.06201886      -0.93302154
N       -1.63555620       0.21427047      -1.64846762
H        0.99765874      -1.80709808      -0.84051788
H        2.37305702      -0.59335025       0.64744241
H       -1.14497267       1.83662750       0.34785616
H       -1.64501497       0.21959663       0.96764594
10
Frame=9 idx=000378 GeodesicLength=0.9131035305857329 rxn_smarts="[N:1](=[C:2](/[O:3][C:4]([C:5]#[N:6])([H:9])[H:10])[H:8])\[H:7]>>[N:1]([C:2](=[O:3])[H:8])([C:5]1=[N:6][C:4]1([H:9])[H:10])[H:7]"
N        0.59784143      -1.03118931      -0.35160864
C        1.31108541      -0.38599349       0.55559137
O        0.85559329       0.71093870       0.97364118
C       -1.01614681       0.76077596       0.26565958
C       -0.68019204       0.08293529      -0.95247726
N       -1.64140430       0.26759194      -1.65362085
H        0.99965944      -1.84194245      -0.79550097
H        2.38603629      -0.58253633       0.63391542
H       -1.16840088       1.82766497       0.37692831
H       -1.64407183       0.19175471       0.94747188
10
Frame=10 idx=000378 GeodesicLength=1.014321739360822 rxn_smarts="[N:1](=[C:2](/[O:3][C:4]([C:5]#[N:6])([H:9])[H:10])[H:8])\[H:7]>>[N:1]([C:2](=[O:3])[H:8])([C:5]1=[N:6][C:4]1([H:9])[H:10])[H:7]"
N        0.59798778      -1.05458841      -0.32712623
C        1.32101631      -0.38713458       0.55643276
O        0.86661005       0.72436886       0.93980452
C       -1.02122354       0.75717316       0.25884697
C       -0.68434399       0.10351380      -0.97190227
N       -1.64718867       0.32206466      -1.65806633
H        1.00248656      -1.87600171      -0.74894536
H        2.39914159      -0.57139802       0.61884255
H       -1.19022529       1.81720533       0.40615270
H       -1.64426080       0.16479692       0.92596070
10
Frame=11 idx=000378 GeodesicLength=1.1153126779730727 rxn_smarts="[N:1](=[C:2](/[O:3][C:4]([C:5]#[N:6])([H:9])[H:10])[H:8])\[H:7]>>[N:1]([C:2](=[O:3])[H:8])([C:5]1=[N:6][C:4]1([H:9])[H:10])[H:7]"
N        0.59859173      -1.07763782      -0.30178489
C        1.33117252      -0.38764742       0.55665343
O        0.87706267       0.73691471       0.90518465
C       -1.02630999       0.75327624       0.25167504
C       -0.68941552       0.12439723      -0.99162137
N       -1.65315350       0.37754171      -1.66153012
H        1.00582031      -1.90940988      -0.70053387
H        2.41191677      -0.56054243       0.60313238
H       -1.21078949       1.80498893       0.43583153
H       -1.64489551       0.13811873       0.90299321
10
Frame=12 idx=000378 GeodesicLength=1.2163474507130991 rxn_smarts="[N:1](=[C:2](/[O:3][C:4]([C:5]#[N:6])([H:9])[H:10])[H:8])\[H:7]>>[N:1]([C:2](=[O:3])[H:8])([C:5]1=[N:6][C:4]1([H:9])[H:10])[H:7]"
N        0.59954224      -1.10066481      -0.27509631
C        1.34177891      -0.38758050       0.55618630
O        0.88682303       0.74830644       0.87006588
C       -1.03154742       0.74901568       0.24416803
C       -0.69546076       0.14563607      -1.01168779
N       -1.65904259       0.43458233      -1.66418875
H        1.00970983      -1.94236879      -0.64981823
H        2.42475315      -0.54959232       0.58599649
H       -1.23012082       1.79092804       0.46595531
H       -1.64643557       0.11173787       0.87841906
10
Frame=13 idx=000378 GeodesicLength=1.3174082254153614 rxn_smarts="[N:1](=[C:2](/[O:3][C:4]([C:5]#[N:6])([H:9])[H:10])[H:8])\[H:7]>>[N:1]([C:2](=[O:3])[H:8])([C:5]1=[N:6][C:4]1([H:9])[H:10])[H:7]"
N        0.60084005      -1.12370071      -0.24684722
C        1.35280774      -0.38699954       0.55500250
O        0.89590372       0.75858486       0.83435320
C       -1.03693507       0.74434078       0.23627318
C       -0.70243934       0.16748153      -1.03221650
N       -1.66479274       0.49335165      -1.66590708
H        1.01416064      -1.97486990      -0.59650181
H        2.43759553      -0.53856800       0.56722709
H       -1.24826833       1.77487267       0.49656115
H       -1.64887219       0.08550668       0.85205548
10
Frame=14 idx=000378 GeodesicLength=1.4187134294265569 rxn_smarts="[N:1](=[C:2](/[O:3][C:4]([C:5]#[N:6])([H:9])[H:10])[H:8])\[H:7]>>[N:1]([C:2](=[O:3])[H:8])([C:5]1=[N:6][C:4]1([H:9])[H:10])[H:7]"
N        0.60254590      -1.14677295      -0.21680327
C        1.36433274      -0.38599488       0.55309554
O        0.90438190       0.76774565       0.79796658
C       -1.04254666       0.73922554       0.22793288
C       -0.71036849       0.19023808      -1.05339647
N       -1.67047466       0.55409669      -1.66663710
H        1.01925000      -2.00692888      -0.54021266
H        2.45055476      -0.52759300       0.54661768
H       -1.26538513       1.75666635       0.52767275
H       -1.65229036       0.05931739       0.82376407
10
Frame=15 idx=000378 GeodesicLength=1.5196196354324993 rxn_smarts="[N:1](=[C:2](/[O:3][C:4]([C:5]#[N:6])([H:9])[H:10])[H:8])\[H:7]>>[N:1]([C:2](=[O:3])[H:8])([C:5]1=[N:6][C:4]1([H:9])[H:10])[H:7]"
N        0.60437763      -1.16999525      -0.18426775
C        1.37630094      -0.38447005       0.55033220
O        0.91193770       0.77562797       0.76120640
C       -1.04827833       0.73327968       0.21915272
C       -0.71909712       0.21379665      -1.07499285
N       -1.67493223       0.61772265      -1.66627875
H        1.02449304      -2.03871150      -0.47983815
H        2.46336715      -0.51574477       0.52239556
H       -1.28119360       1.73568549       0.55942659
H       -1.65697519       0.03280913       0.79286403
10
Frame=16 idx=000378 GeodesicLength=1.6206035543413628 rxn_smarts="[N:1](=[C:2](/[O:3][C:4]([C:5]#[N:6])([H:9])[H:10])[H:8])\[H:7]>>[N:1]([C:2](=[O:3])[H:8])([C:5]1=[N:6][C:4]1([H:9])[H:10])[H:7]"
N        0.60662997      -1.19312589      -0.14950568
C        1.38858125      -0.38256337       0.54664741
O        0.91889432       0.78249215       0.72347801
C       -1.05412286       0.72688559       0.20968639
C       -0.72867622       0.23900675      -1.09749719
N       -1.67955259       0.68307756      -1.66421958
H        1.03060039      -2.06952141      -0.41627860
H        2.47583292      -0.50461797       0.49652443
H       -1.29601103       1.71216860       0.59157744
H       -1.66217615       0.00619798       0.75958737
