12
Frame=0 idx=000198 GeodesicLength=0.0 rxn_smarts="[O:1]([C:2]([C@@:3]([O:4][H:11])([C:5]#[C:6][H:12])[H:10])([H:8])[H:9])[H:7]>>[C:3]([O:4][H:7])([C:5]#[C:6][H:12])([H:10])[H:11].[O:1]=[C:2]([H:8])[H:9]"
O       -1.91256442      -0.70280996      -0.54344996
C       -1.09268726       0.12675324      -1.04921406
C        0.06035453       0.41018713       0.62769586
O       -0.77809401      -0.45831127       1.42311419
C        1.33447500      -0.06571689       0.17412561
C        2.39572361      -0.45713461      -0.22230772
H       -1.55325428      -0.77632322       0.61504839
H       -1.42681654       1.15282535      -1.23977516
H       -0.28857015      -0.23832789      -1.69432033
H       -0.18636837       1.46797427       0.61569451
H        0.10834389       0.34960396       1.85977448
H        3.33945801      -0.80872016      -0.56638582
12
Frame=1 idx=000198 GeodesicLength=0.07135809550035019 rxn_smarts="[O:1]([C:2]([C@@:3]([O:4][H:11])([C:5]#[C:6][H:12])[H:10])([H:8])[H:9])[H:7]>>[C:3]([O:4][H:7])([C:5]#[C:6][H:12])([H:10])[H:11].[O:1]=[C:2]([H:8])[H:9]"
O       -1.93063220      -0.69114984      -0.54549889
C       -1.09338378       0.11856921      -1.05778095
C        0.05914947       0.40757083       0.63705182
O       -0.78082286      -0.45638462       1.43017637
C        1.33321597      -0.07511529       0.18625091
C        2.39645115      -0.45349401      -0.21712626
H       -1.56938354      -0.77034840       0.61706971
H       -1.38661776       1.15535915      -1.25647413
H       -0.30962096      -0.27227116      -1.71323036
H       -0.17166026       1.46933261       0.62779312
H        0.11103852       0.34059049       1.87881061
H        3.34226624      -0.77265897      -0.58704194
12
Frame=2 idx=000198 GeodesicLength=0.1429699408144792 rxn_smarts="[O:1]([C:2]([C@@:3]([O:4][H:11])([C:5]#[C:6][H:12])[H:10])([H:8])[H:9])[H:7]>>[C:3]([O:4][H:7])([C:5]#[C:6][H:12])([H:10])[H:11].[O:1]=[C:2]([H:8])[H:9]"
O       -1.94970578      -0.67819763      -0.54715230
C       -1.09517006       0.11053041      -1.06646526
C        0.05850940       0.40446971       0.64559052
O       -0.78299277      -0.45440775       1.43700761
C        1.33166635      -0.08615109       0.19638511
C        2.39800803      -0.45051857      -0.21143342
H       -1.58583853      -0.76358086       0.61925080
H       -1.34601117       1.15675085      -1.27276584
H       -0.33435458      -0.30601889      -1.73349982
H       -0.15541956       1.47015449       0.63961349
H        0.11517579       0.33055176       1.89708691
H        3.34613288      -0.73358243      -0.60361780
12
Frame=3 idx=000198 GeodesicLength=0.21456780142660534 rxn_smarts="[O:1]([C:2]([C@@:3]([O:4][H:11])([C:5]#[C:6][H:12])[H:10])([H:8])[H:9])[H:7]>>[C:3]([O:4][H:7])([C:5]#[C:6][H:12])([H:10])[H:11].[O:1]=[C:2]([H:8])[H:9]"
O       -1.96970639      -0.66455670      -0.54787251
C       -1.09918190       0.10309668      -1.07504146
C        0.05851539       0.40135199       0.65276030
O       -0.78334703      -0.45275577       1.44338710
C        1.32984969      -0.09728306       0.20268986
C        2.39715376      -0.44855713      -0.21381386
H       -1.60169555      -0.75671753       0.62184932
H       -1.30726119       1.15725407      -1.28768086
H       -0.36426801      -0.33784012      -1.75580393
H       -0.13818093       1.47074252       0.65126699
H        0.12216559       0.31917972       1.91391968
H        3.35595655      -0.69391467      -0.60566063
12
Frame=4 idx=000198 GeodesicLength=0.28631541529146814 rxn_smarts="[O:1]([C:2]([C@@:3]([O:4][H:11])([C:5]#[C:6][H:12])[H:10])([H:8])[H:9])[H:7]>>[C:3]([O:4][H:7])([C:5]#[C:6][H:12])([H:10])[H:11].[O:1]=[C:2]([H:8])[H:9]"
O       -1.98855529      -0.65047359      -0.54951863
C       -1.10162061       0.09505287      -1.08394669
C        0.05848159       0.39850248       0.66090358
O       -0.78454469      -0.45061292       1.45013768
C        1.32831413      -0.10850962       0.21129875
C        2.39762555      -0.44587087      -0.21142428
H       -1.61763626      -0.74941664       0.62390975
H       -1.26568034       1.15543295      -1.30346092
H       -0.39407078      -0.36985173      -1.77814253
H       -0.12075595       1.47133864       0.66363106
H        0.12785897       0.30792656       1.93188181
H        3.36058369      -0.65351814      -0.61526958
12
Frame=5 idx=000198 GeodesicLength=0.35791101172178563 rxn_smarts="[O:1]([C:2]([C@@:3]([O:4][H:11])([C:5]#[C:6][H:12])[H:10])([H:8])[H:9])[H:7]>>[C:3]([O:4][H:7])([C:5]#[C:6][H:12])([H:10])[H:11].[O:1]=[C:2]([H:8])[H:9]"
O       -2.00452672      -0.63813901      -0.55245703
C       -1.10247610       0.08660319      -1.09306194
C        0.05826596       0.39697258       0.67005851
O       -0.78572133      -0.44795805       1.45725395
C        1.32738955      -0.11724758       0.22188087
C        2.39721409      -0.44171698      -0.20947180
H       -1.63214691      -0.74304361       0.62521009
H       -1.22355655       1.15135329      -1.31877566
H       -0.42307367      -0.39955474      -1.80121587
H       -0.10435184       1.47282155       0.67714648
H        0.13260996       0.29740744       1.95096267
H        3.36037357      -0.61749808      -0.62753029
12
Frame=6 idx=000198 GeodesicLength=0.42957451594390605 rxn_smarts="[O:1]([C:2]([C@@:3]([O:4][H:11])([C:5]#[C:6][H:12])[H:10])([H:8])[H:9])[H:7]>>[C:3]([O:4][H:7])([C:5]#[C:6][H:12])([H:10])[H:11].[O:1]=[C:2]([H:8])[H:9]"
O       -2.01883618      -0.62656525      -0.55627996
C       -1.10229210       0.07776765      -1.10240518
C        0.05795330       0.39629340       0.67986080
O       -0.78686756      -0.44498935       1.46459228
C        1.32686113      -0.12444804       0.23371885
C        2.39710506      -0.43592731      -0.20604155
H       -1.64579031      -0.73721934       0.62590835
H       -1.18060709       1.14521746      -1.33383098
H       -0.45245332      -0.42767959      -1.82520640
H       -0.08851674       1.47481559       0.69153007
H        0.13670381       0.28722317       1.97080093
H        3.35674000      -0.58448840      -0.64264722
12
Frame=7 idx=000198 GeodesicLength=0.5014189619251331 rxn_smarts="[O:1]([C:2]([C@@:3]([O:4][H:11])([C:5]#[C:6][H:12])[H:10])([H:8])[H:9])[H:7]>>[C:3]([O:4][H:7])([C:5]#[C:6][H:12])([H:10])[H:11].[O:1]=[C:2]([H:8])[H:9]"
O       -2.03266564      -0.61502033      -0.56034404
C       -1.10210826       0.06867563      -1.11195586
C        0.05784678       0.39594741       0.68956663
O       -0.78759747      -0.44181210       1.47194547
C        1.32647418      -0.13130757       0.24524820
C        2.39772044      -0.42919010      -0.20144090
H       -1.65897339      -0.73149409       0.62637762
H       -1.13743655       1.13724164      -1.34849653
H       -0.48416992      -0.45432966      -1.85064141
H       -0.07240811       1.47688927       0.70616093
H        0.14114077       0.27687288       1.99061453
H        3.35217718      -0.55247297      -0.65703464
12
Frame=8 idx=000198 GeodesicLength=0.5732813895695102 rxn_smarts="[O:1]([C:2]([C@@:3]([O:4][H:11])([C:5]#[C:6][H:12])[H:10])([H:8])[H:9])[H:7]>>[C:3]([O:4][H:7])([C:5]#[C:6][H:12])([H:10])[H:11].[O:1]=[C:2]([H:8])[H:9]"
O       -2.04561163      -0.60399103      -0.56469303
C       -1.10172375       0.05922655      -1.12165495
C        0.05794444       0.39611084       0.69932060
O       -0.78800675      -0.43808847       1.47952749
C        1.32625550      -0.13772462       0.25679235
C        2.39722455      -0.42314711      -0.19864309
H       -1.67156781      -0.72590334       0.62670361
H       -1.09426143       1.12734979      -1.36256459
H       -0.51797811      -0.47902423      -1.87759394
H       -0.05594667       1.47922175       0.72106375
H        0.14596140       0.26655916       2.01054120
H        3.34771027      -0.52058928      -0.66879941
12
Frame=9 idx=000198 GeodesicLength=0.6452952747612225 rxn_smarts="[O:1]([C:2]([C@@:3]([O:4][H:11])([C:5]#[C:6][H:12])[H:10])([H:8])[H:9])[H:7]>>[C:3]([O:4][H:7])([C:5]#[C:6][H:12])([H:10])[H:11].[O:1]=[C:2]([H:8])[H:9]"
O       -2.05840134      -0.59290325      -0.56901210
C       -1.10166521       0.04944246      -1.13155505
C        0.05832025       0.39657413       0.70875410
O       -0.78777533      -0.43416168       1.48710034
C        1.32616639      -0.14384434       0.26757915
C        2.39702468      -0.41669304      -0.19581306
H       -1.68366106      -0.72048459       0.62694196
H       -1.05131543       1.11554820      -1.37623580
H       -0.55500117      -0.50181121      -1.90622846
H       -0.03910019       1.48159026       0.73599775
H        0.15148126       0.25603172       2.03019167
H        3.34392715      -0.48928867      -0.67772049
12
Frame=10 idx=000198 GeodesicLength=0.7173690658715135 rxn_smarts="[O:1]([C:2]([C@@:3]([O:4][H:11])([C:5]#[C:6][H:12])[H:10])([H:8])[H:9])[H:7]>>[C:3]([O:4][H:7])([C:5]#[C:6][H:12])([H:10])[H:11].[O:1]=[C:2]([H:8])[H:9]"
O       -2.07029325      -0.58242860      -0.57364661
C       -1.10128228       0.03909399      -1.14166018
C        0.05887608       0.39758401       0.71825823
O       -0.78722767      -0.42968489       1.49491479
C        1.32631454      -0.14939802       0.27856519
C        2.39623721      -0.41054485      -0.19372389
H       -1.69509616      -0.71538401       0.62698369
H       -1.00841728       1.10166937      -1.38937394
H       -0.59435259      -0.52219467      -1.93651734
H       -0.02200759       1.48423504       0.75115209
H        0.15723302       0.24568231       2.04999281
H        3.34001597      -0.45862967      -0.68494484
12
Frame=11 idx=000198 GeodesicLength=0.7895570611570294 rxn_smarts="[O:1]([C:2]([C@@:3]([O:4][H:11])([C:5]#[C:6][H:12])[H:10])([H:8])[H:9])[H:7]>>[C:3]([O:4][H:7])([C:5]#[C:6][H:12])([H:10])[H:11].[O:1]=[C:2]([H:8])[H:9]"
O       -2.08118519      -0.57254322      -0.57875001
C       -1.10026313       0.02800154      -1.15203268
C        0.05954751       0.39917095       0.72797563
O       -0.78646390      -0.42472835       1.50296985
C        1.32679321      -0.15420966       0.29016334
C        2.39570191      -0.40391794      -0.19063163
H       -1.70583395      -0.71075387       0.62667896
H       -0.96522998       1.08555943      -1.40208131
H       -0.63584555      -0.54003079      -1.96843561
H       -0.00488879       1.48717570       0.76663062
H        0.16286488       0.23562800       2.07012282
H        3.33480299      -0.42935180      -0.69260998
12
Frame=12 idx=000198 GeodesicLength=0.8618248299984257 rxn_smarts="[O:1]([C:2]([C@@:3]([O:4][H:11])([C:5]#[C:6][H:12])[H:10])([H:8])[H:9])[H:7]>>[C:3]([O:4][H:7])([C:5]#[C:6][H:12])([H:10])[H:11].[O:1]=[C:2]([H:8])[H:9]"
O       -2.09096396      -0.56343520      -0.58433688
C       -1.09848285       0.01598288      -1.16268120
C        0.06033198       0.40138901       0.73793123
O       -0.78550224      -0.41918393       1.51133098
C        1.32763443      -0.15823771       0.30251273
C        2.39505970      -0.39714895      -0.18709897
H       -1.71580566      -0.70668374       0.62603831
H       -0.92181123       1.06711603      -1.41427820
H       -0.67953096      -0.55491018      -2.00204034
H        0.01224813       1.49047198       0.78239506
H        0.16835001       0.22600091       2.09062458
H        3.32847265      -0.40136109      -0.70039729
12
Frame=13 idx=000198 GeodesicLength=0.9341924292457429 rxn_smarts="[O:1]([C:2]([C@@:3]([O:4][H:11])([C:5]#[C:6][H:12])[H:10])([H:8])[H:9])[H:7]>>[C:3]([O:4][H:7])([C:5]#[C:6][H:12])([H:10])[H:11].[O:1]=[C:2]([H:8])[H:9]"
O       -2.10002264      -0.55468972      -0.59021152
C       -1.09613520       0.00287230      -1.17364743
C        0.06127516       0.40411842       0.74794186
O       -0.78419960      -0.41319416       1.51990121
C        1.32884474      -0.16159508       0.31530866
C        2.39465864      -0.39004534      -0.18286181
H       -1.72505711      -0.70320470       0.62510102
H       -0.87812663       1.04614144      -1.42612240
H       -0.72611585      -0.56666677      -2.03727711
H        0.02942249       1.49400751       0.79827495
H        0.17384607       0.21670473       2.11131847
H        3.32160992      -0.37444863      -0.70772590
12
Frame=14 idx=000198 GeodesicLength=1.0066428520580437 rxn_smarts="[O:1]([C:2]([C@@:3]([O:4][H:11])([C:5]#[C:6][H:12])[H:10])([H:8])[H:9])[H:7]>>[C:3]([O:4][H:7])([C:5]#[C:6][H:12])([H:10])[H:11].[O:1]=[C:2]([H:8])[H:9]"
O       -2.10796828      -0.54650937      -0.59660789
C       -1.09267960      -0.01165860      -1.18497107
C        0.06229738       0.40747335       0.75825761
O       -0.78274635      -0.40666755       1.52878656
C        1.33054156      -0.16405687       0.32923163
C        2.39444981      -0.38248513      -0.17757628
H       -1.73347464      -0.70049599       0.62372089
H       -0.83379004       1.02238037      -1.43755654
H       -0.77509631      -0.57482255      -2.07402048
H        0.04640919       1.49790476       0.81441933
H        0.17893962       0.20798470       2.13251018
H        3.31311767      -0.34904712      -0.71619394
12
Frame=15 idx=000198 GeodesicLength=1.0791910271455873 rxn_smarts="[O:1]([C:2]([C@@:3]([O:4][H:11])([C:5]#[C:6][H:12])[H:10])([H:8])[H:9])[H:7]>>[C:3]([O:4][H:7])([C:5]#[C:6][H:12])([H:10])[H:11].[O:1]=[C:2]([H:8])[H:9]"
O       -2.11455161      -0.53957513      -0.60357952
C       -1.08807541      -0.02796930      -1.19670806
C        0.06341938       0.41150186       0.76874567
O       -0.78112610      -0.39938820       1.53802323
C        1.33271917      -0.16567831       0.34422359
C        2.39457980      -0.37460281      -0.17097423
H       -1.74095522      -0.69869250       0.62195124
H       -0.78931514       0.99575552      -1.44824927
H       -0.82671469      -0.57824510      -2.11250940
H        0.06327352       1.50223331       0.83056135
H        0.18366707       0.20014486       2.15411921
H        3.30307923      -0.32548419      -0.72560380
12
Frame=16 idx=000198 GeodesicLength=1.1518555125205931 rxn_smarts="[O:1]([C:2]([C@@:3]([O:4][H:11])([C:5]#[C:6][H:12])[H:10])([H:8])[H:9])[H:7]>>[C:3]([O:4][H:7])([C:5]#[C:6][H:12])([H:10])[H:11].[O:1]=[C:2]([H:8])[H:9]"
O       -2.11972122      -0.53379676      -0.61115398
C       -1.08205914      -0.04649272      -1.20893629
C        0.06460539       0.41621566       0.77941733
O       -0.77934069      -0.39141016       1.54759217
C        1.33546910      -0.16630120       0.36050326
C        2.39525460      -0.36608352      -0.16270406
H       -1.74736904      -0.69805039       0.61969895
H       -0.74445439       0.96594739      -1.45822197
H       -0.88109895      -0.57624806      -2.15249548
H        0.07979515       1.50702495       0.84663931
H        0.18785078       0.19334560       2.17621226
H        3.29106842      -0.30415078      -0.73655149
