14
Frame=0 idx=004658 GeodesicLength=0.0 rxn_smarts="[C:1]1([H:7])([H:8])[O:2][C:3]12[C:4]([H:9])([H:10])[C:5]([H:11])([H:12])[C:6]2([H:13])[H:14]>>[C:1]1([H:7])([H:8])[O:2][C@@:3]1([C:4]([H:9])([H:10])[H:11])[C:6]([C:5][H:12])([H:13])[H:14]"
C        1.62912701      -0.45561970       0.33377539
O        1.49488769       0.92308021       0.66655909
C        0.36862827       0.24951003       0.14898118
C       -0.82185136       0.04697968       1.05712337
C       -1.51595367      -0.24485723      -1.03793263
C       -0.24038419       0.57979226      -1.18540208
H        1.75665752      -1.12514797       1.18027458
H        2.25742071      -0.66617941      -0.52739027
H       -1.13308570       0.98325272       1.52389802
H       -0.74263808      -0.75195789       1.79158667
H       -1.77705563      -0.14376544       0.37999246
H       -1.19040475      -1.30193708      -1.01482826
H       -0.44966522       1.64757388      -1.28030033
H        0.36431736       0.25927594      -2.03633715
14
Frame=1 idx=004658 GeodesicLength=0.0615570220427726 rxn_smarts="[C:1]1([H:7])([H:8])[O:2][C:3]12[C:4]([H:9])([H:10])[C:5]([H:11])([H:12])[C:6]2([H:13])[H:14]>>[C:1]1([H:7])([H:8])[O:2][C@@:3]1([C:4]([H:9])([H:10])[H:11])[C:6]([C:5][H:12])([H:13])[H:14]"
C        1.63145771      -0.45597256       0.33410090
O        1.49934867       0.92286588       0.66674511
C        0.37103687       0.25022077       0.15250343
C       -0.82296129       0.04706074       1.05502114
C       -1.50776054      -0.24832269      -1.03937438
C       -0.23964575       0.58294550      -1.18102508
H        1.75997670      -1.12571388       1.18025659
H        2.25706978      -0.66797542      -0.52877951
H       -1.13083343       0.98466351       1.52222180
H       -0.73782174      -0.74661277       1.79543078
H       -1.80038076      -0.14212151       0.38043042
H       -1.18721709      -1.30680310      -1.02569677
H       -0.45026934       1.64998972      -1.27600802
H        0.35800021       0.25577582      -2.03582642
14
Frame=2 idx=004658 GeodesicLength=0.12213274941685132 rxn_smarts="[C:1]1([H:7])([H:8])[O:2][C:3]12[C:4]([H:9])([H:10])[C:5]([H:11])([H:12])[C:6]2([H:13])[H:14]>>[C:1]1([H:7])([H:8])[O:2][C@@:3]1([C:4]([H:9])([H:10])[H:11])[C:6]([C:5][H:12])([H:13])[H:14]"
C        1.63385856      -0.45632236       0.33444263
O        1.50391060       0.92261017       0.66689653
C        0.37358107       0.25103084       0.15604490
C       -0.82409568       0.04705743       1.05285806
C       -1.49966364      -0.25171027      -1.04031354
C       -0.23888703       0.58598995      -1.17667112
H        1.76335764      -1.12626260       1.18027069
H        2.25676001      -0.66977905      -0.53018451
H       -1.12877494       0.98592689       1.52040471
H       -0.73309528      -0.74116920       1.79911153
H       -1.82364787      -0.14044245       0.38076735
H       -1.18405110      -1.31150019      -1.03665062
H       -0.45092754       1.65231137      -1.27171914
H        0.35167519       0.25225945      -2.03525747
14
Frame=3 idx=004658 GeodesicLength=0.18202090339200494 rxn_smarts="[C:1]1([H:7])([H:8])[O:2][C:3]12[C:4]([H:9])([H:10])[C:5]([H:11])([H:12])[C:6]2([H:13])[H:14]>>[C:1]1([H:7])([H:8])[O:2][C@@:3]1([C:4]([H:9])([H:10])[H:11])[C:6]([C:5][H:12])([H:13])[H:14]"
C        1.63633203      -0.45664409       0.33481248
O        1.50850696       0.92241750       0.66698925
C        0.37620542       0.25186107       0.15963373
C       -0.82522445       0.04696789       1.05065631
C       -1.49158954      -0.25514199      -1.04089611
C       -0.23815888       0.58891382      -1.17232781
H        1.76680862      -1.12675786       1.18031181
H        2.25645994      -0.67159097      -0.53157393
H       -1.12682296       0.98703687       1.51853177
H       -0.72841313      -0.73578104       1.80271163
H       -1.84691538      -0.13848089       0.38099285
H       -1.18094706      -1.31608605      -1.04774676
H       -0.45154617       1.65455881      -1.26743987
H        0.34530459       0.24872693      -2.03465538
14
Frame=4 idx=004658 GeodesicLength=0.24103203802737 rxn_smarts="[C:1]1([H:7])([H:8])[O:2][C:3]12[C:4]([H:9])([H:10])[C:5]([H:11])([H:12])[C:6]2([H:13])[H:14]>>[C:1]1([H:7])([H:8])[O:2][C@@:3]1([C:4]([H:9])([H:10])[H:11])[C:6]([C:5][H:12])([H:13])[H:14]"
C        1.63888159      -0.45694331       0.33514047
O        1.51316609       0.92222288       0.66705121
C        0.37893793       0.25271370       0.16325543
C       -0.82635810       0.04670523       1.04842286
C       -1.48361149      -0.25859110      -1.04107811
C       -0.23743766       0.59170724      -1.16798955
H        1.77030231      -1.12721313       1.18038989
H        2.25618192      -0.67348414      -0.53294379
H       -1.12502742       0.98801858       1.51652466
H       -0.72374719      -0.73020791       1.80625273
H       -1.87013434      -0.13645648       0.38109064
H       -1.17786253      -1.32042810      -1.05900181
H       -0.45221067       1.65670016      -1.26315718
H        0.33891956       0.24525637      -2.03395745
14
Frame=5 idx=004658 GeodesicLength=0.29934085709869923 rxn_smarts="[C:1]1([H:7])([H:8])[O:2][C:3]12[C:4]([H:9])([H:10])[C:5]([H:11])([H:12])[C:6]2([H:13])[H:14]>>[C:1]1([H:7])([H:8])[O:2][C@@:3]1([C:4]([H:9])([H:10])[H:11])[C:6]([C:5][H:12])([H:13])[H:14]"
C        1.64150857      -0.45720843       0.33551968
O        1.51784709       0.92209499       0.66717012
C        0.38180391       0.25363041       0.16682506
C       -0.82743240       0.04645608       1.04620767
C       -1.47574543      -0.26195121      -1.04069397
C       -0.23673315       0.59428806      -1.16373025
H        1.77386463      -1.12768664       1.18044304
H        2.25596900      -0.67529292      -0.53433017
H       -1.12341792       0.98876986       1.51444022
H       -0.71916142      -0.72478498       1.80965843
H       -1.89334584      -0.13414489       0.38103633
H       -1.17486028      -1.32456112      -1.07032836
H       -0.45290172       1.65868501      -1.25900376
H        0.33260496       0.24170577      -2.03321404
14
Frame=6 idx=004658 GeodesicLength=0.3570037417867864 rxn_smarts="[C:1]1([H:7])([H:8])[O:2][C:3]12[C:4]([H:9])([H:10])[C:5]([H:11])([H:12])[C:6]2([H:13])[H:14]>>[C:1]1([H:7])([H:8])[O:2][C@@:3]1([C:4]([H:9])([H:10])[H:11])[C:6]([C:5][H:12])([H:13])[H:14]"
C        1.64420996      -0.45748378       0.33587911
O        1.52260836       0.92195848       0.66723498
C        0.38478098       0.25457729       0.17040672
C       -0.82849190       0.04606578       1.04399887
C       -1.46794898      -0.26545253      -1.03985769
C       -0.23605662       0.59674248      -1.15944722
H        1.77748892      -1.12809231       1.18054957
H        2.25580322      -0.67710762      -0.53569539
H       -1.12196097       0.98936649       1.51224983
H       -0.71458156      -0.71927970       1.81297508
H       -1.91659124      -0.13151103       0.38079405
H       -1.17186633      -1.32850601      -1.08189720
H       -0.45362483       1.66057156      -1.25479881
H        0.32623100       0.23815092      -2.03239192
14
Frame=7 idx=004658 GeodesicLength=0.41414741854937986 rxn_smarts="[C:1]1([H:7])([H:8])[O:2][C:3]12[C:4]([H:9])([H:10])[C:5]([H:11])([H:12])[C:6]2([H:13])[H:14]>>[C:1]1([H:7])([H:8])[O:2][C@@:3]1([C:4]([H:9])([H:10])[H:11])[C:6]([C:5][H:12])([H:13])[H:14]"
C        1.64697015      -0.45772552       0.33625718
O        1.52742595       0.92185069       0.66729020
C        0.38782788       0.25553422       0.17403592
C       -0.82953504       0.04559006       1.04179406
C       -1.46016969      -0.26893484      -1.03870369
C       -0.23537061       0.59909654      -1.15517561
H        1.78116981      -1.12853357       1.18060441
H        2.25560457      -0.67898031      -0.53707361
H       -1.12062024       0.98988561       1.50997342
H       -0.71000638      -0.71360951       1.81628885
H       -1.93983899      -0.12887747       0.38029515
H       -1.16890946      -1.33236009      -1.09352275
H       -0.45438372       1.66240193      -1.25057470
H        0.31983577       0.23466226      -2.03148884
14
Frame=8 idx=004658 GeodesicLength=0.47052974347600124 rxn_smarts="[C:1]1([H:7])([H:8])[O:2][C:3]12[C:4]([H:9])([H:10])[C:5]([H:11])([H:12])[C:6]2([H:13])[H:14]>>[C:1]1([H:7])([H:8])[O:2][C@@:3]1([C:4]([H:9])([H:10])[H:11])[C:6]([C:5][H:12])([H:13])[H:14]"
C        1.64978167      -0.45796741       0.33661714
O        1.53226153       0.92177828       0.66730850
C        0.39095169       0.25651283       0.17768304
C       -0.83050144       0.04501659       1.03965570
C       -1.45251692      -0.27242080      -1.03712872
C       -0.23470650       0.60124946      -1.15094260
H        1.78493038      -1.12888542       1.18070235
H        2.25543754      -0.68081497      -0.53841767
H       -1.11943004       0.99021279       1.50767517
H       -0.70546583      -0.70798812       1.81951331
H       -1.96301399      -0.12597010       0.37957290
H       -1.16604647      -1.33593843      -1.10528740
H       -0.45516074       1.66407767      -1.24641289
H        0.31347912       0.23113763      -2.03053880
14
Frame=9 idx=004658 GeodesicLength=0.5261146113532496 rxn_smarts="[C:1]1([H:7])([H:8])[O:2][C:3]12[C:4]([H:9])([H:10])[C:5]([H:11])([H:12])[C:6]2([H:13])[H:14]>>[C:1]1([H:7])([H:8])[O:2][C@@:3]1([C:4]([H:9])([H:10])[H:11])[C:6]([C:5][H:12])([H:13])[H:14]"
C        1.65267178      -0.45817184       0.33700377
O        1.53711453       0.92171849       0.66732515
C        0.39410265       0.25745826       0.18133413
C       -0.83129975       0.04441860       1.03772554
C       -1.44512268      -0.27609883      -1.03546801
C       -0.23410187       0.60325254      -1.14670406
H        1.78877571      -1.12927848       1.18078914
H        2.25531100      -0.68260181      -0.53974970
H       -1.11848465       0.99049252       1.50533202
H       -0.70088427      -0.70242463       1.82281081
H       -1.98595380      -0.12269871       0.37850049
H       -1.16321400      -1.33929517      -1.11720668
H       -0.45597185       1.66567654      -1.24221463
H        0.30705720       0.22755254      -2.02947794
14
Frame=10 idx=004658 GeodesicLength=0.5808762524593427 rxn_smarts="[C:1]1([H:7])([H:8])[O:2][C:3]12[C:4]([H:9])([H:10])[C:5]([H:11])([H:12])[C:6]2([H:13])[H:14]>>[C:1]1([H:7])([H:8])[O:2][C@@:3]1([C:4]([H:9])([H:10])[H:11])[C:6]([C:5][H:12])([H:13])[H:14]"
C        1.65558436      -0.45835705       0.33738384
O        1.54194628       0.92168498       0.66731718
C        0.39729013       0.25844196       0.18499949
C       -0.83203188       0.04371670       1.03586205
C       -1.43781475      -0.27985143      -1.03354339
C       -0.23350595       0.60506932      -1.14251708
H        1.79268386      -1.12958701       1.18089528
H        2.25515680      -0.68446858      -0.54108981
H       -1.11761444       0.99065201       1.50297715
H       -0.69633753      -0.69683902       1.82603360
H       -2.00880821      -0.11922284       0.37728418
H       -1.16042529      -1.34246358      -1.12923128
H       -0.45681693       1.66711874      -1.23807429
H        0.30069355       0.22410581      -2.02829692
14
Frame=11 idx=004658 GeodesicLength=0.6349425144396431 rxn_smarts="[C:1]1([H:7])([H:8])[O:2][C:3]12[C:4]([H:9])([H:10])[C:5]([H:11])([H:12])[C:6]2([H:13])[H:14]>>[C:1]1([H:7])([H:8])[O:2][C@@:3]1([C:4]([H:9])([H:10])[H:11])[C:6]([C:5][H:12])([H:13])[H:14]"
C        1.65856948      -0.45852329       0.33774973
O        1.54681534       0.92169631       0.66728340
C        0.40055873       0.25939863       0.18866011
C       -0.83271009       0.04291577       1.03402910
C       -1.43066076      -0.28363461      -1.03125153
C       -0.23292803       0.60675240      -1.13834847
H        1.79666640      -1.12986387       1.18100952
H        2.25504596      -0.68631434      -0.54239884
H       -1.11689545       0.99065624       1.50056879
H       -0.69175821      -0.69124110       1.82926120
H       -2.03164723      -0.11552036       0.37573702
H       -1.15773783      -1.34545575      -1.14131760
H       -0.45768040       1.66849472      -1.23392193
H        0.29436208       0.22063924      -2.02706050
14
Frame=12 idx=004658 GeodesicLength=0.6883940660406992 rxn_smarts="[C:1]1([H:7])([H:8])[O:2][C:3]12[C:4]([H:9])([H:10])[C:5]([H:11])([H:12])[C:6]2([H:13])[H:14]>>[C:1]1([H:7])([H:8])[O:2][C@@:3]1([C:4]([H:9])([H:10])[H:11])[C:6]([C:5][H:12])([H:13])[H:14]"
C        1.66158217      -0.45876242       0.33809234
O        1.55171932       0.92168591       0.66722329
C        0.40388617       0.26042542       0.19234385
C       -0.83330573       0.04209312       1.03226457
C       -1.42352588      -0.28757958      -1.02866351
C       -0.23237268       0.60832840      -1.13419518
H        1.80069440      -1.13008843       1.18113284
H        2.25498219      -0.68806477      -0.54367510
H       -1.11628966       0.99049334       1.49814340
H       -0.68721608      -0.68567614       1.83243418
H       -2.05445115      -0.11155805       0.37403344
H       -1.15514571      -1.34817971      -1.15352975
H       -0.45859179       1.66970547      -1.22987321
H        0.28803444       0.21717745      -2.02573115
14
Frame=13 idx=004658 GeodesicLength=0.7413381769710273 rxn_smarts="[C:1]1([H:7])([H:8])[O:2][C:3]12[C:4]([H:9])([H:10])[C:5]([H:11])([H:12])[C:6]2([H:13])[H:14]>>[C:1]1([H:7])([H:8])[O:2][C@@:3]1([C:4]([H:9])([H:10])[H:11])[C:6]([C:5][H:12])([H:13])[H:14]"
C        1.66467466      -0.45889692       0.33846725
O        1.55663293       0.92174257       0.66713612
C        0.40727848       0.26139781       0.19609351
C       -0.83385326       0.04109548       1.03057021
C       -1.41641439      -0.29175834      -1.02572630
C       -0.23183876       0.60975503      -1.13000571
H        1.80481533      -1.13034238       1.18124356
H        2.25493238      -0.68982521      -0.54496344
H       -1.11579359       0.99022218       1.49567638
H       -0.68261880      -0.67999524       1.83564911
H       -2.07725266      -0.10731170       0.37193182
H       -1.15265883      -1.35055411      -1.16594576
H       -0.45955473       1.67082782      -1.22576706
H        0.28165124       0.21364300      -2.02435968
14
Frame=14 idx=004658 GeodesicLength=0.7935681362590192 rxn_smarts="[C:1]1([H:7])([H:8])[O:2][C:3]12[C:4]([H:9])([H:10])[C:5]([H:11])([H:12])[C:6]2([H:13])[H:14]>>[C:1]1([H:7])([H:8])[O:2][C@@:3]1([C:4]([H:9])([H:10])[H:11])[C:6]([C:5][H:12])([H:13])[H:14]"
C        1.66782224      -0.45901428       0.33883546
O        1.56157346       0.92182683       0.66701735
C        0.41073876       0.26243155       0.19984029
C       -0.83433319       0.04003043       1.02893407
C       -1.40937004      -0.29608376      -1.02247396
C       -0.23136329       0.61102373      -1.12587556
H        1.80901904      -1.13052258       1.18137654
H        2.25487043      -0.69166014      -0.54625934
H       -1.11549060       0.98976193       1.49314317
H       -0.67799125      -0.67432237       1.83883951
H       -2.10000310      -0.10277155       0.36963358
H       -1.15024013      -1.35267527      -1.17849069
H       -0.46054333       1.67180581      -1.22166663
H        0.27531101       0.21016968      -2.02285380
14
Frame=15 idx=004658 GeodesicLength=0.8450824451323933 rxn_smarts="[C:1]1([H:7])([H:8])[O:2][C:3]12[C:4]([H:9])([H:10])[C:5]([H:11])([H:12])[C:6]2([H:13])[H:14]>>[C:1]1([H:7])([H:8])[O:2][C@@:3]1([C:4]([H:9])([H:10])[H:11])[C:6]([C:5][H:12])([H:13])[H:14]"
C        1.67103568      -0.45910006       0.33919568
O        1.56653749       0.92191661       0.66688482
C        0.41425550       0.26343242       0.20360843
C       -0.83474918       0.03880495       1.02735414
C       -1.40242580      -0.30053192      -1.01889819
C       -0.23091940       0.61215099      -1.12173530
H        1.81327948      -1.13072882       1.18149404
H        2.25487953      -0.69336091      -0.54751647
H       -1.11530869       0.98915010       1.49055814
H       -0.67336944      -0.66861883       1.84200359
H       -2.12271648      -0.09781675       0.36710521
H       -1.14787266      -1.35462404      -1.19115858
H       -0.46158575       1.67267041      -1.21759096
H        0.26895973       0.20665585      -2.02130453
14
Frame=16 idx=004658 GeodesicLength=0.8959194596311469 rxn_smarts="[C:1]1([H:7])([H:8])[O:2][C:3]12[C:4]([H:9])([H:10])[C:5]([H:11])([H:12])[C:6]2([H:13])[H:14]>>[C:1]1([H:7])([H:8])[O:2][C@@:3]1([C:4]([H:9])([H:10])[H:11])[C:6]([C:5][H:12])([H:13])[H:14]"
C        1.67427887      -0.45920082       0.33955513
O        1.57151664       0.92204205       0.66669198
C        0.41781627       0.26444886       0.20739133
C       -0.83510550       0.03747572       1.02586480
C       -1.39552623      -0.30509291      -1.01498854
C       -0.23050922       0.61314286      -1.11757532
H        1.81762928      -1.13081048       1.18166457
H        2.25487901      -0.69509517      -0.54875439
H       -1.11522905       0.98838293       1.48797461
H       -0.66869498      -0.66291918       1.84517991
H       -2.14533816      -0.09263249       0.36419771
H       -1.14563740      -1.35626470      -1.20398349
H       -0.46268534       1.67340820      -1.21352182
H        0.26260580       0.20311512      -2.01969645
