16
Frame=0 idx=006458 GeodesicLength=0.0 rxn_smarts="[C:1]([O:2][C:3]([C:4]([H:11])([H:12])[H:13])([C:5]([H:14])([H:15])[H:16])[C:6]#[N:7])([H:8])([H:9])[H:10]>>[C:1]([O:2][C:3]([C:4]([H:11])([H:12])[H:13])([C:5]([H:14])([H:15])[H:16])[N+:7]#[C-:6])([H:8])([H:9])[H:10]"
C        2.01862992       0.42943824      -0.12480543
O        0.82187601       0.13366076      -0.84496681
C       -0.29434630      -0.08309117      -0.20500789
C       -1.37968456      -0.48915930      -1.15054329
C       -0.27721801      -0.72532047       1.14760141
C       -0.50090703       1.95644770       0.62194451
N       -1.58663308       1.78993715       0.21559978
H        1.82288090       1.29056576       0.51885367
H        2.34172908      -0.43506609       0.45600519
H        2.76108975       0.66696389      -0.88065822
H       -1.13229781      -1.50072076      -1.49121127
H       -1.40494978       0.17508028      -2.00958027
H       -2.34718279      -0.49148298      -0.66077195
H       -1.27133293      -0.68624249       1.58248494
H        0.42378366      -0.25642310       1.83005837
H        0.00456293      -1.77458738       0.99499724
16
Frame=1 idx=006458 GeodesicLength=0.06398629669190374 rxn_smarts="[C:1]([O:2][C:3]([C:4]([H:11])([H:12])[H:13])([C:5]([H:14])([H:15])[H:16])[C:6]#[N:7])([H:8])([H:9])[H:10]>>[C:1]([O:2][C:3]([C:4]([H:11])([H:12])[H:13])([C:5]([H:14])([H:15])[H:16])[N+:7]#[C-:6])([H:8])([H:9])[H:10]"
C        2.01625554       0.43398953      -0.12662252
O        0.81779413       0.13999117      -0.84235751
C       -0.30499989      -0.06087944      -0.19633872
C       -1.38158128      -0.49053027      -1.14508094
C       -0.27970547      -0.72921061       1.14613082
C       -0.50778762       1.94721138       0.66290922
N       -1.55822154       1.81419172       0.16853877
H        1.82862225       1.29953533       0.51369943
H        2.33885431      -0.42857607       0.45770089
H        2.75878579       0.66511206      -0.88460954
H       -1.12722270      -1.50338264      -1.47575227
H       -1.40698714       0.15776735      -2.01639831
H       -2.35230180      -0.49612360      -0.66110805
H       -1.27193321      -0.69575324       1.58642161
H        0.42841334      -0.27732584       1.83311873
H        0.00201529      -1.77601683       0.97974839
16
Frame=2 idx=006458 GeodesicLength=0.1278088901619689 rxn_smarts="[C:1]([O:2][C:3]([C:4]([H:11])([H:12])[H:13])([C:5]([H:14])([H:15])[H:16])[C:6]#[N:7])([H:8])([H:9])[H:10]>>[C:1]([O:2][C:3]([C:4]([H:11])([H:12])[H:13])([C:5]([H:14])([H:15])[H:16])[N+:7]#[C-:6])([H:8])([H:9])[H:10]"
C        2.01349406       0.43925510      -0.12822013
O        0.81412182       0.14433189      -0.83974312
C       -0.31519366      -0.04059568      -0.18779238
C       -1.38385166      -0.49146900      -1.13934444
C       -0.28195849      -0.73403577       1.14449814
C       -0.51736974       1.93612827       0.70145715
N       -1.52435968       1.83877883       0.12177223
H        1.83261775       1.30980951       0.50741885
H        2.33639766      -0.42007825       0.46103859
H        2.75615831       0.66385430      -0.88825430
H       -1.12434903      -1.50581435      -1.46035263
H       -1.40840296       0.14126369      -2.02224681
H       -2.35755993      -0.49824918      -0.66076539
H       -1.27236372      -0.70694110       1.58995104
H        0.43243079      -0.29808117       1.83568650
H        0.00018847      -1.77815709       0.96489668
16
Frame=3 idx=006458 GeodesicLength=0.19143607578063926 rxn_smarts="[C:1]([O:2][C:3]([C:4]([H:11])([H:12])[H:13])([C:5]([H:14])([H:15])[H:16])[C:6]#[N:7])([H:8])([H:9])[H:10]>>[C:1]([O:2][C:3]([C:4]([H:11])([H:12])[H:13])([C:5]([H:14])([H:15])[H:16])[N+:7]#[C-:6])([H:8])([H:9])[H:10]"
C        2.01046204       0.44508225      -0.12959646
O        0.81093968       0.14668506      -0.83716000
C       -0.32487092      -0.02211255      -0.17940508
C       -1.38650590      -0.49193324      -1.13341159
C       -0.28395338      -0.73964778       1.14272707
C       -0.52968875       1.92369263       0.73691592
N       -1.48548033       1.86295312       0.07620905
H        1.83500631       1.32126919       0.49999051
H        2.33434370      -0.40973778       0.46602656
H        2.75341912       0.66287503      -0.89154110
H       -1.12350539      -1.50792322      -1.44524287
H       -1.40946743       0.12588643      -2.02705164
H       -2.36297929      -0.49816509      -0.65981126
H       -1.27262105      -0.71976784       1.59303889
H        0.43575600      -0.31828193       1.83784834
H       -0.00085442      -1.78087428       0.95046366
16
Frame=4 idx=006458 GeodesicLength=0.25538221839410513 rxn_smarts="[C:1]([O:2][C:3]([C:4]([H:11])([H:12])[H:13])([C:5]([H:14])([H:15])[H:16])[C:6]#[N:7])([H:8])([H:9])[H:10]>>[C:1]([O:2][C:3]([C:4]([H:11])([H:12])[H:13])([C:5]([H:14])([H:15])[H:16])[N+:7]#[C-:6])([H:8])([H:9])[H:10]"
C        2.00719711       0.45145546      -0.13077899
O        0.80828347       0.14706199      -0.83461299
C       -0.33399426      -0.00534743      -0.17117543
C       -1.38956960      -0.49192227      -1.12728542
C       -0.28568157      -0.74601146       1.14084045
C       -0.54500600       1.90996920       0.76939964
N       -1.44139842       1.88654442       0.03176354
H        1.83580535       1.33383059       0.49145165
H        2.33269027      -0.39759024       0.47255180
H        2.75060184       0.66221732      -0.89447785
H       -1.12468723      -1.50973798      -1.43038200
H       -1.41030850       0.11164856      -2.03086166
H       -2.36857775      -0.49590042      -0.65822484
H       -1.27268794      -0.73416436       1.59568884
H        0.43846486      -0.33790831       1.83967117
H       -0.00113163      -1.78414506       0.93643206
16
Frame=5 idx=006458 GeodesicLength=0.31966362792581077 rxn_smarts="[C:1]([O:2][C:3]([C:4]([H:11])([H:12])[H:13])([C:5]([H:14])([H:15])[H:16])[C:6]#[N:7])([H:8])([H:9])[H:10]>>[C:1]([O:2][C:3]([C:4]([H:11])([H:12])[H:13])([C:5]([H:14])([H:15])[H:16])[N+:7]#[C-:6])([H:8])([H:9])[H:10]"
C        2.00378068       0.45823750      -0.13180580
O        0.80621496       0.14547693      -0.83213279
C       -0.34252585       0.00982067      -0.16315864
C       -1.39301985      -0.49142885      -1.12105386
C       -0.28716127      -0.75297055       1.13885779
C       -0.56317100       1.89530611       0.79834915
N       -1.39272279       1.90897114      -0.01063376
H        1.83522095       1.34735622       0.48177103
H        2.33138170      -0.38373993       0.48060892
H        2.74786032       0.66164297      -0.89705404
H       -1.12765559      -1.51118596      -1.41597635
H       -1.41112924       0.09881020      -2.03364955
H       -2.37432165      -0.49181790      -0.65607682
H       -1.27258906      -0.74995359       1.59787721
H        0.44051629      -0.35668478       1.84123227
H       -0.00067858      -1.78784019       0.92284525
16
Frame=6 idx=006458 GeodesicLength=0.38441816837694454 rxn_smarts="[C:1]([O:2][C:3]([C:4]([H:11])([H:12])[H:13])([C:5]([H:14])([H:15])[H:16])[C:6]#[N:7])([H:8])([H:9])[H:10]>>[C:1]([O:2][C:3]([C:4]([H:11])([H:12])[H:13])([C:5]([H:14])([H:15])[H:16])[N+:7]#[C-:6])([H:8])([H:9])[H:10]"
C        2.00027368       0.46530423      -0.13273491
O        0.80475472       0.14204930      -0.82973214
C       -0.35045156       0.02354358      -0.15539628
C       -1.39680456      -0.49047285      -1.11478868
C       -0.28842772      -0.76036908       1.13679703
C       -0.58399988       1.87997213       0.82348166
N       -1.34008746       1.92981638      -0.05028480
H        1.83349165       1.36167016       0.47095144
H        2.33032533      -0.36832488       0.49008932
H        2.74529802       0.66096658      -0.89929146
H       -1.13212972      -1.51222913      -1.40214536
H       -1.41206404       0.08752420      -2.03543536
H       -2.38015265      -0.48629001      -0.65344274
H       -1.27235472      -0.76690526       1.59959355
H        0.44189543      -0.37442623       1.84259908
H        0.00043348      -1.79182913       0.90973966
16
Frame=7 idx=006458 GeodesicLength=0.4497239444670447 rxn_smarts="[C:1]([O:2][C:3]([C:4]([H:11])([H:12])[H:13])([C:5]([H:14])([H:15])[H:16])[C:6]#[N:7])([H:8])([H:9])[H:10]>>[C:1]([O:2][C:3]([C:4]([H:11])([H:12])[H:13])([C:5]([H:14])([H:15])[H:16])[N+:7]#[C-:6])([H:8])([H:9])[H:10]"
C        1.99679568       0.47241727      -0.13363190
O        0.80387882       0.13713637      -0.82741267
C       -0.35777089       0.03607481      -0.14789556
C       -1.40078797      -0.48909386      -1.10855154
C       -0.28952448      -0.76792247       1.13470638
C       -0.60734056       1.86452202       0.84459186
N       -1.28454246       1.94844677      -0.08652370
H        1.83096397       1.37633420       0.45922247
H        2.32942892      -0.35184940       0.50056659
H        2.74302910       0.65998873      -0.90123948
H       -1.13759231      -1.51277001      -1.38908950
H       -1.41326423       0.07796275      -2.03620832
H       -2.38594408      -0.47991454      -0.65040632
H       -1.27202390      -0.78464687       1.60086386
H        0.44259734      -0.39083325       1.84383316
H        0.00209705      -1.79585251       0.89717466
16
Frame=8 idx=006458 GeodesicLength=0.5157675330161127 rxn_smarts="[C:1]([O:2][C:3]([C:4]([H:11])([H:12])[H:13])([C:5]([H:14])([H:15])[H:16])[C:6]#[N:7])([H:8])([H:9])[H:10]>>[C:1]([O:2][C:3]([C:4]([H:11])([H:12])[H:13])([C:5]([H:14])([H:15])[H:16])[N+:7]#[C-:6])([H:8])([H:9])[H:10]"
C        1.99340082       0.47948596      -0.13455178
O        0.80355131       0.13093566      -0.82519407
C       -0.36450996       0.04757324      -0.14067759
C       -1.40493613      -0.48735376      -1.10242742
C       -0.29045837      -0.77552642       1.13264077
C       -0.63312594       1.84912719       0.86181302
N       -1.22663748       1.96488296      -0.11913315
H        1.82788482       1.39119467       0.44669592
H        2.32865345      -0.33451937       0.51185684
H        2.74109023       0.65862558      -0.90296799
H       -1.14380469      -1.51288263      -1.37686632
H       -1.41482278       0.07011863      -2.03612374
H       -2.39167079      -0.47296643      -0.64705343
H       -1.27159166      -0.80294546       1.60175428
H        0.44270936      -0.40588032       1.84504705
H        0.00426780      -1.79986951       0.88518760
16
Frame=9 idx=006458 GeodesicLength=0.5824080181071707 rxn_smarts="[C:1]([O:2][C:3]([C:4]([H:11])([H:12])[H:13])([C:5]([H:14])([H:15])[H:16])[C:6]#[N:7])([H:8])([H:9])[H:10]>>[C:1]([O:2][C:3]([C:4]([H:11])([H:12])[H:13])([C:5]([H:14])([H:15])[H:16])[N+:7]#[C-:6])([H:8])([H:9])[H:10]"
C        1.99012307       0.48636962      -0.13558346
O        0.80370548       0.12384442      -0.82307641
C       -0.37073296       0.05825953      -0.13379643
C       -1.40909786      -0.48532573      -1.09646071
C       -0.29135765      -0.78294118       1.13054447
C       -0.66059739       1.83381019       0.87503919
N       -1.16767352       1.97893063      -0.14726802
H        1.82468855       1.40602694       0.43333102
H        2.32776830      -0.31654121       0.52372473
H        2.73959277       0.65657489      -0.90449622
H       -1.15026552      -1.51251596      -1.36545988
H       -1.41666630       0.06398314      -2.03518726
H       -2.39721959      -0.46603156      -0.64351260
H       -1.27117777      -0.82142689       1.60219859
H        0.44211171      -0.41940997       1.84619049
H        0.00679867      -1.80360687       0.87381250
16
Frame=10 idx=006458 GeodesicLength=0.6502039469928435 rxn_smarts="[C:1]([O:2][C:3]([C:4]([H:11])([H:12])[H:13])([C:5]([H:14])([H:15])[H:16])[C:6]#[N:7])([H:8])([H:9])[H:10]>>[C:1]([O:2][C:3]([C:4]([H:11])([H:12])[H:13])([C:5]([H:14])([H:15])[H:16])[N+:7]#[C-:6])([H:8])([H:9])[H:10]"
C        1.98705046       0.49295662      -0.13674569
O        0.80429972       0.11605798      -0.82100199
C       -0.37644077       0.06826864      -0.12715832
C       -1.41322387      -0.48305770      -1.09059832
C       -0.29219634      -0.79007285       1.12850169
C       -0.69021222       1.81898271       0.88452492
N       -1.10769164       1.99041721      -0.17146658
H        1.82151447       1.42045927       0.41954624
H        2.32687000      -0.29832775       0.53573546
H        2.73845551       0.65408857      -0.90590691
H       -1.15677528      -1.51164998      -1.35495342
H       -1.41893356       0.05957337      -2.03336580
H       -2.40254032      -0.45931112      -0.63970888
H       -1.27073846      -0.83993496       1.60228807
H        0.44098130      -0.43144472       1.84729989
H        0.00958099      -1.80700529       0.86300963
16
Frame=11 idx=006458 GeodesicLength=0.7184556304818234 rxn_smarts="[C:1]([O:2][C:3]([C:4]([H:11])([H:12])[H:13])([C:5]([H:14])([H:15])[H:16])[C:6]#[N:7])([H:8])([H:9])[H:10]>>[C:1]([O:2][C:3]([C:4]([H:11])([H:12])[H:13])([C:5]([H:14])([H:15])[H:16])[N+:7]#[C-:6])([H:8])([H:9])[H:10]"
C        1.98425087       0.49907671      -0.13808797
O        0.80520927       0.10802260      -0.81906879
C       -0.38174395       0.07784819      -0.12081050
C       -1.41722241      -0.48065172      -1.08502277
C       -0.29301540      -0.79674429       1.12659050
C       -0.72117727       1.80495667       0.89042092
N       -1.04826483       1.99951157      -0.19112813
H        1.81880093       1.43436831       0.40543742
H        2.32586361      -0.28029738       0.54770581
H        2.73778737       0.65081195      -0.90727866
H       -1.16284119      -1.51038637      -1.34552506
H       -1.42165918       0.05684915      -2.03093169
H       -2.40761037      -0.45336852      -0.63588743
H       -1.27030838      -0.85811154       1.60216312
H        0.43933514      -0.44190708       1.84853742
H        0.01259579      -1.80997826       0.85288579
16
Frame=12 idx=006458 GeodesicLength=0.7873836626258317 rxn_smarts="[C:1]([O:2][C:3]([C:4]([H:11])([H:12])[H:13])([C:5]([H:14])([H:15])[H:16])[C:6]#[N:7])([H:8])([H:9])[H:10]>>[C:1]([O:2][C:3]([C:4]([H:11])([H:12])[H:13])([C:5]([H:14])([H:15])[H:16])[N+:7]#[C-:6])([H:8])([H:9])[H:10]"
C        1.98172731       0.50472934      -0.13964006
O        0.80636808       0.09999537      -0.81724321
C       -0.38670392       0.08710651      -0.11476470
C       -1.42103458      -0.47815918      -1.07967003
C       -0.29387526      -0.80285777       1.12469895
C       -0.75328860       1.79135091       0.89297663
N       -0.98973455       2.00643611      -0.20622272
H        1.81673252       1.44766841       0.39098349
H        2.32464998      -0.26248468       0.55946123
H        2.73760973       0.64665613      -0.90858263
H       -1.16835573      -1.50873641      -1.33689639
H       -1.42467798       0.05557654      -2.02785978
H       -2.41240359      -0.44831522      -0.63206933
H       -1.26993236      -0.87581280       1.60171560
H        0.43713885      -0.45081014       1.84975202
H        0.01578010      -1.81234312       0.84336092
16
Frame=13 idx=006458 GeodesicLength=0.8568157747124568 rxn_smarts="[C:1]([O:2][C:3]([C:4]([H:11])([H:12])[H:13])([C:5]([H:14])([H:15])[H:16])[C:6]#[N:7])([H:8])([H:9])[H:10]>>[C:1]([O:2][C:3]([C:4]([H:11])([H:12])[H:13])([C:5]([H:14])([H:15])[H:16])[N+:7]#[C-:6])([H:8])([H:9])[H:10]"
C        1.97951562       0.50984527      -0.14140016
O        0.80770114       0.09213628      -0.81554037
C       -0.39137794       0.09614696      -0.10895571
C       -1.42464091      -0.47564233      -1.07457595
C       -0.29477109      -0.80840494       1.12293485
C       -0.78632221       1.77859506       0.89240041
N       -0.93256246       2.01126637      -0.21705275
H        1.81547514       1.46026437       0.37639056
H        2.32328297      -0.24514610       0.57086842
H        2.73786912       0.64170055      -0.90988996
H       -1.17310479      -1.50674131      -1.32925775
H       -1.42811951       0.05576684      -2.02423450
H       -2.41692220      -0.44440601      -0.62828327
H       -1.26959529      -0.89294003       1.60110098
H        0.43450780      -0.45827723       1.85106372
H        0.01906461      -1.81416375       0.83443148
16
Frame=14 idx=006458 GeodesicLength=0.9264830308660047 rxn_smarts="[C:1]([O:2][C:3]([C:4]([H:11])([H:12])[H:13])([C:5]([H:14])([H:15])[H:16])[C:6]#[N:7])([H:8])([H:9])[H:10]>>[C:1]([O:2][C:3]([C:4]([H:11])([H:12])[H:13])([C:5]([H:14])([H:15])[H:16])[N+:7]#[C-:6])([H:8])([H:9])[H:10]"
C        1.97761743       0.51441195      -0.14336478
O        0.80912728       0.08466379      -0.81397346
C       -0.39584311       0.10506997      -0.10336877
C       -1.42801052      -0.47315332      -1.06975113
C       -0.29573425      -0.81335292       1.12128351
C       -0.81978553       1.76670482       0.88896967
N       -0.87733742       2.01419620      -0.22367855
H        1.81518086       1.47218000       0.36163281
H        2.32171219      -0.22835766       0.58188661
H        2.73858205       0.63581631      -0.91118961
H       -1.17693864      -1.50443915      -1.32257206
H       -1.43194271       0.05727643      -2.02012547
H       -2.42117307      -0.44181939      -0.62460276
H       -1.26931976      -0.90937795       1.60034369
H        0.43147019      -0.46441367       1.85245927
H        0.02239501      -1.81540541       0.82605105
16
Frame=15 idx=006458 GeodesicLength=0.9965284023769801 rxn_smarts="[C:1]([O:2][C:3]([C:4]([H:11])([H:12])[H:13])([C:5]([H:14])([H:15])[H:16])[C:6]#[N:7])([H:8])([H:9])[H:10]>>[C:1]([O:2][C:3]([C:4]([H:11])([H:12])[H:13])([C:5]([H:14])([H:15])[H:16])[N+:7]#[C-:6])([H:8])([H:9])[H:10]"
C        1.97603461       0.51845171      -0.14554668
O        0.81060745       0.07767893      -0.81257232
C       -0.40013710       0.11391572      -0.09802016
C       -1.43114471      -0.47072828      -1.06519061
C       -0.29675395      -0.81769084       1.11972192
C       -0.85385621       1.75537433       0.88289591
N       -0.82394547       2.01560539      -0.22623925
H        1.81587415       1.48337846       0.34679177
H        2.31996421      -0.21220770       0.59237459
H        2.73971568       0.62905382      -0.91250002
H       -1.17991978      -1.50192080      -1.31664078
H       -1.43605283       0.05991130      -2.01560577
H       -2.42516569      -0.44044361      -0.62105439
H       -1.26908327      -0.92511531       1.59945082
H        0.42803971      -0.46922238       1.85391406
H        0.02582320      -1.81604073       0.81822091
16
Frame=16 idx=006458 GeodesicLength=1.066853221280799 rxn_smarts="[C:1]([O:2][C:3]([C:4]([H:11])([H:12])[H:13])([C:5]([H:14])([H:15])[H:16])[C:6]#[N:7])([H:8])([H:9])[H:10]>>[C:1]([O:2][C:3]([C:4]([H:11])([H:12])[H:13])([C:5]([H:14])([H:15])[H:16])[N+:7]#[C-:6])([H:8])([H:9])[H:10]"
C        1.97474500       0.52197820      -0.14790405
O        0.81208985       0.07121726      -0.81129638
C       -0.40431501       0.12269635      -0.09284047
C       -1.43405625      -0.46840498      -1.06085717
C       -0.29785149      -0.82145425       1.11826646
C       -0.88809983       1.74485053       0.87427682
N       -0.77257382       2.01544505      -0.22506126
H        1.81760345       1.49387183       0.33192270
H        2.31805562      -0.19669604       0.60234886
H        2.74119869       0.62152874      -0.91378994
H       -1.18194731      -1.49914977      -1.31157226
H       -1.44056246       0.06365948      -2.01061236
H       -2.42891450      -0.44045645      -0.61761384
H       -1.26890416      -0.94010276       1.59845959
H        0.42428737      -0.47287962       1.85541228
H        0.02924483      -1.81610356       0.81086101
