14
Frame=0 idx=002143 GeodesicLength=0.0 rxn_smarts="[C:1]([C@@:2]1([H:10])[C:3]([H:11])([H:12])[C@@:4]2([H:13])[O:5][C@@:6]12[H:14])([H:7])([H:8])[H:9]>>[C:1]([C@@:2]1([H:10])[C:3]([H:11])([H:12])[C@@:4]1([C:6](=[O:5])[H:14])[H:13])([H:7])([H:8])[H:9]"
C        1.45426879       0.18256145       0.60173163
C        0.34306378       0.34494813      -0.39924022
C       -0.28714342      -0.94672167      -0.96529242
C       -1.41823473      -0.53595520      -0.12213404
O       -1.09961688       0.75756894       1.56819348
C       -1.06885254       0.87609743       0.28834493
H        1.16060469      -0.49970950       1.39857948
H        1.68716817       1.14031356       1.06792705
H        2.35317631      -0.20444615       0.11709859
H        0.55905597       1.05552524      -1.19561882
H        0.19196157      -1.89649491      -0.73010706
H       -0.48474352      -0.87846372      -2.03505644
H       -1.90724098      -1.15109198       0.63049352
H       -1.48346725       1.75586843      -0.22491969
14
Frame=1 idx=002143 GeodesicLength=0.06999609404287466 rxn_smarts="[C:1]([C@@:2]1([H:10])[C:3]([H:11])([H:12])[C@@:4]2([H:13])[O:5][C@@:6]12[H:14])([H:7])([H:8])[H:9]>>[C:1]([C@@:2]1([H:10])[C:3]([H:11])([H:12])[C@@:4]1([C:6](=[O:5])[H:14])[H:13])([H:7])([H:8])[H:9]"
C        1.46237500       0.17722045       0.60198041
C        0.34638983       0.34160554      -0.39410116
C       -0.28711363      -0.94328401      -0.96536853
C       -1.40555869      -0.53090101      -0.10391930
O       -1.13276103       0.76181442       1.56125210
C       -1.08043465       0.88805860       0.28226218
H        1.17291672      -0.50868498       1.39740704
H        1.69746763       1.13325222       1.07085540
H        2.36066385      -0.20647286       0.11357611
H        0.56550146       1.05274750      -1.18937728
H        0.19100244      -1.89459471      -0.73523851
H       -0.49665475      -0.86980229      -2.03220992
H       -1.89581549      -1.15950478       0.63577649
H       -1.49797869       1.75854590      -0.24289503
14
Frame=2 idx=002143 GeodesicLength=0.13998039694167408 rxn_smarts="[C:1]([C@@:2]1([H:10])[C:3]([H:11])([H:12])[C@@:4]2([H:13])[O:5][C@@:6]12[H:14])([H:7])([H:8])[H:9]>>[C:1]([C@@:2]1([H:10])[C:3]([H:11])([H:12])[C@@:4]1([C:6](=[O:5])[H:14])[H:13])([H:7])([H:8])[H:9]"
C        1.47088539       0.17178478       0.60212317
C        0.34978145       0.33833575      -0.38860484
C       -0.28710088      -0.93973767      -0.96508065
C       -1.39272886      -0.52555400      -0.08567572
O       -1.16655736       0.76619259       1.55393385
C       -1.09227077       0.89974053       0.27616785
H        1.18610539      -0.51820140       1.39586728
H        1.70811001       1.12595915       1.07394759
H        2.36845006      -0.20819263       0.10949829
H        0.57171050       1.05017173      -1.18273449
H        0.18980341      -1.89263674      -0.73988121
H       -0.50831201      -0.86111876      -2.02889583
H       -1.88500181      -1.16722693       0.64047428
H       -1.51287450       1.76048360      -0.26113956
14
Frame=3 idx=002143 GeodesicLength=0.20995920103326726 rxn_smarts="[C:1]([C@@:2]1([H:10])[C:3]([H:11])([H:12])[C@@:4]2([H:13])[O:5][C@@:6]12[H:14])([H:7])([H:8])[H:9]>>[C:1]([C@@:2]1([H:10])[C:3]([H:11])([H:12])[C@@:4]1([C:6](=[O:5])[H:14])[H:13])([H:7])([H:8])[H:9]"
C        1.47984440       0.16628177       0.60214834
C        0.35325641       0.33514290      -0.38274449
C       -0.28710665      -0.93611597      -0.96441955
C       -1.37978762      -0.51991707      -0.06737279
O       -1.20106887       0.77064629       1.54624573
C       -1.10437826       0.91114744       0.27008046
H        1.20022423      -0.52823802       1.39392828
H        1.71913653       1.11847470       1.07721506
H        2.37658728      -0.20956366       0.10483829
H        0.57770549       1.04781047      -1.17569045
H        0.18835532      -1.89068433      -0.74402763
H       -0.51969079      -0.85245777      -2.02512563
H       -1.87496695      -1.17424533       0.64453268
H       -1.52811053       1.76171860      -0.27960829
14
Frame=4 idx=002143 GeodesicLength=0.2798904606854986 rxn_smarts="[C:1]([C@@:2]1([H:10])[C:3]([H:11])([H:12])[C@@:4]2([H:13])[O:5][C@@:6]12[H:14])([H:7])([H:8])[H:9]>>[C:1]([C@@:2]1([H:10])[C:3]([H:11])([H:12])[C@@:4]1([C:6](=[O:5])[H:14])[H:13])([H:7])([H:8])[H:9]"
C        1.48919085       0.16066186       0.60203501
C        0.35679682       0.33203741      -0.37650321
C       -0.28710964      -0.93232843      -0.96331026
C       -1.36664329      -0.51392408      -0.04899714
O       -1.23625325       0.77514819       1.53809856
C       -1.11674645       0.92226747       0.26396393
H        1.21524039      -0.53887572       1.39153972
H        1.73047193       1.11068936       1.08061944
H        2.38496305      -0.21060377       0.09958722
H        0.58342109       1.04564951      -1.16823537
H        0.18667842      -1.88856777      -0.74754704
H       -0.53079441      -0.84378230      -2.02082488
H       -1.86554848      -1.18054037       0.64792264
H       -1.54366705       1.76216864      -0.29834862
14
Frame=5 idx=002143 GeodesicLength=0.3498225999826102 rxn_smarts="[C:1]([C@@:2]1([H:10])[C:3]([H:11])([H:12])[C@@:4]2([H:13])[O:5][C@@:6]12[H:14])([H:7])([H:8])[H:9]>>[C:1]([C@@:2]1([H:10])[C:3]([H:11])([H:12])[C@@:4]1([C:6](=[O:5])[H:14])[H:13])([H:7])([H:8])[H:9]"
C        1.49902313       0.15497953       0.60177621
C        0.36043997       0.32902117      -0.36986762
C       -0.28711902      -0.92846242      -0.96177097
C       -1.35339279      -0.50760587      -0.03049440
O       -1.27224059       0.77965256       1.52953577
C       -1.12941615       0.93312228       0.25785941
H        1.23125111      -0.55005319       1.38866520
H        1.74222899       1.10269606       1.08419934
H        2.39370427      -0.21124929       0.09371105
H        0.58892461       1.04371176      -1.16036094
H        0.18476019      -1.88645517      -0.75049157
H       -0.54160119      -0.83516646      -2.01604541
H       -1.85705032      -1.18611540       0.65057885
H       -1.55951220       1.76192445      -0.31729493
14
Frame=6 idx=002143 GeodesicLength=0.4196370951846782 rxn_smarts="[C:1]([C@@:2]1([H:10])[C:3]([H:11])([H:12])[C@@:4]2([H:13])[O:5][C@@:6]12[H:14])([H:7])([H:8])[H:9]>>[C:1]([C@@:2]1([H:10])[C:3]([H:11])([H:12])[C@@:4]1([C:6](=[O:5])[H:14])[H:13])([H:7])([H:8])[H:9]"
C        1.50932125       0.14921941       0.60137413
C        0.36416151       0.32611352      -0.36282153
C       -0.28714666      -0.92446189      -0.95976784
C       -1.34001033      -0.50095472      -0.01186989
O       -1.30901890       0.78407782       1.52042868
C       -1.14237078       0.94368253       0.25170807
H        1.24827235      -0.56179916       1.38529100
H        1.75438976       1.09445431       1.08797385
H        2.40275649      -0.21150362       0.08720064
H        0.59418516       1.04200264      -1.15205996
H        0.18257470      -1.88426689      -0.75282283
H       -0.55211501      -0.82654519      -2.01072707
H       -1.84941303      -1.19096100       0.65258932
H       -1.57558653       1.76094223      -0.33649656
14
Frame=7 idx=002143 GeodesicLength=0.4894767801395864 rxn_smarts="[C:1]([C@@:2]1([H:10])[C:3]([H:11])([H:12])[C@@:4]2([H:13])[O:5][C@@:6]12[H:14])([H:7])([H:8])[H:9]>>[C:1]([C@@:2]1([H:10])[C:3]([H:11])([H:12])[C@@:4]1([C:6](=[O:5])[H:14])[H:13])([H:7])([H:8])[H:9]"
C        1.52010787       0.14338500       0.60078605
C        0.36801273       0.32330627      -0.35534243
C       -0.28716752      -0.92033342      -0.95722343
C       -1.32644762      -0.49391569       0.00704924
O       -1.34663437       0.78842986       1.51082318
C       -1.15562035       0.95395849       0.24556722
H        1.26630798      -0.57410861       1.38133411
H        1.76697747       1.08592796       1.09189098
H        2.41213264      -0.21130485       0.08001503
H        0.59923029       1.04051846      -1.14330768
H        0.18015080      -1.88200107      -0.75445975
H       -0.56236365      -0.81797162      -2.00483113
H       -1.84278833      -1.19503426       0.65363833
H       -1.59189793       1.75914349      -0.35593972
14
Frame=8 idx=002143 GeodesicLength=0.5592938063659997 rxn_smarts="[C:1]([C@@:2]1([H:10])[C:3]([H:11])([H:12])[C@@:4]2([H:13])[O:5][C@@:6]12[H:14])([H:7])([H:8])[H:9]>>[C:1]([C@@:2]1([H:10])[C:3]([H:11])([H:12])[C@@:4]1([C:6](=[O:5])[H:14])[H:13])([H:7])([H:8])[H:9]"
C        1.53142849       0.13748112       0.60001764
C        0.37198735       0.32061402      -0.34740590
C       -0.28719405      -0.91607909      -0.95411955
C       -1.31271764      -0.48650345       0.02627511
O       -1.38513409       0.79263956       1.50064463
C       -1.16918838       0.96394289       0.23941580
H        1.28544573      -0.58699248       1.37677130
H        1.78005207       1.07712913       1.09599365
H        2.42186044      -0.21064385       0.07213469
H        0.60404045       1.03927240      -1.13408941
H        0.17748098      -1.87967401      -0.75538334
H       -0.57235550      -0.80944430      -1.99833938
H       -1.83726611      -1.19828429       0.65372004
H       -1.60843973       1.75654236      -0.37563527
14
Frame=9 idx=002143 GeodesicLength=0.6290829583163269 rxn_smarts="[C:1]([C@@:2]1([H:10])[C:3]([H:11])([H:12])[C@@:4]2([H:13])[O:5][C@@:6]12[H:14])([H:7])([H:8])[H:9]>>[C:1]([C@@:2]1([H:10])[C:3]([H:11])([H:12])[C@@:4]1([C:6](=[O:5])[H:14])[H:13])([H:7])([H:8])[H:9]"
C        1.54329968       0.13151437       0.59904707
C        0.37609875       0.31804612      -0.33898654
C       -0.28722511      -0.91168775      -0.95039982
C       -1.29880335      -0.47869268       0.04588848
O       -1.42454845       0.79664126       1.48985127
C       -1.18307698       0.97362442       0.23326294
H        1.30571150      -0.60044088       1.37155134
H        1.79364580       1.06804302       1.10026217
H        2.43192849      -0.20949259       0.06352732
H        0.60861722       1.03827051      -1.12438795
H        0.17455761      -1.87726902      -0.75552805
H       -0.58209255      -0.80097443      -1.99120388
H       -1.83294402      -1.20068562       0.65269628
H       -1.62516858       1.75310328      -0.39558063
14
Frame=10 idx=002143 GeodesicLength=0.698847809348795 rxn_smarts="[C:1]([C@@:2]1([H:10])[C:3]([H:11])([H:12])[C@@:4]2([H:13])[O:5][C@@:6]12[H:14])([H:7])([H:8])[H:9]>>[C:1]([C@@:2]1([H:10])[C:3]([H:11])([H:12])[C@@:4]1([C:6](=[O:5])[H:14])[H:13])([H:7])([H:8])[H:9]"
C        1.55575054       0.12549470       0.59785340
C        0.38036044       0.31560851      -0.33005310
C       -0.28726257      -0.90715736      -0.94600204
C       -1.28469014      -0.47046516       0.06598360
O       -1.46490650       0.80036294       1.47840006
C       -1.19729418       0.98298552       0.22712143
H        1.32714833      -0.61443394       1.36562392
H        1.80780946       1.05866392       1.10467623
H        2.44233672      -0.20782216       0.05416094
H        0.61295542       1.03751496      -1.11418000
H        0.17137614      -1.87478408      -0.75482570
H       -0.59158429      -0.79257904      -1.98337168
H       -1.82994582      -1.20217894       0.65037541
H       -1.64205357       1.74879012      -0.41576248
14
Frame=11 idx=002143 GeodesicLength=0.7685865696912411 rxn_smarts="[C:1]([C@@:2]1([H:10])[C:3]([H:11])([H:12])[C@@:4]2([H:13])[O:5][C@@:6]12[H:14])([H:7])([H:8])[H:9]>>[C:1]([C@@:2]1([H:10])[C:3]([H:11])([H:12])[C@@:4]1([C:6](=[O:5])[H:14])[H:13])([H:7])([H:8])[H:9]"
C        1.56880401       0.11942902       0.59641791
C        0.38478386       0.31330940      -0.32057247
C       -0.28731348      -0.90248114      -0.94086393
C       -1.27036659      -0.46179828       0.08665627
O       -1.50623426       0.80373158       1.46624113
C       -1.21185151       0.99200785       0.22100108
H        1.34978616      -0.62894879       1.35894225
H        1.82259687       1.04898234       1.10921398
H        2.45307428      -0.20561571       0.04400810
H        0.61705004       1.03701012      -1.10344023
H        0.16792596      -1.87221137      -0.75320988
H       -0.60084440      -0.78427354      -1.97478953
H       -1.82834878      -1.20270514       0.64656839
H       -1.65906215       1.74356366      -0.43617307
14
Frame=12 idx=002143 GeodesicLength=0.8383019837413083 rxn_smarts="[C:1]([C@@:2]1([H:10])[C:3]([H:11])([H:12])[C@@:4]2([H:13])[O:5][C@@:6]12[H:14])([H:7])([H:8])[H:9]>>[C:1]([C@@:2]1([H:10])[C:3]([H:11])([H:12])[C@@:4]1([C:6](=[O:5])[H:14])[H:13])([H:7])([H:8])[H:9]"
C        1.58247834       0.11332136       0.59472317
C        0.38937817       0.31115667      -0.31050791
C       -0.28739154      -0.89765203      -0.93492147
C       -1.25583359      -0.45266770       0.10800974
O       -1.54855958       0.80667162       1.45332272
C       -1.22676844       1.00067003       0.21491081
H        1.37364103      -0.64395997       1.35146158
H        1.83806666       1.03898668       1.11385078
H        2.46412374      -0.20286617       0.03304444
H        0.62089790       1.03676025      -1.09213920
H        0.16418956      -1.86954424      -0.75061480
H       -0.60988976      -0.77607434      -1.96540545
H       -1.82816868      -1.20218461       0.64107177
H       -1.67616381       1.73738244      -0.45680617
14
Frame=13 idx=002143 GeodesicLength=0.9080079561856356 rxn_smarts="[C:1]([C@@:2]1([H:10])[C:3]([H:11])([H:12])[C@@:4]2([H:13])[O:5][C@@:6]12[H:14])([H:7])([H:8])[H:9]>>[C:1]([C@@:2]1([H:10])[C:3]([H:11])([H:12])[C@@:4]1([C:6](=[O:5])[H:14])[H:13])([H:7])([H:8])[H:9]"
C        1.59678066       0.10716228       0.59275730
C        0.39413941       0.30915285      -0.29981871
C       -0.28751638      -0.89265410      -0.92811048
C       -1.24111538      -0.44304654       0.13013833
O       -1.59190156       0.80909649       1.43956365
C       -1.24207789       1.00894002       0.20883782
H        1.39872115      -0.65945982       1.34313346
H        1.85426766       1.02864437       1.11856856
H        2.47545580      -0.19957248       0.02125552
H        0.62447947       1.03676358      -1.08024065
H        0.16014968      -1.86676993      -0.74697049
H       -0.61873322      -0.76797293      -1.95517395
H       -1.82931152      -1.20050160       0.63373004
H       -1.69333787       1.73021781      -0.47767040
14
Frame=14 idx=002143 GeodesicLength=0.9777063729336097 rxn_smarts="[C:1]([C@@:2]1([H:10])[C:3]([H:11])([H:12])[C@@:4]2([H:13])[O:5][C@@:6]12[H:14])([H:7])([H:8])[H:9]>>[C:1]([C@@:2]1([H:10])[C:3]([H:11])([H:12])[C@@:4]1([C:6](=[O:5])[H:14])[H:13])([H:7])([H:8])[H:9]"
C        1.61171617       0.10093676       0.59053129
C        0.39907806       0.30732608      -0.28847584
C       -0.28773985      -0.88747927      -0.92045482
C       -1.22631715      -0.43286598       0.15304693
O       -1.63637241       0.81099623       1.42489217
C       -1.25785929       1.01685063       0.20276223
H        1.42493675      -0.67542391       1.33392998
H        1.87129775       1.01794236       1.12339878
H        2.48707137      -0.19581124       0.00866633
H        0.62786219       1.03705502      -1.06769372
H        0.15573252      -1.86389894      -0.74233522
H       -0.62740307      -0.76000697      -1.94414492
H       -1.83141618      -1.19769226       0.62466263
H       -1.71058687       1.72207151      -0.49878582
14
Frame=15 idx=002143 GeodesicLength=1.0472095984123728 rxn_smarts="[C:1]([C@@:2]1([H:10])[C:3]([H:11])([H:12])[C@@:4]2([H:13])[O:5][C@@:6]12[H:14])([H:7])([H:8])[H:9]>>[C:1]([C@@:2]1([H:10])[C:3]([H:11])([H:12])[C@@:4]1([C:6](=[O:5])[H:14])[H:13])([H:7])([H:8])[H:9]"
C        1.62702082       0.09455699       0.58801466
C        0.40407993       0.30567919      -0.27645657
C       -0.28806035      -0.88196945      -0.91184653
C       -1.21139847      -0.42209247       0.17668507
O       -1.68168218       0.81208915       1.40898578
C       -1.27402241       1.02427651       0.19650675
H        1.45204136      -0.69194102       1.32375926
H        1.88890300       1.00666925       1.12824478
H        2.49856761      -0.19160093      -0.00468130
H        0.63089633       1.03765967      -1.05444978
H        0.15089663      -1.86073990      -0.73655157
H       -0.63578648      -0.75192039      -1.93217509
H       -1.83373979      -1.19358207       0.61422191
H       -1.72771600       1.71291547      -0.52025737
14
Frame=16 idx=002143 GeodesicLength=1.1167599566232547 rxn_smarts="[C:1]([C@@:2]1([H:10])[C:3]([H:11])([H:12])[C@@:4]2([H:13])[O:5][C@@:6]12[H:14])([H:7])([H:8])[H:9]>>[C:1]([C@@:2]1([H:10])[C:3]([H:11])([H:12])[C@@:4]1([C:6](=[O:5])[H:14])[H:13])([H:7])([H:8])[H:9]"
C        1.64278271       0.08798391       0.58527243
C        0.40918335       0.30425426      -0.26375134
C       -0.28858064      -0.87614868      -0.90246172
C       -1.19670949      -0.41053950       0.20094549
O       -1.72821646       0.81251679       1.39181892
C       -1.29080489       1.03138950       0.19004950
H        1.47992282      -0.70902312       1.31262047
H        1.90731626       0.99480965       1.13327400
H        2.51013910      -0.18709267      -0.01871244
H        0.63377075       1.03862261      -1.04046295
H        0.14552216      -1.85737812      -0.72983854
H       -0.64395388      -0.74382391      -1.91957038
H       -1.83551306      -1.18846727       0.60297413
H       -1.74485872       1.70289655      -0.54215758
