15
Frame=0 idx=009600 GeodesicLength=0.0 rxn_smarts="[O:1]([C@@:2]1([H:9])[C:3]([H:10])([H:11])[C@@:4]2([O:5][H:12])[C:6]([H:13])([H:14])[C@@:7]12[H:15])[H:8]>>[C:2]1([H:9])=[C:3]([H:10])[C@@:4]2([O:5][H:12])[C:6]([H:13])([H:14])[C@@:7]12[H:15].[O:1]([H:8])[H:11]"
O        2.14233703       0.60124184      -0.55225266
C        0.90925631       0.40416710       0.72389916
C       -0.08896976       1.23107461       0.08588839
C       -1.03410189       0.00948256       0.12605332
O       -2.29308614      -0.00749057       0.68650623
C       -0.52945544      -1.05593529      -0.76253144
C        0.12155287      -0.86329135       0.60412000
H        2.29231302      -0.22198434      -1.03356057
H        1.55376000       0.61365008       1.57115985
H       -0.38296034       2.18945777       0.49571328
H        1.18290469       1.09446236      -0.87932907
H       -2.89082980       0.44335369       0.08540846
H       -1.12303698      -1.96256755      -0.79677986
H        0.00069483      -0.80706966      -1.67749505
H        0.13962161      -1.66855130       1.32319999
15
Frame=1 idx=009600 GeodesicLength=0.0697158776281578 rxn_smarts="[O:1]([C@@:2]1([H:9])[C:3]([H:10])([H:11])[C@@:4]2([O:5][H:12])[C:6]([H:13])([H:14])[C@@:7]12[H:15])[H:8]>>[C:2]1([H:9])=[C:3]([H:10])[C@@:4]2([O:5][H:12])[C:6]([H:13])([H:14])[C@@:7]12[H:15].[O:1]([H:8])[H:11]"
O        2.14838676       0.60545864      -0.56642699
C        0.91349581       0.39572813       0.72673267
C       -0.08557833       1.22668799       0.09515080
C       -1.03443860       0.00992716       0.13089815
O       -2.29758541      -0.00102419       0.68217412
C       -0.52954898      -1.05880830      -0.75604987
C        0.11504669      -0.86676558       0.61255479
H        2.30673662      -0.20928331      -1.05846986
H        1.55590580       0.60797055       1.57493517
H       -0.37403281       2.18810674       0.50168411
H        1.17460568       1.11226887      -0.88333691
H       -2.89350997       0.43302052       0.06713514
H       -1.12957775      -1.96106038      -0.79415612
H        0.00650561      -0.81334041      -1.66826661
H        0.12358886      -1.66888644       1.33544140
15
Frame=2 idx=009600 GeodesicLength=0.13942481598564255 rxn_smarts="[O:1]([C@@:2]1([H:9])[C:3]([H:10])([H:11])[C@@:4]2([O:5][H:12])[C:6]([H:13])([H:14])[C@@:7]12[H:15])[H:8]>>[C:2]1([H:9])=[C:3]([H:10])[C@@:4]2([O:5][H:12])[C:6]([H:13])([H:14])[C@@:7]12[H:15].[O:1]([H:8])[H:11]"
O        2.15432722       0.60971030      -0.58088382
C        0.91774789       0.38704054       0.72955167
C       -0.08206536       1.22218958       0.10447211
C       -1.03477692       0.01037758       0.13564910
O       -2.30210377       0.00562424       0.67746490
C       -0.52956903      -1.06182968      -0.74943641
C        0.10831832      -0.87026245       0.62122510
H        2.32123349      -0.19601830      -1.08394066
H        1.55802868       0.60202187       1.57872677
H       -0.36497767       2.18658013       0.50776509
H        1.16594878       1.13034776      -0.88713780
H       -2.89584112       0.42282546       0.04887131
H       -1.13605149      -1.95961000      -0.79148826
H        0.01258564      -0.81992119      -1.65877741
H        0.10719537      -1.66907584       1.34793831
15
Frame=3 idx=009600 GeodesicLength=0.20907362666466495 rxn_smarts="[O:1]([C@@:2]1([H:9])[C:3]([H:10])([H:11])[C@@:4]2([O:5][H:12])[C:6]([H:13])([H:14])[C@@:7]12[H:15])[H:8]>>[C:2]1([H:9])=[C:3]([H:10])[C@@:4]2([O:5][H:12])[C:6]([H:13])([H:14])[C@@:7]12[H:15].[O:1]([H:8])[H:11]"
O        2.16014308       0.61397502      -0.59561375
C        0.92199396       0.37810448       0.73235973
C       -0.07842928       1.21757370       0.11382734
C       -1.03511101       0.01083481       0.14029883
O       -2.30661123       0.01244409       0.67238961
C       -0.52951617      -1.06499320      -0.74269194
C        0.10136781      -0.87377415       0.63012201
H        2.33579048      -0.18218980      -1.10994306
H        1.56010240       0.59580488       1.58253538
H       -0.35580382       2.18487106       0.51391972
H        1.15693406       1.14869260      -0.89071488
H       -2.89780631       0.41279149       0.03064671
H       -1.14244723      -1.95821060      -0.78877861
H        0.01892912      -0.82680354      -1.64902137
H        0.09046413      -1.66912084       1.36066427
15
Frame=4 idx=009600 GeodesicLength=0.27870387668708785 rxn_smarts="[O:1]([C@@:2]1([H:9])[C:3]([H:10])([H:11])[C@@:4]2([O:5][H:12])[C:6]([H:13])([H:14])[C@@:7]12[H:15])[H:8]>>[C:2]1([H:9])=[C:3]([H:10])[C@@:4]2([O:5][H:12])[C:6]([H:13])([H:14])[C@@:7]12[H:15].[O:1]([H:8])[H:11]"
O        2.16584931       0.61824056      -0.61062086
C        0.92623673       0.36892031       0.73516548
C       -0.07466429       1.21284169       0.12321370
C       -1.03544178       0.01130004       0.14484402
O       -2.31110742       0.01943874       0.66694555
C       -0.52939260      -1.06830887      -0.73581733
C        0.09419464      -0.87729657       0.63924275
H        2.35041036      -0.16777076      -1.13648748
H        1.56213926       0.58932189       1.58637023
H       -0.34651271       2.18297999       0.52015810
H        1.14755475       1.16729520      -0.89406428
H       -2.89942682       0.40292892       0.01245840
H       -1.14876793      -1.95687388      -0.78602989
H        0.02553934      -0.83400621      -1.63899435
H        0.07338915      -1.66901106       1.37361598
15
Frame=5 idx=009600 GeodesicLength=0.348301432512394 rxn_smarts="[O:1]([C@@:2]1([H:9])[C:3]([H:10])([H:11])[C@@:4]2([O:5][H:12])[C:6]([H:13])([H:14])[C@@:7]12[H:15])[H:8]>>[C:2]1([H:9])=[C:3]([H:10])[C@@:4]2([O:5][H:12])[C:6]([H:13])([H:14])[C@@:7]12[H:15].[O:1]([H:8])[H:11]"
O        2.17143634       0.62249097      -0.62591139
C        0.93047121       0.35948350       0.73797430
C       -0.07076405       1.20799012       0.13262484
C       -1.03576231       0.01177518       0.14928219
O       -2.31557640       0.02661257       0.66112487
C       -0.52919799      -1.07177843      -0.72880588
C        0.08679870      -0.88082331       0.64858692
H        2.36507682      -0.15273734      -1.16358182
H        1.56414111       0.58256304       1.59022972
H       -0.33710099       2.18089823       0.52648511
H        1.13780198       1.18615664      -0.89717216
H       -2.90069714       0.39323904      -0.00571103
H       -1.15500926      -1.95560009      -0.78323490
H        0.03241541      -0.84153643      -1.62868320
H        0.05596657      -1.66873369       1.38679242
15
Frame=6 idx=009600 GeodesicLength=0.41786948909350097 rxn_smarts="[O:1]([C@@:2]1([H:9])[C:3]([H:10])([H:11])[C@@:4]2([O:5][H:12])[C:6]([H:13])([H:14])[C@@:7]12[H:15])[H:8]>>[C:2]1([H:9])=[C:3]([H:10])[C@@:4]2([O:5][H:12])[C:6]([H:13])([H:14])[C@@:7]12[H:15].[O:1]([H:8])[H:11]"
O        2.17690260       0.62670827      -0.64149217
C        0.93469560       0.34979300       0.74079433
C       -0.06672347       1.20301832       0.14205483
C       -1.03606946       0.01226230       0.15361055
O       -2.32000964       0.03397018       0.65492196
C       -0.52893428      -1.07540721      -0.72165480
C        0.07918145      -0.88434784       0.65815248
H        2.37978364      -0.13706983      -1.19123316
H        1.56611543       0.57552516       1.59411723
H       -0.32756873       2.17862266       0.53290882
H        1.12767029       1.20527834      -0.90002475
H       -2.90162325       0.38372404      -0.02387408
H       -1.16117110      -1.95439500      -0.78039175
H        0.03955499      -0.84940652      -1.61807994
H        0.03819593      -1.66827586       1.40019045
15
Frame=7 idx=009600 GeodesicLength=0.4874099401398092 rxn_smarts="[O:1]([C@@:2]1([H:9])[C:3]([H:10])([H:11])[C@@:4]2([O:5][H:12])[C:6]([H:13])([H:14])[C@@:7]12[H:15])[H:8]>>[C:2]1([H:9])=[C:3]([H:10])[C@@:4]2([O:5][H:12])[C:6]([H:13])([H:14])[C@@:7]12[H:15].[O:1]([H:8])[H:11]"
O        2.18224869       0.63086993      -0.65736148
C        0.93890066       0.33984375       0.74363247
C       -0.06253173       1.19792184       0.15149377
C       -1.03635213       0.01276349       0.15782534
O       -2.32438237       0.04151484       0.64832914
C       -0.52859913      -1.07919419      -0.71435622
C        0.07134058      -0.88786350       0.66793646
H        2.39449636      -0.12072547      -1.21944647
H        1.56805505       0.56820053       1.59803635
H       -0.31790930       2.17614105       0.53942817
H        1.11714597       1.22464408      -0.90262063
H       -2.90219414       0.37438504      -0.04204130
H       -1.16724683      -1.95325455      -0.77749015
H        0.04695933      -0.85761998      -1.60716810
H        0.02006899      -1.66762687       1.41380264
15
Frame=8 idx=009600 GeodesicLength=0.5569079711082787 rxn_smarts="[O:1]([C@@:2]1([H:9])[C:3]([H:10])([H:11])[C@@:4]2([O:5][H:12])[C:6]([H:13])([H:14])[C@@:7]12[H:15])[H:8]>>[C:2]1([H:9])=[C:3]([H:10])[C@@:4]2([O:5][H:12])[C:6]([H:13])([H:14])[C@@:7]12[H:15].[O:1]([H:8])[H:11]"
O        2.18744858       0.63496878      -0.67355255
C        0.94309331       0.32962510       0.74649410
C       -0.05818139       1.19269623       0.16094971
C       -1.03660216       0.01327889       0.16192711
O       -2.32869036       0.04926502       0.64131322
C       -0.52819223      -1.08315063      -0.70689491
C        0.06327593      -0.89136516       0.67794819
H        2.40920476      -0.10366800      -1.24826500
H        1.56998759       0.56056232       1.60197665
H       -0.30810972       2.17343819       0.54609056
H        1.10621624       1.24428201      -0.90493079
H       -2.90239765       0.36520860      -0.06027655
H       -1.17323482      -1.95218942      -0.77451099
H        0.05462832      -0.86619931      -1.59592669
H        0.00155358      -1.66675261       1.42765794
15
Frame=9 idx=009600 GeodesicLength=0.6263913658631864 rxn_smarts="[O:1]([C@@:2]1([H:9])[C:3]([H:10])([H:11])[C@@:4]2([O:5][H:12])[C:6]([H:13])([H:14])[C@@:7]12[H:15])[H:8]>>[C:2]1([H:9])=[C:3]([H:10])[C@@:4]2([O:5][H:12])[C:6]([H:13])([H:14])[C@@:7]12[H:15].[O:1]([H:8])[H:11]"
O        2.19251450       0.63897651      -0.69006538
C        0.94727186       0.31913564       0.74939218
C       -0.05366318       1.18734270       0.17041639
C       -1.03681542       0.01381252       0.16591128
O       -2.33292447       0.05723030       0.63386355
C       -0.52771501      -1.08728476      -0.69926842
C        0.05498908      -0.89484587       0.68818620
H        2.42388360      -0.08585470      -1.27770427
H        1.57192295       0.55261058       1.60595047
H       -0.29816802       2.17051306       0.55290866
H        1.09487283       1.26418032      -0.90694807
H       -2.90224312       0.35619529      -0.07859397
H       -1.17913655      -1.95120772      -0.77145300
H        0.06256188      -0.87516473      -1.58434710
H       -0.01735093      -1.66563914       1.44175149
15
Frame=10 idx=009600 GeodesicLength=0.6958511030227432 rxn_smarts="[O:1]([C@@:2]1([H:9])[C:3]([H:10])([H:11])[C@@:4]2([O:5][H:12])[C:6]([H:13])([H:14])[C@@:7]12[H:15])[H:8]>>[C:2]1([H:9])=[C:3]([H:10])[C@@:4]2([O:5][H:12])[C:6]([H:13])([H:14])[C@@:7]12[H:15].[O:1]([H:8])[H:11]"
O        2.19743788       0.64286556      -0.70690987
C        0.95142859       0.30837361       0.75233666
C       -0.04896939       1.18185816       0.17988143
C       -1.03698343       0.01436664       0.16977274
O       -2.33706426       0.06541329       0.62597016
C       -0.52716777      -1.09159747      -0.69147095
C        0.04647904      -0.89829675       0.69864664
H        2.43851403      -0.06725727      -1.30776226
H        1.57386081       0.54434079       1.60995974
H       -0.28808144       2.16735551       0.55988754
H        1.08310783       1.28433816      -0.90865885
H       -2.90172088       0.34734263      -0.09700204
H       -1.18494971      -1.95030806      -0.76831043
H        0.07075721      -0.88452456      -1.57241578
H       -0.03664852      -1.66427024       1.45607530
15
Frame=11 idx=009600 GeodesicLength=0.76528641586964 rxn_smarts="[O:1]([C@@:2]1([H:9])[C:3]([H:10])([H:11])[C@@:4]2([O:5][H:12])[C:6]([H:13])([H:14])[C@@:7]12[H:15])[H:8]>>[C:2]1([H:9])=[C:3]([H:10])[C@@:4]2([O:5][H:12])[C:6]([H:13])([H:14])[C@@:7]12[H:15].[O:1]([H:8])[H:11]"
O        2.20221674       0.64660542      -0.72409405
C        0.95555678       0.29733868       0.75533976
C       -0.04409215       1.17624066       0.18933049
C       -1.03709880       0.01494313       0.17350684
O       -2.34109124       0.07381753       0.61762632
C       -0.52655266      -1.09609148      -0.68349979
C        0.03774756      -0.90170981       0.70932311
H        2.45307943      -0.04784610      -1.33843318
H        1.57579972       0.53575362       1.61401245
H       -0.27784893       2.16395845       0.56702979
H        1.07091459       1.30475143      -0.91005165
H       -2.90082624       0.33865024      -0.11550436
H       -1.19067375      -1.94949250      -0.76507999
H        0.07920781      -0.89428796      -1.56012364
H       -0.05633885      -1.66263130       1.47061791
15
Frame=12 idx=009600 GeodesicLength=0.8346968463970995 rxn_smarts="[O:1]([C@@:2]1([H:9])[C:3]([H:10])([H:11])[C@@:4]2([O:5][H:12])[C:6]([H:13])([H:14])[C@@:7]12[H:15])[H:8]>>[C:2]1([H:9])=[C:3]([H:10])[C@@:4]2([O:5][H:12])[C:6]([H:13])([H:14])[C@@:7]12[H:15].[O:1]([H:8])[H:11]"
O        2.20684863       0.65016284      -0.74162806
C        0.95964965       0.28603120       0.75841452
C       -0.03902367       1.17048830       0.19874799
C       -1.03715380       0.01554366       0.17710906
O       -2.34498624       0.08244594       0.60882552
C       -0.52587228      -1.10076928      -0.67535250
C        0.02879693      -0.90507704       0.72020825
H        2.46756498      -0.02759194      -1.36970719
H        1.57773751       0.52685144       1.61811756
H       -0.26746973       2.16031470       0.57433821
H        1.05828581       1.32541671      -0.91111560
H       -2.89955394       0.33011773      -0.13410340
H       -1.19630864      -1.94876291      -0.76175850
H        0.08790526      -0.90446337      -1.54746221
H       -0.07642048      -1.66070796       1.48536637
15
Frame=13 idx=009600 GeodesicLength=0.9040987633445081 rxn_smarts="[O:1]([C@@:2]1([H:9])[C:3]([H:10])([H:11])[C@@:4]2([O:5][H:12])[C:6]([H:13])([H:14])[C@@:7]12[H:15])[H:8]>>[C:2]1([H:9])=[C:3]([H:10])[C@@:4]2([O:5][H:12])[C:6]([H:13])([H:14])[C@@:7]12[H:15].[O:1]([H:8])[H:11]"
O        2.21133888       0.65350696      -0.75953120
C        0.96370340       0.27445626       0.76157602
C       -0.03375525       1.16460242       0.20811986
C       -1.03714460       0.01616800       0.18057695
O       -2.34873921       0.09129662       0.59956581
C       -0.52513297      -1.10563823      -0.66703063
C        0.01962720      -0.90839120       0.73129484
H        2.48197345      -0.00646984      -1.40157205
H        1.57967610       0.51764597       1.62228851
H       -0.25694135       2.15642338       0.58182215
H        1.04521962       1.34633644      -0.91184272
H       -2.89790685       0.32174430      -0.15279744
H       -1.20186187      -1.94812978      -0.75834789
H        0.09683968      -0.91506340      -1.53443099
H       -0.09689622      -1.65848790       1.50030877
15
Frame=14 idx=009600 GeodesicLength=0.9734578271621084 rxn_smarts="[O:1]([C@@:2]1([H:9])[C:3]([H:10])([H:11])[C@@:4]2([O:5][H:12])[C:6]([H:13])([H:14])[C@@:7]12[H:15])[H:8]>>[C:2]1([H:9])=[C:3]([H:10])[C@@:4]2([O:5][H:12])[C:6]([H:13])([H:14])[C@@:7]12[H:15].[O:1]([H:8])[H:11]"
O        2.21567597       0.65659120      -0.77779871
C        0.96770519       0.26260358       0.76483589
C       -0.02827522       1.15857604       0.21742211
C       -1.03705227       0.01682364       0.18389945
O       -2.35230480       0.10038808       0.58983680
C       -0.52433147      -1.11068872      -0.65852670
C        0.01024537      -0.91164215       0.74257138
H        2.49624918       0.01556779      -1.43400811
H        1.58159660       0.50812432       1.62653294
H       -0.24625989       2.15226493       0.58946746
H        1.03169688       1.36749123      -0.91222280
H       -2.89586713       0.31351144      -0.17158907
H       -1.20732408      -1.94757214      -0.75483850
H        0.10600236      -0.92608897      -1.52100869
H       -0.11775669      -1.65595031       1.51542653
15
Frame=15 idx=009600 GeodesicLength=1.0427854796205738 rxn_smarts="[O:1]([C@@:2]1([H:9])[C:3]([H:10])([H:11])[C@@:4]2([O:5][H:12])[C:6]([H:13])([H:14])[C@@:7]12[H:15])[H:8]>>[C:2]1([H:9])=[C:3]([H:10])[C@@:4]2([O:5][H:12])[C:6]([H:13])([H:14])[C@@:7]12[H:15].[O:1]([H:8])[H:11]"
O        2.21982860       0.65937857      -0.79647871
C        0.97165953       0.25046658       0.76820391
C       -0.02257943       1.15239934       0.22665621
C       -1.03686710       0.01750560       0.18707643
O       -2.35567746       0.10971780       0.57958558
C       -0.52346624      -1.11593728      -0.64982032
C        0.00065312      -0.91482215       0.75404702
H        2.51037856       0.03857892      -1.46703754
H        1.58353309       0.49827192       1.63084109
H       -0.23542075       2.14781512       0.59733157
H        1.01768829       1.38890604      -0.91222802
H       -2.89340427       0.30545575      -0.19054059
H       -1.21268510      -1.94711015      -0.75120337
H        0.11538581      -0.93756502      -1.50716781
H       -0.13902665      -1.65306104       1.53073455
15
Frame=16 idx=009600 GeodesicLength=1.1121189602215726 rxn_smarts="[O:1]([C@@:2]1([H:9])[C:3]([H:10])([H:11])[C@@:4]2([O:5][H:12])[C:6]([H:13])([H:14])[C@@:7]12[H:15])[H:8]>>[C:2]1([H:9])=[C:3]([H:10])[C@@:4]2([O:5][H:12])[C:6]([H:13])([H:14])[C@@:7]12[H:15].[O:1]([H:8])[H:11]"
O        2.22382543       0.66182883      -0.81558749
C        0.97556475       0.23804604       0.77170360
C       -0.01664479       1.14607761       0.23580850
C       -1.03658393       0.01821523       0.19010304
O       -2.35884606       0.11929861       0.56881138
C       -0.52254640      -1.12139878      -0.64091466
C       -0.00915843      -0.91792663       0.76571948
H        2.52434380       0.06263709      -1.50068229
H        1.58547997       0.48810088       1.63524545
H       -0.22440415       2.14308013       0.60542573
H        1.00320834       1.41057946      -0.91185374
H       -2.89052931       0.29754664      -0.20965352
H       -1.21796627      -1.94676137      -0.74744673
H        0.12498615      -0.94952155      -1.49291189
H       -0.16072912      -1.64980218       1.54623315
