10
Frame=0 idx=005555 GeodesicLength=0.0 rxn_smarts="[O:1]([c:2]1[n:3][n:4]([H:8])[c:5]([H:9])[c:6]1[H:10])[H:7]>>[O:1]([C:2]1=[C:6]([H:10])[C:5]([H:8])([H:9])[N:4]=[N:3]1)[H:7]"
O        2.19144766       0.15392477      -0.17280138
C        0.86882493      -0.02620924      -0.13340473
N        0.33972120      -1.25077953      -0.28984990
N       -0.97269416      -1.15324097      -0.26572956
C       -1.28601344       0.20978044       0.02818405
C       -0.09356403       0.93740936       0.09267363
H        2.59499492      -0.70519285      -0.33760259
H       -1.38052388      -0.70266568       0.90132837
H       -2.30512455       0.54815562      -0.09965173
H        0.04293136       1.98881807       0.27685383
10
Frame=1 idx=005555 GeodesicLength=0.037323641941016214 rxn_smarts="[O:1]([c:2]1[n:3][n:4]([H:8])[c:5]([H:9])[c:6]1[H:10])[H:7]>>[O:1]([C:2]1=[C:6]([H:10])[C:5]([H:8])([H:9])[N:4]=[N:3]1)[H:7]"
O        2.19312637       0.15631341      -0.18434790
C        0.87086707      -0.02447279      -0.13058676
N        0.34067417      -1.25015893      -0.28777665
N       -0.96996111      -1.14957831      -0.26164326
C       -1.28543807       0.20981016       0.03638093
C       -0.09116765       0.93724355       0.10127153
H        2.59621765      -0.70466801      -0.34006084
H       -1.39863381      -0.71689110       0.90669104
H       -2.30036690       0.55174198      -0.11410515
H        0.04468228       1.99066003       0.27417706
10
Frame=2 idx=005555 GeodesicLength=0.07460996577663728 rxn_smarts="[O:1]([c:2]1[n:3][n:4]([H:8])[c:5]([H:9])[c:6]1[H:10])[H:7]>>[O:1]([C:2]1=[C:6]([H:10])[C:5]([H:8])([H:9])[N:4]=[N:3]1)[H:7]"
O        2.19476890       0.15841123      -0.19440613
C        0.87277095      -0.02245225      -0.12938471
N        0.34151673      -1.24937889      -0.28646332
N       -0.96731851      -1.14591145      -0.25724402
C       -1.28490035       0.20984984       0.04489062
C       -0.08880384       0.93723402       0.10905685
H        2.59742905      -0.70414229      -0.34198612
H       -1.41654569      -0.73130016       0.91189920
H       -2.29529471       0.55522415      -0.12753963
H        0.04637747       1.99246580       0.27117726
10
Frame=3 idx=005555 GeodesicLength=0.11191365120120575 rxn_smarts="[O:1]([c:2]1[n:3][n:4]([H:8])[c:5]([H:9])[c:6]1[H:10])[H:7]>>[O:1]([C:2]1=[C:6]([H:10])[C:5]([H:8])([H:9])[N:4]=[N:3]1)[H:7]"
O        2.19629282       0.16061677      -0.20494841
C        0.87478254      -0.02052186      -0.12747402
N        0.34249233      -1.24876361      -0.28397587
N       -0.96454221      -1.14233682      -0.25230019
C       -1.28432671       0.20991935       0.05328807
C       -0.08635589       0.93720742       0.11701639
H        2.59862519      -0.70327647      -0.34512681
H       -1.43548896      -0.74570446       0.91651431
H       -2.28957334       0.55875371      -0.14170098
H        0.04809422       1.99410596       0.26870751
10
Frame=4 idx=005555 GeodesicLength=0.1491715240147664 rxn_smarts="[O:1]([c:2]1[n:3][n:4]([H:8])[c:5]([H:9])[c:6]1[H:10])[H:7]>>[O:1]([C:2]1=[C:6]([H:10])[C:5]([H:8])([H:9])[N:4]=[N:3]1)[H:7]"
O        2.19791454       0.16231630      -0.21281031
C        0.87641137      -0.01794649      -0.12934361
N        0.34313638      -1.24769275      -0.28403956
N       -0.96204279      -1.13866005      -0.24732978
C       -1.28382206       0.20998863       0.06239420
C       -0.08401629       0.93749889       0.12333898
H        2.59983558      -0.70289206      -0.34559278
H       -1.45317872      -0.76054492       0.92130157
H       -2.28392502       0.56204736      -0.15312460
H        0.04968700       1.99588510       0.26520589
10
Frame=5 idx=005555 GeodesicLength=0.18642705799733272 rxn_smarts="[O:1]([c:2]1[n:3][n:4]([H:8])[c:5]([H:9])[c:6]1[H:10])[H:7]>>[O:1]([C:2]1=[C:6]([H:10])[C:5]([H:8])([H:9])[N:4]=[N:3]1)[H:7]"
O        2.19961798       0.16392101      -0.21973136
C        0.87807883      -0.01535641      -0.13111539
N        0.34389863      -1.24673501      -0.28316569
N       -0.95941890      -1.13510412      -0.24170558
C       -1.28329618       0.21008400       0.07137724
C       -0.08163926       0.93784841       0.12938888
H        2.60096210      -0.70220367      -0.34780474
H       -1.47166671      -0.77527063       0.92562972
H       -2.27779077       0.56525811      -0.16496725
H        0.05125428       1.99755831       0.26209418
10
Frame=6 idx=005555 GeodesicLength=0.22368428529852377 rxn_smarts="[O:1]([c:2]1[n:3][n:4]([H:8])[c:5]([H:9])[c:6]1[H:10])[H:7]>>[O:1]([C:2]1=[C:6]([H:10])[C:5]([H:8])([H:9])[N:4]=[N:3]1)[H:7]"
O        2.20126340       0.16560841      -0.22709996
C        0.87970048      -0.01265005      -0.13334458
N        0.34468472      -1.24578174      -0.28203997
N       -0.95674274      -1.13159647      -0.23567263
C       -1.28273680       0.21020557       0.08043322
C       -0.07921352       0.93826945       0.13516945
H        2.60211229      -0.70150527      -0.34964082
H       -1.49067427      -0.79011792       0.92944904
H       -2.27123648       0.56841149      -0.17657916
H        0.05284292       1.99915654       0.25932541
10
Frame=7 idx=005555 GeodesicLength=0.2609913646384591 rxn_smarts="[O:1]([c:2]1[n:3][n:4]([H:8])[c:5]([H:9])[c:6]1[H:10])[H:7]>>[O:1]([C:2]1=[C:6]([H:10])[C:5]([H:8])([H:9])[N:4]=[N:3]1)[H:7]"
O        2.20280649       0.16758394      -0.23573468
C        0.88157959      -0.01024019      -0.13349371
N        0.34581307      -1.24520947      -0.27838015
N       -0.95375632      -1.12827429      -0.22881170
C       -1.28212346       0.21037830       0.08908353
C       -0.07666651       0.93858516       0.14169063
H        2.60323503      -0.70022581      -0.35423248
H       -1.51157790      -0.80475288       0.93224349
H       -2.26380640       0.57159787      -0.18993148
H        0.05449643       2.00055737       0.25756657
10
Frame=8 idx=005555 GeodesicLength=0.29831221831787313 rxn_smarts="[O:1]([c:2]1[n:3][n:4]([H:8])[c:5]([H:9])[c:6]1[H:10])[H:7]>>[O:1]([C:2]1=[C:6]([H:10])[C:5]([H:8])([H:9])[N:4]=[N:3]1)[H:7]"
O        2.20430308       0.16964796      -0.24460594
C        0.88352112      -0.00782772      -0.13337704
N        0.34709056      -1.24475563      -0.27369931
N       -0.95062572      -1.12506236      -0.22132350
C       -1.28148391       0.21058863       0.09764107
C       -0.07405769       0.93893618       0.14820301
H        2.60432543      -0.69874259      -0.35979794
H       -1.53345655      -0.81934625       0.93427691
H       -2.25580461       0.57467670      -0.20359926
H        0.05618829       2.00188508       0.25628200
10
Frame=9 idx=005555 GeodesicLength=0.3356293424033195 rxn_smarts="[O:1]([c:2]1[n:3][n:4]([H:8])[c:5]([H:9])[c:6]1[H:10])[H:7]>>[O:1]([C:2]1=[C:6]([H:10])[C:5]([H:8])([H:9])[N:4]=[N:3]1)[H:7]"
O        2.20578814       0.17170969      -0.25331675
C        0.88544170      -0.00530624      -0.13370601
N        0.34845206      -1.24431229      -0.26860507
N       -0.94740423      -1.12191902      -0.21328686
C       -1.28082409       0.21083955       0.10623415
C       -0.07141147       0.93937187       0.15440999
H        2.60539044      -0.69720272      -0.36561653
H       -1.55594926      -0.83396774       0.93563555
H       -2.24738905       0.57759741      -0.21699188
H        0.05790576       2.00318949       0.25524340
10
Frame=10 idx=005555 GeodesicLength=0.37293475884701355 rxn_smarts="[O:1]([c:2]1[n:3][n:4]([H:8])[c:5]([H:9])[c:6]1[H:10])[H:7]>>[O:1]([C:2]1=[C:6]([H:10])[C:5]([H:8])([H:9])[N:4]=[N:3]1)[H:7]"
O        2.20734236       0.17364232      -0.26124540
C        0.88721145      -0.00252419      -0.13552892
N        0.34977386      -1.24373291      -0.26405191
N       -0.94418624      -1.11878930      -0.20485629
C       -1.28014092       0.21113270       0.11507086
C       -0.06874949       0.93996312       0.15989631
H        2.60646137      -0.69581450      -0.37061138
H       -1.57852012      -0.84874940       0.93650636
H       -2.23881560       0.58032239      -0.22924200
H        0.05962333       2.00454978       0.25406237
10
Frame=11 idx=005555 GeodesicLength=0.41018002277986754 rxn_smarts="[O:1]([c:2]1[n:3][n:4]([H:8])[c:5]([H:9])[c:6]1[H:10])[H:7]>>[O:1]([C:2]1=[C:6]([H:10])[C:5]([H:8])([H:9])[N:4]=[N:3]1)[H:7]"
O        2.20901338       0.17530261      -0.26808582
C        0.88862407       0.00076742      -0.14037414
N        0.35083241      -1.24277078      -0.26156437
N       -0.94113113      -1.11556164      -0.19634068
C       -1.27940207       0.21144848       0.12450305
C       -0.06607963       0.94079905       0.16411294
H        2.60762367      -0.69493320      -0.37260762
H       -1.60032911      -0.86396743       0.93717836
H       -2.23047147       0.58285032      -0.23904531
H        0.06131989       2.00606517       0.25222359
10
Frame=12 idx=005555 GeodesicLength=0.4474289827397924 rxn_smarts="[O:1]([c:2]1[n:3][n:4]([H:8])[c:5]([H:9])[c:6]1[H:10])[H:7]>>[O:1]([C:2]1=[C:6]([H:10])[C:5]([H:8])([H:9])[N:4]=[N:3]1)[H:7]"
O        2.21070992       0.17701570      -0.27479301
C        0.89007308       0.00403958      -0.14504724
N        0.35206503      -1.24190252      -0.25815295
N       -0.93789093      -1.11244283      -0.18710874
C       -1.27860585       0.21182549       0.13387472
C       -0.06333634       0.94167986       0.16822864
H        2.60873984      -0.69385717      -0.37571091
H       -1.62311110      -0.87911384       0.93695191
H       -2.22171485       0.58519604      -0.24893588
H        0.06307120       2.00755969       0.25069346
10
Frame=13 idx=005555 GeodesicLength=0.4846423190508941 rxn_smarts="[O:1]([c:2]1[n:3][n:4]([H:8])[c:5]([H:9])[c:6]1[H:10])[H:7]>>[O:1]([C:2]1=[C:6]([H:10])[C:5]([H:8])([H:9])[N:4]=[N:3]1)[H:7]"
O        2.21241656       0.17859666      -0.28140522
C        0.89125058       0.00765409      -0.15186130
N        0.35311476      -1.24075093      -0.25622654
N       -0.93471811      -1.10925068      -0.17767192
C       -1.27770669       0.21223642       0.14374784
C       -0.06052908       0.94272983       0.17144994
H        2.60997692      -0.69312849      -0.37614727
H       -1.64557519      -0.89464854       0.93625876
H       -2.21309306       0.58740474      -0.25690140
H        0.06486331       2.00915689       0.24875712
10
Frame=14 idx=005555 GeodesicLength=0.5218610181879939 rxn_smarts="[O:1]([c:2]1[n:3][n:4]([H:8])[c:5]([H:9])[c:6]1[H:10])[H:7]>>[O:1]([C:2]1=[C:6]([H:10])[C:5]([H:8])([H:9])[N:4]=[N:3]1)[H:7]"
O        2.21407989       0.18023766      -0.28838881
C        0.89240440       0.01129521      -0.15883192
N        0.35426235      -1.23961992      -0.25390496
N       -0.93139255      -1.10612634      -0.16759419
C       -1.27671004       0.21270284       0.15373658
C       -0.05762131       0.94383495       0.17451240
H        2.61123014      -0.69230659      -0.37659102
H       -1.66880725      -0.91024483       0.93460805
H       -2.20418013       0.58946048      -0.26450893
H        0.06673450       2.01076654       0.24696281
10
Frame=15 idx=005555 GeodesicLength=0.5590851219452998 rxn_smarts="[O:1]([c:2]1[n:3][n:4]([H:8])[c:5]([H:9])[c:6]1[H:10])[H:7]>>[O:1]([C:2]1=[C:6]([H:10])[C:5]([H:8])([H:9])[N:4]=[N:3]1)[H:7]"
O        2.21568189       0.18201055      -0.29585542
C        0.89363269       0.01485105      -0.16515538
N        0.35564531      -1.23862028      -0.25027863
N       -0.92781197      -1.10312933      -0.15658954
C       -1.27563241       0.21323345       0.16367922
C       -0.05460586       0.94494699       0.17777743
H        2.61244579      -0.69121484      -0.37834936
H       -1.69329465      -0.92573983       0.93169931
H       -2.19475733       0.59131325      -0.27248673
H        0.06869654       2.01234899       0.24555910
10
Frame=16 idx=005555 GeodesicLength=0.5963022565305314 rxn_smarts="[O:1]([c:2]1[n:3][n:4]([H:8])[c:5]([H:9])[c:6]1[H:10])[H:7]>>[O:1]([C:2]1=[C:6]([H:10])[C:5]([H:8])([H:9])[N:4]=[N:3]1)[H:7]"
O        2.21719773       0.18386095      -0.30391322
C        0.89484153       0.01840388      -0.17148736
N        0.35714725      -1.23764708      -0.24612347
N       -0.92405085      -1.10020983      -0.14476845
C       -1.27445836       0.21382991       0.17375877
C       -0.05148475       0.94610678       0.18097951
H        2.61367870      -0.68999948      -0.38020242
H       -1.71863212      -0.94124960       0.92761162
H       -2.18500167       0.59296310      -0.28020811
H        0.07076254       2.01394135       0.24435314
