16
Frame=0 idx=003449 GeodesicLength=0.0 rxn_smarts="[C:1]1([H:7])([H:8])[C:2]([H:9])([H:10])[C:3]1([C:4]1([H:12])[C:5]([H:13])([H:14])[C:6]1([H:15])[H:16])[H:11]>>[C:1]1([H:8])=[C:3]([H:11])[C:2]1([H:9])[H:10].[C:4](=[C:5]([H:13])[H:14])([C:6]([H:7])([H:15])[H:16])[H:12]"
C        1.42008903       0.58390417      -0.62758071
C        1.92387621      -0.22697931       0.49298409
C        0.69355173       0.64402072       0.56719398
C       -0.73000202      -0.30359875       0.38114457
C       -1.99579295       0.18403751       0.70701527
C       -0.79337583      -0.53071726      -1.11644569
H        0.38812175      -0.28976634      -1.38287688
H        1.87559139       1.31559948      -1.27567498
H        1.74825362      -1.30418088       0.49108529
H        2.84884123       0.06054160       0.98770127
H        0.56181666       1.49050097       1.22255194
H       -0.48185491      -1.20706582       0.93903596
H       -2.55560310      -0.16093412       1.56940649
H       -2.43632692       0.98893066       0.13053462
H       -1.15201164      -1.50820796      -1.43667111
H       -1.31517421       0.26391533      -1.64940406
16
Frame=1 idx=003449 GeodesicLength=0.1113576150511491 rxn_smarts="[C:1]1([H:7])([H:8])[C:2]([H:9])([H:10])[C:3]1([C:4]1([H:12])[C:5]([H:13])([H:14])[C:6]1([H:15])[H:16])[H:11]>>[C:1]1([H:8])=[C:3]([H:11])[C:2]1([H:9])[H:10].[C:4](=[C:5]([H:13])[H:14])([C:6]([H:7])([H:15])[H:16])[H:12]"
C        1.43652005       0.58092923      -0.63061386
C        1.93917567      -0.22286837       0.49788290
C        0.70865726       0.64655171       0.56326419
C       -0.73521527      -0.30988042       0.38650510
C       -2.00666271       0.17257919       0.69705874
C       -0.81873053      -0.52871569      -1.10953323
H        0.38829055      -0.29148916      -1.38414872
H        1.89771257       1.31157497      -1.27596758
H        1.76896394      -1.30065267       0.49667571
H        2.85914195       0.07045590       0.99817708
H        0.55760629       1.50026315       1.20464235
H       -0.48510420      -1.21581169       0.93896955
H       -2.57263432      -0.18218642       1.55129683
H       -2.43111836       1.00413653       0.14709827
H       -1.17796347      -1.50461614      -1.43357855
H       -1.32863944       0.26972989      -1.64772876
16
Frame=2 idx=003449 GeodesicLength=0.22261765366075265 rxn_smarts="[C:1]1([H:7])([H:8])[C:2]([H:9])([H:10])[C:3]1([C:4]1([H:12])[C:5]([H:13])([H:14])[C:6]1([H:15])[H:16])[H:11]>>[C:1]1([H:8])=[C:3]([H:11])[C:2]1([H:9])[H:10].[C:4](=[C:5]([H:13])[H:14])([C:6]([H:7])([H:15])[H:16])[H:12]"
C        1.45352574       0.57778181      -0.63370792
C        1.95452723      -0.21868437       0.50304515
C        0.72388487       0.64924152       0.55894563
C       -0.74081080      -0.31603220       0.39154034
C       -2.01752722       0.16155828       0.68746588
C       -0.84448418      -0.52640608      -1.10269533
H        0.38896625      -0.29310755      -1.38564130
H        1.92066835       1.30722170      -1.27625604
H        1.78966371      -1.29701431       0.50267723
H        2.86927782       0.08047171       1.00911927
H        0.55337114       1.50983969       1.18582830
H       -0.48873475      -1.22453482       0.93835170
H       -2.58918519      -0.20309836       1.53361218
H       -2.42693079       1.01768294       0.16451179
H       -1.20396063      -1.50076107      -1.43073892
H       -1.34225155       0.27584111      -1.64605796
16
Frame=3 idx=003449 GeodesicLength=0.3338244415276141 rxn_smarts="[C:1]1([H:7])([H:8])[C:2]([H:9])([H:10])[C:3]1([C:4]1([H:12])[C:5]([H:13])([H:14])[C:6]1([H:15])[H:16])[H:11]>>[C:1]1([H:8])=[C:3]([H:11])[C:2]1([H:9])[H:10].[C:4](=[C:5]([H:13])[H:14])([C:6]([H:7])([H:15])[H:16])[H:12]"
C        1.47111433       0.57445590      -0.63685747
C        1.96993644      -0.21440364       0.50848174
C        0.73922903       0.65207769       0.55422765
C       -0.74679401      -0.32209842       0.39623423
C       -2.02839199       0.15094180       0.67827310
C       -0.87067655      -0.52380054      -1.09594114
H        0.39019240      -0.29465957      -1.38736507
H        1.94444159       1.30254161      -1.27653172
H        1.81038733      -1.29324693       0.50912120
H        2.87923755       0.09064512       1.02053368
H        0.54909943       1.51919389       1.16608714
H       -0.49272863      -1.23327838       0.93714806
H       -2.60526354      -0.22368070       1.51640008
H       -2.42371500       1.02970687       0.18274033
H       -1.23004186      -1.49664790      -1.42817734
H       -1.35602652       0.28225320      -1.64437448
16
Frame=4 idx=003449 GeodesicLength=0.44500198926955026 rxn_smarts="[C:1]1([H:7])([H:8])[C:2]([H:9])([H:10])[C:3]1([C:4]1([H:12])[C:5]([H:13])([H:14])[C:6]1([H:15])[H:16])[H:11]>>[C:1]1([H:8])=[C:3]([H:11])[C:2]1([H:9])[H:10].[C:4](=[C:5]([H:13])[H:14])([C:6]([H:7])([H:15])[H:16])[H:12]"
C        1.48929611       0.57094310      -0.64005675
C        1.98540741      -0.21000090       0.51420583
C        0.75468589       0.65504970       0.54909737
C       -0.75316978      -0.32812238       0.40056785
C       -2.03926295       0.14069903       0.66951333
C       -0.89734670      -0.52090633      -1.08928106
H        0.39201190      -0.29618598      -1.38932982
H        1.96902268       1.29753195      -1.27678519
H        1.83116564      -1.28932940       0.51604586
H        2.88900466       0.10103555       1.03242707
H        0.54477937       1.52829099       1.14538641
H       -0.49707120      -1.24208556       0.93531806
H       -2.62087669      -0.24394492       1.49970665
H       -2.42141153       1.04032316       0.20176400
H       -1.25625260      -1.49227319      -1.42592048
H       -1.36998224       0.28897518      -1.64265913
16
Frame=5 idx=003449 GeodesicLength=0.556187471598732 rxn_smarts="[C:1]1([H:7])([H:8])[C:2]([H:9])([H:10])[C:3]1([C:4]1([H:12])[C:5]([H:13])([H:14])[C:6]1([H:15])[H:16])[H:11]>>[C:1]1([H:8])=[C:3]([H:11])[C:2]1([H:9])[H:10].[C:4](=[C:5]([H:13])[H:14])([C:6]([H:7])([H:15])[H:16])[H:12]"
C        1.50808826       0.56723882      -0.64329977
C        2.00094678      -0.20545315       0.52022993
C        0.77025375       0.65814558       0.54354147
C       -0.75994067      -0.33414598       0.40452050
C       -2.05015071       0.13082035       0.66121735
C       -0.92453967      -0.51773399      -1.08272346
H        0.39447552      -0.29772318      -1.39154966
H        1.99440916       1.29220002      -1.27700670
H        1.85202962      -1.28524204       0.52348113
H        2.89856818       0.11169475       1.04480925
H        0.54040326       1.53709126       1.12369973
H       -0.50175173      -1.25099727       0.93282592
H       -2.63602929      -0.26388434       1.48357886
H       -2.41998507       1.04960662       0.22156511
H       -1.28264206      -1.48763724      -1.42399253
H       -1.38413534       0.29601978      -1.64089714
16
Frame=6 idx=003449 GeodesicLength=0.6674041287350114 rxn_smarts="[C:1]1([H:7])([H:8])[C:2]([H:9])([H:10])[C:3]1([C:4]1([H:12])[C:5]([H:13])([H:14])[C:6]1([H:15])[H:16])[H:11]>>[C:1]1([H:8])=[C:3]([H:11])[C:2]1([H:9])[H:10].[C:4](=[C:5]([H:13])[H:14])([C:6]([H:7])([H:15])[H:16])[H:12]"
C        1.52750733       0.56332869      -0.64657691
C        2.01655440      -0.20072836       0.52657317
C        0.78593087       0.66135729       0.53754023
C       -0.76711156      -0.34021621       0.40806374
C       -2.06106210       0.12126400       0.65341034
C       -0.95230482      -0.51428142      -1.07628130
H        0.39763571      -0.29932850      -1.39403326
H        2.02060025       1.28653305      -1.27718149
H        1.87300627      -1.28095575       0.53147953
H        2.90790114       0.12269501       1.05769246
H        0.53595481       1.54555817       1.10097149
H       -0.50675623      -1.26006140       0.92961231
H       -2.65071869      -0.28351130       1.46807012
H       -2.41936109       1.05766245       0.24215199
H       -1.30927034      -1.48272228      -1.42242764
H       -1.39850595       0.30340655      -1.63906478
16
Frame=7 idx=003449 GeodesicLength=0.7786579896985613 rxn_smarts="[C:1]1([H:7])([H:8])[C:2]([H:9])([H:10])[C:3]1([C:4]1([H:12])[C:5]([H:13])([H:14])[C:6]1([H:15])[H:16])[H:11]>>[C:1]1([H:8])=[C:3]([H:11])[C:2]1([H:9])[H:10].[C:4](=[C:5]([H:13])[H:14])([C:6]([H:7])([H:15])[H:16])[H:12]"
C        1.54757133       0.55920508      -0.64988111
C        2.03223517      -0.19579963       0.53325081
C        0.80171788       0.66467642       0.53107730
C       -0.77468625      -0.34637342       0.41117049
C       -2.07200718       0.11201616       0.64611569
C       -0.98068985      -0.51055288      -1.06996382
H        0.40154232      -0.30104872      -1.39679178
H        2.04759887       1.28052990      -1.27730214
H        1.89412164      -1.27644499       0.54008026
H        2.91698937       0.13409391       1.07108757
H        0.53142558       1.55365460       1.07717314
H       -0.51207711      -1.26932035       0.92562814
H       -2.66494774      -0.30282139       1.45322622
H       -2.41948888       1.06455198       0.26352814
H       -1.33619325      -1.47751805      -1.42125281
H       -1.41311190       0.31115137      -1.63714608
16
Frame=8 idx=003449 GeodesicLength=0.8899575673165423 rxn_smarts="[C:1]1([H:7])([H:8])[C:2]([H:9])([H:10])[C:3]1([C:4]1([H:12])[C:5]([H:13])([H:14])[C:6]1([H:15])[H:16])[H:11]>>[C:1]1([H:8])=[C:3]([H:11])[C:2]1([H:9])[H:10].[C:4](=[C:5]([H:13])[H:14])([C:6]([H:7])([H:15])[H:16])[H:12]"
C        1.56830347       0.55484752      -0.65320245
C        2.04798715      -0.19062942       0.54028568
C        0.81761706       0.66809532       0.52412828
C       -0.78266685      -0.35265884       0.41380590
C       -2.08299239       0.10304600       0.63936146
C       -1.00975005      -0.50653274      -1.06378305
H        0.40626101      -0.30296192      -1.39983301
H        2.07541432       1.27417047      -1.27735321
H        1.91539431      -1.27167159       0.54934730
H        2.92580088       0.14597309       1.08500377
H        0.52680714       1.56134053       1.05223379
H       -0.51770465      -1.27881906       0.92080273
H       -2.67872096      -0.32184258       1.43909247
H       -2.42029112       1.07034648       0.28572336
H       -1.36348448      -1.47199086      -1.42050061
H       -1.42797482       0.31928761      -1.63511241
16
Frame=9 idx=003449 GeodesicLength=1.001483777754598 rxn_smarts="[C:1]1([H:7])([H:8])[C:2]([H:9])([H:10])[C:3]1([C:4]1([H:12])[C:5]([H:13])([H:14])[C:6]1([H:15])[H:16])[H:11]>>[C:1]1([H:8])=[C:3]([H:11])[C:2]1([H:9])[H:10].[C:4](=[C:5]([H:13])[H:14])([C:6]([H:7])([H:15])[H:16])[H:12]"
C        1.58974925       0.55021585      -0.65653147
C        2.06378817      -0.18517032       0.54772882
C        0.83362472       0.67161514       0.51662227
C       -0.79107726      -0.35911092       0.41591060
C       -2.09399238       0.09429660       0.63321205
C       -1.03961282      -0.50219368      -1.05775371
H        0.41192117      -0.30519812      -1.40317034
H        2.10409495       1.26740898      -1.27735307
H        1.93679868      -1.26657739       0.55941745
H        2.93427336       0.15842705       1.09949125
H        0.52207135       1.56862422       1.02605541
H       -0.52364291      -1.28859761       0.91501449
H       -2.69194743      -0.34063501       1.42576306
H       -2.42165593       1.07505067       0.30878414
H       -1.39124583      -1.46606871      -1.42026473
H       -1.44314713       0.32791323      -1.63292622
16
Frame=10 idx=003449 GeodesicLength=1.1130566556498325 rxn_smarts="[C:1]1([H:7])([H:8])[C:2]([H:9])([H:10])[C:3]1([C:4]1([H:12])[C:5]([H:13])([H:14])[C:6]1([H:15])[H:16])[H:11]>>[C:1]1([H:8])=[C:3]([H:11])[C:2]1([H:9])[H:10].[C:4](=[C:5]([H:13])[H:14])([C:6]([H:7])([H:15])[H:16])[H:12]"
C        1.61191621       0.54531358      -0.65985297
C        2.07965291      -0.17939413       0.55557676
C        0.84974900       0.67522089       0.50857663
C       -0.79990070      -0.36577921       0.41745981
C       -2.10504934       0.08576035       0.62765262
C       -1.07027786      -0.49753923      -1.05187520
H        0.41852338      -0.30777145      -1.40681430
H        2.13362623       1.26025408      -1.27725859
H        1.95839202      -1.26114019       0.57028643
H        2.94239961       0.17151938       1.11453409
H        0.51721955       1.57541695       0.99859889
H       -0.52987400      -1.29871386       0.90821686
H       -2.70469661      -0.35916495       1.41326035
H       -2.42353495       1.07877731       0.33272800
H       -1.41952227      -1.45975148      -1.42052476
H       -1.45862318       0.33699198      -1.63056462
16
Frame=11 idx=003449 GeodesicLength=1.2246734938089645 rxn_smarts="[C:1]1([H:7])([H:8])[C:2]([H:9])([H:10])[C:3]1([C:4]1([H:12])[C:5]([H:13])([H:14])[C:6]1([H:15])[H:16])[H:11]>>[C:1]1([H:8])=[C:3]([H:11])[C:2]1([H:9])[H:10].[C:4](=[C:5]([H:13])[H:14])([C:6]([H:7])([H:15])[H:16])[H:12]"
C        1.63483568       0.54012720      -0.66315609
C        2.09557865      -0.17326475       0.56385644
C        0.86599198       0.67890862       0.49996484
C       -0.80914116      -0.37270689       0.41840895
C       -2.11616965       0.07741157       0.62270701
C       -1.10181040      -0.49256037      -1.04615140
H        0.42613821      -0.31074815      -1.41077902
H        2.16403345       1.25269391      -1.27706359
H        1.98018787      -1.25531905       0.58202445
H        2.95014569       0.18532150       1.13015216
H        0.51223957       1.58167864       0.96980013
H       -0.53639367      -1.30921725       0.90032084
H       -2.71695043      -0.37743928       1.40164369
H       -2.42585185       1.08155692       0.35758433
H       -1.44840510      -1.45300153      -1.42131141
H       -1.47442884       0.34655893      -1.62800134
16
Frame=12 idx=003449 GeodesicLength=1.3363181957424484 rxn_smarts="[C:1]1([H:7])([H:8])[C:2]([H:9])([H:10])[C:3]1([C:4]1([H:12])[C:5]([H:13])([H:14])[C:6]1([H:15])[H:16])[H:11]>>[C:1]1([H:8])=[C:3]([H:11])[C:2]1([H:9])[H:10].[C:4](=[C:5]([H:13])[H:14])([C:6]([H:7])([H:15])[H:16])[H:12]"
C        1.65854351       0.53462948      -0.66642447
C        2.11155474      -0.16673358       0.57259912
C        0.88236153       0.68267426       0.49075203
C       -0.81880076      -0.37993851       0.41870525
C       -2.12735601       0.06921843       0.61840562
C       -1.13428314      -0.48722998      -1.04058476
H        0.43483734      -0.31421474      -1.41507480
H        2.19535062       1.24469237      -1.27675164
H        2.00219130      -1.24905985       0.59472107
H        2.95746227       0.19993011       1.14636172
H        0.50712313       1.58736311       0.93955476
H       -0.54319781      -1.32015949       0.89121583
H       -2.72869875      -0.39549400       1.39096721
H       -2.42850484       1.08342016       0.38340824
H       -1.47798874      -1.44575793      -1.42266289
H       -1.49059439       0.35666014      -1.62519228
16
Frame=13 idx=003449 GeodesicLength=1.4479600473228051 rxn_smarts="[C:1]1([H:7])([H:8])[C:2]([H:9])([H:10])[C:3]1([C:4]1([H:12])[C:5]([H:13])([H:14])[C:6]1([H:15])[H:16])[H:11]>>[C:1]1([H:8])=[C:3]([H:11])[C:2]1([H:9])[H:10].[C:4](=[C:5]([H:13])[H:14])([C:6]([H:7])([H:15])[H:16])[H:12]"
C        1.68307675       0.52879998      -0.66964188
C        2.12757990      -0.15975810       0.58183415
C        0.89886430       0.68651394       0.48090639
C       -0.82888095      -0.38751901       0.41829451
C       -2.13861763       0.06115496       0.61477557
C       -1.16776413      -0.48152843      -1.03517711
H        0.44469553      -0.31825315      -1.41971697
H        2.22760634       1.23623128      -1.27631540
H        2.02441341      -1.24231264       0.60845277
H        2.96431624       0.21542704       1.16318357
H        0.50186005       1.59242346       0.90778775
H       -0.55028341      -1.33159225       0.88079523
H       -2.73993464      -0.41334413       1.38129063
H       -2.43141345       1.08439418       0.41024339
H       -1.50837080      -1.43796898      -1.42460981
H       -1.50714750       0.36733186      -1.62210278
16
Frame=14 idx=003449 GeodesicLength=1.5595899911790254 rxn_smarts="[C:1]1([H:7])([H:8])[C:2]([H:9])([H:10])[C:3]1([C:4]1([H:12])[C:5]([H:13])([H:14])[C:6]1([H:15])[H:16])[H:11]>>[C:1]1([H:8])=[C:3]([H:11])[C:2]1([H:9])[H:10].[C:4](=[C:5]([H:13])[H:14])([C:6]([H:7])([H:15])[H:16])[H:12]"
C        1.70847948       0.52259869      -0.67278686
C        2.14363345      -0.15227778       0.59160120
C        0.91551064       0.69042786       0.47037965
C       -0.83938569      -0.39548970       0.41710691
C       -2.14994509       0.05318459       0.61185576
C       -1.20234431      -0.47540897      -1.02992313
H        0.45580353      -0.32297911      -1.42471353
H        2.26085157       1.22725040      -1.27573598
H        2.04683939      -1.23500436       0.62334240
H        2.97063412       0.23193327       1.18063366
H        0.49645090       1.59680896       0.87436021
H       -0.55764854      -1.34356833       0.86891054
H       -2.75062944      -0.43105352       1.37266698
H       -2.43445727       1.08448084       0.43817611
H       -1.53966662      -1.42954383      -1.42719610
H       -1.52412611       0.37864099      -1.61867783
16
Frame=15 idx=003449 GeodesicLength=1.6711741270183864 rxn_smarts="[C:1]1([H:7])([H:8])[C:2]([H:9])([H:10])[C:3]1([C:4]1([H:12])[C:5]([H:13])([H:14])[C:6]1([H:15])[H:16])[H:11]>>[C:1]1([H:8])=[C:3]([H:11])[C:2]1([H:9])[H:10].[C:4](=[C:5]([H:13])[H:14])([C:6]([H:7])([H:15])[H:16])[H:12]"
C        1.73479681       0.51599440      -0.67583722
C        2.15970042      -0.14423616       0.60193701
C        0.93231131       0.69441555       0.45912804
C       -0.85031770      -0.40389372       0.41507098
C       -2.16133773       0.04527759       0.60968269
C       -1.23810622      -0.46883302      -1.02481604
H        0.46825230      -0.32849784      -1.43007825
H        2.29513336       1.21770804      -1.27499899
H        2.06945791      -1.22706484       0.63949706
H        2.97635758       0.24955434       1.19872944
H        0.49089578       1.60046291       0.83915791
H       -0.56529466      -1.35613836       0.85541815
H       -2.76076099      -0.44866417       1.36515451
H       -2.43752773       1.08367603       0.46727698
H       -1.57199289      -1.42040148      -1.43045514
H       -1.54156754       0.39064074      -1.61486711
16
Frame=16 idx=003449 GeodesicLength=1.7826812332506146 rxn_smarts="[C:1]1([H:7])([H:8])[C:2]([H:9])([H:10])[C:3]1([C:4]1([H:12])[C:5]([H:13])([H:14])[C:6]1([H:15])[H:16])[H:11]>>[C:1]1([H:8])=[C:3]([H:11])[C:2]1([H:9])[H:10].[C:4](=[C:5]([H:13])[H:14])([C:6]([H:7])([H:15])[H:16])[H:12]"
C        1.76208144       0.50893940      -0.67876381
C        2.17575440      -0.13556213       0.61288920
C        0.94927862       0.69848097       0.44709354
C       -0.86168108      -0.41277365       0.41210152
C       -2.17278396       0.03739778       0.60830512
C       -1.27514582      -0.46174287      -1.01984506
H        0.48214375      -0.33493913      -1.43581985
H        2.33051515       1.20753206      -1.27408790
H        2.09224011      -1.21840480       0.65705726
H        2.98140907       0.26842263       1.21748832
H        0.48520145       1.60332415       0.80201936
H       -0.57322312      -1.36935643       0.84014069
H       -2.77029601      -0.46625031       1.35880810
H       -2.44049510       1.08195562       0.49765056
H       -1.60548056      -1.41043058      -1.43443205
H       -1.55951834       0.40340729      -1.61060499
