9
Frame=0 idx=000923 GeodesicLength=0.0 rxn_smarts="[N:1]([c:2]1[n:3][n:4]([H:9])[n:5][n:6]1)([H:7])[H:8]>>[N:1](=[c:2]1[n-:3][n+:4]([H:9])[n:5][n:6]1[H:8])[H:7]"
N       -1.78734080      -0.10918608       0.15193855
C       -0.48109595      -0.25327532       0.13817247
N        0.56243826      -1.03314644       0.42740948
N        1.57798544      -0.23932833       0.02593933
N        1.26788502       0.91618730      -0.46760326
N       -0.02226655       0.91539399      -0.40439193
H       -2.41317745      -0.82616562       0.47048674
H       -1.24475301       1.15412859      -0.44352103
H        2.54032507      -0.52460806       0.10156964
9
Frame=1 idx=000923 GeodesicLength=0.03826296283522228 rxn_smarts="[N:1]([c:2]1[n:3][n:4]([H:9])[n:5][n:6]1)([H:7])[H:8]>>[N:1](=[c:2]1[n-:3][n+:4]([H:9])[n:5][n:6]1[H:8])[H:7]"
N       -1.78819176      -0.10780947       0.14895703
C       -0.47898270      -0.22702976       0.18778918
N        0.55834357      -1.03593101       0.41571287
N        1.57599187      -0.24600965       0.01775767
N        1.26986975       0.90823183      -0.48029807
N       -0.01971189       0.92589436      -0.39117256
H       -2.39975956      -0.84225553       0.45651212
H       -1.25534508       1.15496150      -0.45980961
H        2.53778580      -0.53005228       0.10455136
9
Frame=2 idx=000923 GeodesicLength=0.07714175318219868 rxn_smarts="[N:1]([c:2]1[n:3][n:4]([H:9])[n:5][n:6]1)([H:7])[H:8]>>[N:1](=[c:2]1[n-:3][n+:4]([H:9])[n:5][n:6]1[H:8])[H:7]"
N       -1.78776008      -0.10402391       0.15292146
C       -0.47726697      -0.20594676       0.22413604
N        0.55331246      -1.03532203       0.41015274
N        1.57338192      -0.25203441       0.01125886
N        1.27156725       0.90160997      -0.48990431
N       -0.01711268       0.93626058      -0.37915367
H       -2.38472926      -0.85860750       0.44114740
H       -1.26565050       1.15510885      -0.47559757
H        2.53425786      -0.53704478       0.10503905
9
Frame=3 idx=000923 GeodesicLength=0.11596430971807226 rxn_smarts="[N:1]([c:2]1[n:3][n:4]([H:9])[n:5][n:6]1)([H:7])[H:8]>>[N:1](=[c:2]1[n-:3][n+:4]([H:9])[n:5][n:6]1[H:8])[H:7]"
N       -1.78718278      -0.10118535       0.15505840
C       -0.47601026      -0.18947984       0.25025514
N        0.54812649      -1.03464770       0.40438928
N        1.57072903      -0.25730547       0.00630281
N        1.27328455       0.89658560      -0.49601062
N       -0.01452783       0.94578157      -0.36902476
H       -2.36938791      -0.87182111       0.43214147
H       -1.27564520       1.15563340      -0.48956563
H        2.53061392      -0.54356110       0.10645389
9
Frame=4 idx=000923 GeodesicLength=0.15484957549158423 rxn_smarts="[N:1]([c:2]1[n:3][n:4]([H:9])[n:5][n:6]1)([H:7])[H:8]>>[N:1](=[c:2]1[n-:3][n+:4]([H:9])[n:5][n:6]1[H:8])[H:7]"
N       -1.78653188      -0.09817997       0.15785778
C       -0.47493096      -0.17498354       0.27212033
N        0.54301553      -1.03332707       0.40009250
N        1.56807280      -0.26196363       0.00265771
N        1.27490645       0.89201956      -0.50106571
N       -0.01197099       0.95473854      -0.36010350
H       -2.35384654      -0.88422862       0.42370315
H       -1.28559858       1.15628589      -0.50231931
H        2.52688417      -0.55036117       0.10705705
9
Frame=5 idx=000923 GeodesicLength=0.19369251236272728 rxn_smarts="[N:1]([c:2]1[n:3][n:4]([H:9])[n:5][n:6]1)([H:7])[H:8]>>[N:1](=[c:2]1[n-:3][n+:4]([H:9])[n:5][n:6]1[H:8])[H:7]"
N       -1.78586577      -0.09517219       0.16092276
C       -0.47396199      -0.16175695       0.29137303
N        0.53795990      -1.03167827       0.39660451
N        1.56541657      -0.26629907      -0.00033380
N        1.27643994       0.88781783      -0.50533021
N       -0.00944694       0.96342132      -0.35169222
H       -2.33815392      -0.89586900       0.41579339
H       -1.29552611       1.15682850      -0.51452465
H        2.52313833      -0.55729217       0.10718719
9
Frame=6 idx=000923 GeodesicLength=0.23270164109508232 rxn_smarts="[N:1]([c:2]1[n:3][n:4]([H:9])[n:5][n:6]1)([H:7])[H:8]>>[N:1](=[c:2]1[n-:3][n+:4]([H:9])[n:5][n:6]1[H:8])[H:7]"
N       -1.78518394      -0.09211824       0.16434430
C       -0.47305448      -0.14935335       0.30896268
N        0.53299564      -1.02968546       0.39399507
N        1.56275373      -0.27035431      -0.00273962
N        1.27788204       0.88383985      -0.50907697
N       -0.00690665       0.97188459      -0.34368007
H       -2.32231811      -0.90700203       0.40783705
H       -1.30552532       1.15723178      -0.52631603
H        2.51935710      -0.56444283       0.10667360
9
Frame=7 idx=000923 GeodesicLength=0.27152085673737547 rxn_smarts="[N:1]([c:2]1[n:3][n:4]([H:9])[n:5][n:6]1)([H:7])[H:8]>>[N:1](=[c:2]1[n-:3][n+:4]([H:9])[n:5][n:6]1[H:8])[H:7]"
N       -1.78444403      -0.08911905       0.16779947
C       -0.47222494      -0.13747649       0.32558147
N        0.52811769      -1.02722510       0.39245174
N        1.56001729      -0.27394872      -0.00429679
N        1.27924406       0.88050313      -0.51140708
N       -0.00438850       0.98039399      -0.33531149
H       -2.30636201      -0.91754178       0.40003645
H       -1.31535791       1.15675354      -0.53904674
H        2.51539835      -0.57233953       0.10419296
9
Frame=8 idx=000923 GeodesicLength=0.3102930902375696 rxn_smarts="[N:1]([c:2]1[n:3][n:4]([H:9])[n:5][n:6]1)([H:7])[H:8]>>[N:1](=[c:2]1[n-:3][n+:4]([H:9])[n:5][n:6]1[H:8])[H:7]"
N       -1.78365605      -0.08619372       0.17128577
C       -0.47135917      -0.12647183       0.34051020
N        0.52327119      -1.02504934       0.39019211
N        1.55729977      -0.27767203      -0.00614687
N        1.28051748       0.87686976      -0.51428570
N       -0.00182841       0.98842967      -0.32790049
H       -2.29034273      -0.92733461       0.39283533
H       -1.32540303       1.15679575      -0.55005205
H        2.51150095      -0.57937364       0.10356169
9
Frame=9 idx=000923 GeodesicLength=0.34917719907281436 rxn_smarts="[N:1]([c:2]1[n:3][n:4]([H:9])[n:5][n:6]1)([H:7])[H:8]>>[N:1](=[c:2]1[n-:3][n+:4]([H:9])[n:5][n:6]1[H:8])[H:7]"
N       -1.78285205      -0.08353412       0.17432015
C       -0.47051622      -0.11620462       0.35414686
N        0.51848730      -1.02306592       0.38752118
N        1.55462981      -0.28134958      -0.00797575
N        1.28180099       0.87341437      -0.51682582
N        0.00079156       0.99624946      -0.32077149
H       -2.27443777      -0.93636866       0.38669039
H       -1.33557015       1.15695240      -0.56059080
H        2.50766653      -0.58609334       0.10348528
9
Frame=10 idx=000923 GeodesicLength=0.3881572345731216 rxn_smarts="[N:1]([c:2]1[n:3][n:4]([H:9])[n:5][n:6]1)([H:7])[H:8]>>[N:1](=[c:2]1[n-:3][n+:4]([H:9])[n:5][n:6]1[H:8])[H:7]"
N       -1.78203942      -0.08102579       0.17716591
C       -0.46967129      -0.10651395       0.36681401
N        0.51377581      -1.02119524       0.38461306
N        1.55200702      -0.28499517      -0.00979351
N        1.28308462       0.87008175      -0.51912780
N        0.00347145       1.00391440      -0.31385333
H       -2.25863725      -0.94479404       0.38116864
H       -1.34588744       1.15711663      -0.57077744
H        2.50389650      -0.59258858       0.10379046
9
Frame=11 idx=000923 GeodesicLength=0.4271802820215713 rxn_smarts="[N:1]([c:2]1[n:3][n:4]([H:9])[n:5][n:6]1)([H:7])[H:8]>>[N:1](=[c:2]1[n-:3][n+:4]([H:9])[n:5][n:6]1[H:8])[H:7]"
N       -1.78119709      -0.07864186       0.17985908
C       -0.46881866      -0.09729685       0.37871697
N        0.50912509      -1.01938370       0.38155320
N        1.54941303      -0.28858310      -0.01156320
N        1.28436426       0.86689016      -0.52114852
N        0.00621334       1.01146672      -0.30702536
H       -2.24291642      -0.95267036       0.37613922
H       -1.35633283       1.15717690      -0.58079237
H        2.50014929      -0.59895791       0.10426097
9
Frame=12 idx=000923 GeodesicLength=0.4662473238667065 rxn_smarts="[N:1]([c:2]1[n:3][n:4]([H:9])[n:5][n:6]1)([H:7])[H:8]>>[N:1](=[c:2]1[n-:3][n+:4]([H:9])[n:5][n:6]1[H:8])[H:7]"
N       -1.78032559      -0.07634493       0.18247381
C       -0.46795724      -0.08844682       0.39004763
N        0.50454122      -1.01755822       0.37851120
N        1.54684373      -0.29209326      -0.01322581
N        1.28562874       0.86381208      -0.52292843
N        0.00901819       1.01894983      -0.30022064
H       -2.22724741      -0.96008534       0.37136711
H       -1.36691463       1.15706862      -0.59071415
H        2.49641299      -0.60530196       0.10468929
9
Frame=13 idx=000923 GeodesicLength=0.5053719748370891 rxn_smarts="[N:1]([c:2]1[n:3][n:4]([H:9])[n:5][n:6]1)([H:7])[H:8]>>[N:1](=[c:2]1[n-:3][n+:4]([H:9])[n:5][n:6]1[H:8])[H:7]"
N       -1.77943197      -0.07409477       0.18508544
C       -0.46708991      -0.07989577       0.40094649
N        0.50002349      -1.01570869       0.37554395
N        1.54429973      -0.29553918      -0.01480120
N        1.28687984       0.86086706      -0.52446770
N        0.01187645       1.02641630      -0.29337221
H       -2.21161372      -0.96708891       0.36673363
H       -1.37763284       1.15672212      -0.60065772
H        2.49268893      -0.61167816       0.10498932
9
Frame=14 idx=000923 GeodesicLength=0.5445138960575874 rxn_smarts="[N:1]([c:2]1[n:3][n:4]([H:9])[n:5][n:6]1)([H:7])[H:8]>>[N:1](=[c:2]1[n-:3][n+:4]([H:9])[n:5][n:6]1[H:8])[H:7]"
N       -1.77848711      -0.07190825       0.18764598
C       -0.46620029      -0.07161420       0.41145572
N        0.49555269      -1.01378648       0.37265637
N        1.54174295      -0.29886806      -0.01625228
N        1.28813346       0.85810306      -0.52560803
N        0.01482093       1.03381642      -0.28644033
H       -2.19602077      -0.97365973       0.36229223
H       -1.38845200       1.15604668      -0.61074246
H        2.48891013      -0.61812944       0.10499281
9
Frame=15 idx=000923 GeodesicLength=0.5836917654845813 rxn_smarts="[N:1]([c:2]1[n:3][n:4]([H:9])[n:5][n:6]1)([H:7])[H:8]>>[N:1](=[c:2]1[n-:3][n+:4]([H:9])[n:5][n:6]1[H:8])[H:7]"
N       -1.77752338      -0.06981087       0.19004394
C       -0.46530838      -0.06367578       0.42148857
N        0.49114897      -1.01192818       0.36957771
N        1.53923921      -0.30213919      -0.01766568
N        1.28943090       0.85554077      -0.52639548
N        0.01782768       1.04118987      -0.27945138
H       -2.18058138      -0.97975717       0.35831876
H       -1.39940571       1.15513597      -0.62091205
H        2.48517208      -0.62455542       0.10499562
9
Frame=16 idx=000923 GeodesicLength=0.6228884413580064 rxn_smarts="[N:1]([c:2]1[n:3][n:4]([H:9])[n:5][n:6]1)([H:7])[H:8]>>[N:1](=[c:2]1[n-:3][n+:4]([H:9])[n:5][n:6]1[H:8])[H:7]"
N       -1.77653445      -0.06779615       0.19228126
C       -0.46440597      -0.05606800       0.43107912
N        0.48681168      -1.01011670       0.36632015
N        1.53678439      -0.30533163      -0.01901183
N        1.29077892       0.85317395      -0.52682580
N        0.02091681       1.04852746      -0.27238739
H       -2.16533006      -0.98539704       0.35479258
H       -1.41048656       1.15396889      -0.63118830
H        2.48146524      -0.63096078       0.10494022
