16
Frame=0 idx=010304 GeodesicLength=0.0 rxn_smarts="[C:1]([N:2]1[C@:3]2([H:11])[C:4]([H:12])([H:13])[C@@:5]1([H:14])[C:6]([H:15])=[C:7]2[H:16])([H:8])([H:9])[H:10]>>[C:1]([N+:2]12[C@@:3]([H:11])([C-:4]1[H:12])[C:7]([H:16])=[C:6]([H:15])[C:5]2([H:13])[H:14])([H:8])([H:9])[H:10]"
C        1.79538883      -0.49214594      -0.08692031
N        0.73077115       0.49658081      -0.12269907
C       -0.24321759       0.51014618       0.97922739
C       -1.18123637       1.60870445       0.45939475
C       -0.32848700       0.20235570      -1.08769925
C       -1.10507549      -0.95330551      -0.52926244
C       -1.05638568      -0.77087652       0.78906060
H        1.44814607      -1.51762522       0.09405508
H        2.32530251      -0.46978780      -1.04143086
H        2.50421073      -0.21609712       0.69451283
H        0.16617873       0.70747727       1.97073713
H       -0.55792550       2.51868910       0.39978477
H       -1.16921346       1.10161040      -0.83864853
H       -0.07845334       0.26269804      -2.14556289
H       -1.68816406      -1.66089316      -1.09900674
H       -1.56183955      -1.32753063       1.56445758
16
Frame=1 idx=010304 GeodesicLength=0.08668958650588243 rxn_smarts="[C:1]([N:2]1[C@:3]2([H:11])[C:4]([H:12])([H:13])[C@@:5]1([H:14])[C:6]([H:15])=[C:7]2[H:16])([H:8])([H:9])[H:10]>>[C:1]([N+:2]12[C@@:3]([H:11])([C-:4]1[H:12])[C:7]([H:16])=[C:6]([H:15])[C:5]2([H:13])[H:14])([H:8])([H:9])[H:10]"
C        1.79940653      -0.47787772      -0.08809796
N        0.71885892       0.49167501      -0.11906373
C       -0.24692173       0.49578801       0.98960002
C       -1.14404640       1.61252791       0.44573235
C       -0.33873016       0.19777873      -1.08619941
C       -1.11601945      -0.95755361      -0.52572386
C       -1.07019940      -0.77499994       0.79201251
H        1.46450410      -1.50911836       0.08228781
H        2.33305700      -0.43745340      -1.03987451
H        2.50041622      -0.19468436       0.69777194
H        0.16628546       0.68502510       1.98094156
H       -0.51160487       2.51595160       0.40093679
H       -1.19411779       1.10395491      -0.85703327
H       -0.07764685       0.24210408      -2.14231500
H       -1.69579414      -1.66802768      -1.09544701
H       -1.58744745      -1.32509029       1.56447177
16
Frame=2 idx=010304 GeodesicLength=0.17336224372669723 rxn_smarts="[C:1]([N:2]1[C@:3]2([H:11])[C:4]([H:12])([H:13])[C@@:5]1([H:14])[C:6]([H:15])=[C:7]2[H:16])([H:8])([H:9])[H:10]>>[C:1]([N+:2]12[C@@:3]([H:11])([C-:4]1[H:12])[C:7]([H:16])=[C:6]([H:15])[C:5]2([H:13])[H:14])([H:8])([H:9])[H:10]"
C        1.80351730      -0.46387673      -0.08913826
N        0.70743887       0.48620807      -0.11548115
C       -0.25063122       0.48201691       0.99952751
C       -1.10728935       1.61480271       0.43138162
C       -0.34876796       0.19341578      -1.08484221
C       -1.12689851      -0.96151656      -0.52219568
C       -1.08359446      -0.77888002       0.79498786
H        1.48097181      -1.50064327       0.07033716
H        2.34061193      -0.40521292      -1.03797179
H        2.49638178      -0.17393996       0.70143959
H        0.16628895       0.66353785       1.99057851
H       -0.46680339       2.51213750       0.40211115
H       -1.21823418       1.10691766      -0.87477950
H       -0.07671252       0.22174263      -2.13886681
H       -1.70451559      -1.67402214      -1.09180425
H       -1.61176347      -1.32268752       1.56471624
16
Frame=3 idx=010304 GeodesicLength=0.26003041631777735 rxn_smarts="[C:1]([N:2]1[C@:3]2([H:11])[C:4]([H:12])([H:13])[C@@:5]1([H:14])[C:6]([H:15])=[C:7]2[H:16])([H:8])([H:9])[H:10]>>[C:1]([N+:2]12[C@@:3]([H:11])([C-:4]1[H:12])[C:7]([H:16])=[C:6]([H:15])[C:5]2([H:13])[H:14])([H:8])([H:9])[H:10]"
C        1.80772530      -0.45014000      -0.09004109
N        0.69651478       0.48019605      -0.11197873
C       -0.25434554       0.46883796       1.00899788
C       -1.07105953       1.61561514       0.41649479
C       -0.35857828       0.18922508      -1.08364514
C       -1.13775083      -0.96517766      -0.51868263
C       -1.09658656      -0.78251497       0.79797945
H        1.49754990      -1.49218739       0.05822799
H        2.34797800      -0.37309192      -1.03571209
H        2.49212675      -0.15385376       0.70549527
H        0.16622321       0.64294584       1.99965035
H       -0.42357266       2.50729541       0.40324718
H       -1.24149649       1.11055958      -0.89189134
H       -0.07565371       0.20156466      -2.13524378
H       -1.71427598      -1.67892523      -1.08808185
H       -1.63479836      -1.32034880       1.56518375
16
Frame=4 idx=010304 GeodesicLength=0.3466992143526786 rxn_smarts="[C:1]([N:2]1[C@:3]2([H:11])[C:4]([H:12])([H:13])[C@@:5]1([H:14])[C:6]([H:15])=[C:7]2[H:16])([H:8])([H:9])[H:10]>>[C:1]([N+:2]12[C@@:3]([H:11])([C-:4]1[H:12])[C:7]([H:16])=[C:6]([H:15])[C:5]2([H:13])[H:14])([H:8])([H:9])[H:10]"
C        1.81203164      -0.43665784      -0.09080693
N        0.68608222       0.47365599      -0.10857305
C       -0.25806405       0.45624374       1.01801116
C       -1.03543189       1.61505371       0.40120857
C       -0.36814451       0.18516946      -1.08261708
C       -1.14861208      -0.96852491      -0.51518804
C       -1.10919874      -0.78590684       0.80098371
H        1.51424393      -1.48373348       0.04598477
H        2.35515804      -0.34110347      -1.03309029
H        2.48767035      -0.13440775       0.70991532
H        0.16611523       0.62317097       2.00816908
H       -0.38192546       2.50147304       0.40427271
H       -1.26386312       1.11493106      -0.90838545
H       -0.07447210       0.18152176      -2.13146153
H       -1.72502283      -1.68278780      -1.08428844
H       -1.65656665      -1.31809764       1.56586548
16
Frame=5 idx=010304 GeodesicLength=0.43335826928233334 rxn_smarts="[C:1]([N:2]1[C@:3]2([H:11])[C:4]([H:12])([H:13])[C@@:5]1([H:14])[C:6]([H:15])=[C:7]2[H:16])([H:8])([H:9])[H:10]>>[C:1]([N+:2]12[C@@:3]([H:11])([C-:4]1[H:12])[C:7]([H:16])=[C:6]([H:15])[C:5]2([H:13])[H:14])([H:8])([H:9])[H:10]"
C        1.81644102      -0.42341369      -0.09144007
N        0.67613428       0.46660430      -0.10527485
C       -0.26178383       0.44421558       1.02657618
C       -1.00045999       1.61320124       0.38564783
C       -0.37745281       0.18121289      -1.08176172
C       -1.15950928      -0.97155346      -0.51171303
C       -1.12144950      -0.78906572       0.80399767
H        1.53107359      -1.47525942       0.03362202
H        2.36215292      -0.30924304      -1.03010339
H        2.48303218      -0.11557679       0.71467316
H        0.16598516       0.60413361       2.01615816
H       -0.34185305       2.49471214       0.40509886
H       -1.28530303       1.12007030      -0.92427563
H       -0.07317185       0.16156508      -2.12753061
H       -1.73671369      -1.68565059      -1.08042993
H       -1.67712213      -1.31595244       1.56675536
16
Frame=6 idx=010304 GeodesicLength=0.5200092130374562 rxn_smarts="[C:1]([N:2]1[C@:3]2([H:11])[C:4]([H:12])([H:13])[C@@:5]1([H:14])[C:6]([H:15])=[C:7]2[H:16])([H:8])([H:9])[H:10]>>[C:1]([N+:2]12[C@@:3]([H:11])([C-:4]1[H:12])[C:7]([H:16])=[C:6]([H:15])[C:5]2([H:13])[H:14])([H:8])([H:9])[H:10]"
C        1.82095496      -0.41038691      -0.09194353
N        0.66665913       0.45905779      -0.10208863
C       -0.26550351       0.43272957       1.03470981
C       -0.96617798       1.61013990       0.36991539
C       -0.38649405       0.17732671      -1.08107665
C       -1.17046636      -0.97426212      -0.50825799
C       -1.13336485      -0.79200109       0.80701983
H        1.54805332      -1.46674117       0.02116254
H        2.36895676      -0.27750776      -1.02675741
H        2.47823357      -0.09732591       0.71973825
H        0.16585120       0.58574699       2.02364021
H       -0.30331961       2.48705309       0.40565195
H       -1.30581010       1.12600699      -0.93959006
H       -0.07175801       0.14165436      -2.12345321
H       -1.74929393      -1.68756635      -1.07651207
H       -1.69652054      -1.31392410       1.56784156
16
Frame=7 idx=010304 GeodesicLength=0.6066516734629268 rxn_smarts="[C:1]([N:2]1[C@:3]2([H:11])[C:4]([H:12])([H:13])[C@@:5]1([H:14])[C:6]([H:15])=[C:7]2[H:16])([H:8])([H:9])[H:10]>>[C:1]([N+:2]12[C@@:3]([H:11])([C-:4]1[H:12])[C:7]([H:16])=[C:6]([H:15])[C:5]2([H:13])[H:14])([H:8])([H:9])[H:10]"
C        1.82557402      -0.39755205      -0.09232518
N        0.65764017       0.45103052      -0.09901487
C       -0.26921702       0.42175295       1.04243290
C       -0.93260308       1.60594694       0.35409588
C       -0.39526304       0.17348182      -1.08055641
C       -1.18150363      -0.97665414      -0.50482145
C       -1.14496855      -0.79472671       0.81005037
H        1.56520812      -1.45814996       0.00861331
H        2.37556194      -0.24586991      -1.02305476
H        2.47329180      -0.07962291       0.72508245
H        0.16572823       0.56792989       2.03064542
H       -0.26626480       2.47853690       0.40586018
H       -1.32538400       1.13275699      -0.95436433
H       -0.07023885       0.12174714      -2.11922739
H       -1.76271332      -1.68858383      -1.07254144
H       -1.71484798      -1.31202363       1.56912533
16
Frame=8 idx=010304 GeodesicLength=0.6932877750322658 rxn_smarts="[C:1]([N:2]1[C@:3]2([H:11])[C:4]([H:12])([H:13])[C@@:5]1([H:14])[C:6]([H:15])=[C:7]2[H:16])([H:8])([H:9])[H:10]>>[C:1]([N+:2]12[C@@:3]([H:11])([C-:4]1[H:12])[C:7]([H:16])=[C:6]([H:15])[C:5]2([H:13])[H:14])([H:8])([H:9])[H:10]"
C        1.83029637      -0.38488392      -0.09258924
N        0.64905907       0.44253498      -0.09604901
C       -0.27292311       0.41125368       1.04976941
C       -0.89974657       1.60069263       0.33825610
C       -0.40375844       0.16965662      -1.08019173
C       -1.19263717      -0.97873350      -0.50140150
C       -1.15628694      -0.79725592       0.81308939
H        1.58255684      -1.44945856      -0.00400885
H        2.38195278      -0.21431715      -1.01900670
H        2.46822317      -0.06242930       0.73067673
H        0.16562318       0.55060708       2.03720206
H       -0.23061322       2.46920433       0.40566835
H       -1.34404076       1.14033017      -0.96864066
H       -0.06862208       0.10180730      -2.11484599
H       -1.77691640      -1.68874690      -1.06852041
H       -1.73216669      -1.31026154       1.57059205
16
Frame=9 idx=010304 GeodesicLength=0.7799596863055305 rxn_smarts="[C:1]([N:2]1[C@:3]2([H:11])[C:4]([H:12])([H:13])[C@@:5]1([H:14])[C:6]([H:15])=[C:7]2[H:16])([H:8])([H:9])[H:10]>>[C:1]([N+:2]12[C@@:3]([H:11])([C-:4]1[H:12])[C:7]([H:16])=[C:6]([H:15])[C:5]2([H:13])[H:14])([H:8])([H:9])[H:10]"
C        1.83511948      -0.37234382      -0.09276526
N        0.64086873       0.43357756      -0.09316640
C       -0.27660531       0.40116056       1.05674576
C       -0.86759727       1.59445888       0.32240464
C       -0.41200014       0.16584361      -1.07994944
C       -1.20385717      -0.98053391      -0.49799396
C       -1.16733539      -0.79962819       0.81614116
H        1.60015079      -1.44062973      -0.01671673
H        2.38811105      -0.18281517      -1.01464944
H        2.46303911      -0.04570039       0.73646468
H        0.16553846       0.53373574       2.04334306
H       -0.19618340       2.45911516       0.40513611
H       -1.36185295       1.14865194      -0.98250404
H       -0.06692362       0.08181793      -2.11028262
H       -1.79177808      -1.68813660      -1.06445446
H       -1.74869430      -1.30857357       1.57224694
16
Frame=10 idx=010304 GeodesicLength=0.8666232336882207 rxn_smarts="[C:1]([N:2]1[C@:3]2([H:11])[C:4]([H:12])([H:13])[C@@:5]1([H:14])[C:6]([H:15])=[C:7]2[H:16])([H:8])([H:9])[H:10]>>[C:1]([N+:2]12[C@@:3]([H:11])([C-:4]1[H:12])[C:7]([H:16])=[C:6]([H:15])[C:5]2([H:13])[H:14])([H:8])([H:9])[H:10]"
C        1.84003863      -0.35991435      -0.09283577
N        0.63307820       0.42417053      -0.09037810
C       -0.28027235       0.39147447       1.06338454
C       -0.83616011       1.58728507       0.30663586
C       -0.41996648       0.16200284      -1.07984421
C       -1.21519834      -0.98203787      -0.49459916
C       -1.17814518      -0.80183565       0.81920386
H        1.61799052      -1.43163836      -0.02948830
H        2.39401894      -0.15134132      -1.00995361
H        2.45775098      -0.02941175       0.74245123
H        0.16547820       0.51722806       2.04909769
H       -0.16299392       2.44828651       0.40410638
H       -1.37877044       1.15779666      -0.99596651
H       -0.06514421       0.06171834      -2.10554779
H       -1.80735362      -1.68673167      -1.06034669
H       -1.76435083      -1.30705152       1.57408061
16
Frame=11 idx=010304 GeodesicLength=0.9532890242014447 rxn_smarts="[C:1]([N:2]1[C@:3]2([H:11])[C:4]([H:12])([H:13])[C@@:5]1([H:14])[C:6]([H:15])=[C:7]2[H:16])([H:8])([H:9])[H:10]>>[C:1]([N+:2]12[C@@:3]([H:11])([C-:4]1[H:12])[C:7]([H:16])=[C:6]([H:15])[C:5]2([H:13])[H:14])([H:8])([H:9])[H:10]"
C        1.84505053      -0.34756906      -0.09280414
N        0.62567178       0.41432354      -0.08767624
C       -0.28392160       0.38215967       1.06970789
C       -0.80542164       1.57921536       0.29098188
C       -0.42765481       0.15811245      -1.07986778
C       -1.22666525      -0.98325776      -0.49121492
C       -1.18873178      -0.80389500       0.82227771
H        1.63609738      -1.42245599      -0.04231062
H        2.39966374      -0.11987097      -1.00492906
H        2.45237282      -0.01352492       0.74861509
H        0.16543914       0.50102740       2.05449229
H       -0.13097820       2.43674681       0.40254401
H       -1.39480920       1.16776628      -1.00906902
H       -0.06328782       0.04147077      -2.10063303
H       -1.82363588      -1.68454538      -1.05620093
H       -1.77918924      -1.30570319       1.57608685
16
Frame=12 idx=010304 GeodesicLength=1.0399547039306622 rxn_smarts="[C:1]([N:2]1[C@:3]2([H:11])[C:4]([H:12])([H:13])[C@@:5]1([H:14])[C:6]([H:15])=[C:7]2[H:16])([H:8])([H:9])[H:10]>>[C:1]([N+:2]12[C@@:3]([H:11])([C-:4]1[H:12])[C:7]([H:16])=[C:6]([H:15])[C:5]2([H:13])[H:14])([H:8])([H:9])[H:10]"
C        1.85014738      -0.33528135      -0.09267177
N        0.61863160       0.40404343      -0.08505203
C       -0.28755359       0.37318696       1.07573654
C       -0.77536792       1.57029169       0.27546507
C       -0.43506533       0.15414956      -1.08001281
C       -1.23826321      -0.98420495      -0.48783922
C       -1.19911263      -0.80582282       0.82536442
H        1.65449207      -1.41305230      -0.05517581
H        2.40502387      -0.08838280      -0.99957818
H        2.44690839       0.00198955       0.75493842
H        0.16541340       0.48509138       2.05955221
H       -0.10005852       2.42453277       0.40041912
H       -1.40997842       1.17855595      -1.02185429
H       -0.06136120       0.02103927      -2.09552889
H       -1.84061880      -1.68158168      -1.05202164
H       -1.79323709      -1.30455467       1.57825886
16
Frame=13 idx=010304 GeodesicLength=1.1266241368161418 rxn_smarts="[C:1]([N:2]1[C@:3]2([H:11])[C:4]([H:12])([H:13])[C@@:5]1([H:14])[C:6]([H:15])=[C:7]2[H:16])([H:8])([H:9])[H:10]>>[C:1]([N+:2]12[C@@:3]([H:11])([C-:4]1[H:12])[C:7]([H:16])=[C:6]([H:15])[C:5]2([H:13])[H:14])([H:8])([H:9])[H:10]"
C        1.85532212      -0.32302557      -0.09244408
N        0.61194280       0.39333840      -0.08249910
C       -0.29116724       0.36452976       1.08149099
C       -0.74597965       1.56054945       0.26010176
C       -0.44219676       0.15009488      -1.08027251
C       -1.24999281      -0.98489090      -0.48447116
C       -1.20929937      -0.80763563       0.82846310
H        1.67319444      -1.40339593      -0.06807937
H        2.41007683      -0.05685723      -0.99390778
H        2.44136345       0.01716227       0.76140116
H        0.16539468       0.46938156       2.06430047
H       -0.07016166       2.41167904       0.39771495
H       -1.42428757       1.19015778      -1.03436513
H       -0.05937069       0.00038687      -2.09022651
H       -1.85828689      -1.67784117      -1.04780933
H       -1.80655166      -1.30363358       1.58060255
16
Frame=14 idx=010304 GeodesicLength=1.2133120860300652 rxn_smarts="[C:1]([N:2]1[C@:3]2([H:11])[C:4]([H:12])([H:13])[C@@:5]1([H:14])[C:6]([H:15])=[C:7]2[H:16])([H:8])([H:9])[H:10]>>[C:1]([N+:2]12[C@@:3]([H:11])([C-:4]1[H:12])[C:7]([H:16])=[C:6]([H:15])[C:5]2([H:13])[H:14])([H:8])([H:9])[H:10]"
C        1.86056163      -0.31078077      -0.09212235
N        0.60558838       0.38221496      -0.08000682
C       -0.29476115       0.35616060       1.08698895
C       -0.71724078       1.55002163       0.24489186
C       -0.44904936       0.14593181      -1.08063864
C       -1.26185738      -0.98532425      -0.48110990
C       -1.21930943      -0.80934464       0.83157482
H        1.69221579      -1.39345908      -0.08101325
H        2.41479928      -0.02527848      -0.98792182
H        2.43573900       0.03201526       0.76798957
H        0.16537315       0.45387278       2.06875870
H       -0.04120807       2.39822152       0.39442422
H       -1.43775252       1.20256346      -1.04665342
H       -0.05732313      -0.02051452      -2.08471337
H       -1.87663077      -1.67332308      -1.04356894
H       -1.81914465      -1.30297720       1.58312040
16
Frame=15 idx=010304 GeodesicLength=1.3000204944146718 rxn_smarts="[C:1]([N:2]1[C@:3]2([H:11])[C:4]([H:12])([H:13])[C@@:5]1([H:14])[C:6]([H:15])=[C:7]2[H:16])([H:8])([H:9])[H:10]>>[C:1]([N+:2]12[C@@:3]([H:11])([C-:4]1[H:12])[C:7]([H:16])=[C:6]([H:15])[C:5]2([H:13])[H:14])([H:8])([H:9])[H:10]"
C        1.86585290      -0.29852752      -0.09171027
N        0.59955453       0.37068050      -0.07756858
C       -0.29833472       0.34805852       1.09224465
C       -0.68913602       1.53873535       0.22983160
C       -0.45562166       0.14164227      -1.08110642
C       -1.27385641      -0.98551374      -0.47775501
C       -1.22915349      -0.81096082       0.83469833
H        1.71156708      -1.38321209      -0.09397438
H        2.41916737       0.00637009      -0.98162109
H        2.43003333       0.04656575       0.77469077
H        0.16533768       0.43854960       2.07294602
H       -0.01312428       2.38419634       0.39054709
H       -1.45037823       1.21576111      -1.05876633
H       -0.05522536      -0.04169682      -2.07897942
H       -1.89564592      -1.66801393      -1.03930098
H       -1.83103678      -1.30263459       1.58582404
16
Frame=16 idx=010304 GeodesicLength=1.386752485469311 rxn_smarts="[C:1]([N:2]1[C@:3]2([H:11])[C:4]([H:12])([H:13])[C@@:5]1([H:14])[C:6]([H:15])=[C:7]2[H:16])([H:8])([H:9])[H:10]>>[C:1]([N+:2]12[C@@:3]([H:11])([C-:4]1[H:12])[C:7]([H:16])=[C:6]([H:15])[C:5]2([H:13])[H:14])([H:8])([H:9])[H:10]"
C        1.87118122      -0.28624912      -0.09120834
N        0.59382977       0.35874441      -0.07517696
C       -0.30188789       0.34020641       1.09727171
C       -0.66165330       1.52671500       0.21491232
C       -0.46191095       0.13721080      -1.08167130
C       -1.28598825      -0.98546499      -0.47440644
C       -1.23884160      -0.81249218       0.83783205
H        1.73125229      -1.37262782      -0.10695211
H        2.42315738       0.03808669      -0.97501196
H        2.42424580       0.06083057       0.78149252
H        0.16527668       0.42340118       2.07688023
H        0.01414849       2.36964118       0.38608766
H       -1.46216907       1.22974234      -1.07074926
H       -0.05308249      -0.06318746      -2.07301378
H       -1.91532968      -1.66189478      -1.03500734
H       -1.84222840      -1.30266224       1.58872099
