16
Frame=0 idx=001489 GeodesicLength=0.0 rxn_smarts="[C:1]([C@@:2]1([H:10])[C@@:3]2([H:11])[C:4]([H:12])([H:13])[C:5]([H:14])([H:15])[C@@:6]12[H:16])([H:7])([H:8])[H:9]>>[C:1]([C:2]([C@@:6]1([H:16])[C@:3]2([H:11])[C:4]([H:12])([H:13])[C@@:5]21[H:15])([H:10])[H:14])([H:7])([H:8])[H:9]"
C        2.03785120      -0.16989361       0.41960515
C        0.58510304      -0.66738639       0.34403872
C       -1.31791181      -0.75337719      -0.17324901
C       -1.85076540       0.57448659       0.12965847
C       -0.50776228       1.15404857      -0.29829902
C       -0.16667505      -0.19812942      -0.90861506
H        2.44962254      -0.34506363       1.41601841
H        2.09076014       0.89898477       0.20604150
H        2.66047098      -0.70673319      -0.30178291
H        0.58640214      -1.74389858       0.54660646
H       -1.60589555      -1.76354385       0.07107502
H       -2.50026601       0.80317942      -0.73025229
H       -2.34944699       0.82351809       1.06554496
H        0.10180140       0.38118374       0.90376276
H       -0.38510619       2.12466131      -0.77410929
H        0.17181785      -0.41203661      -1.91604389
16
Frame=1 idx=001489 GeodesicLength=0.08043082579129424 rxn_smarts="[C:1]([C@@:2]1([H:10])[C@@:3]2([H:11])[C:4]([H:12])([H:13])[C:5]([H:14])([H:15])[C@@:6]12[H:16])([H:7])([H:8])[H:9]>>[C:1]([C:2]([C@@:6]1([H:16])[C@:3]2([H:11])[C:4]([H:12])([H:13])[C@@:5]21[H:15])([H:10])[H:14])([H:7])([H:8])[H:9]"
C        2.04549731      -0.17688624       0.42189848
C        0.59183613      -0.66751525       0.34372824
C       -1.31184210      -0.74718351      -0.16352928
C       -1.86767560       0.57749539       0.11672288
C       -0.52046952       1.14891424      -0.30098268
C       -0.16134953      -0.19858757      -0.90550893
H        2.46203702      -0.37157895       1.41270998
H        2.09889152       0.89622545       0.23147236
H        2.66591344      -0.69880247      -0.31199459
H        0.59960787      -1.74710048       0.53101543
H       -1.60904800      -1.75243051       0.08995635
H       -2.51772819       0.79464959      -0.74468604
H       -2.36185114       0.82963883       1.05407136
H        0.11368803       0.40674609       0.90802603
H       -0.39188153       2.12266761      -0.76692107
H        0.16437430      -0.41625222      -1.91597852
16
Frame=2 idx=001489 GeodesicLength=0.16078514483252107 rxn_smarts="[C:1]([C@@:2]1([H:10])[C@@:3]2([H:11])[C:4]([H:12])([H:13])[C:5]([H:14])([H:15])[C@@:6]12[H:16])([H:7])([H:8])[H:9]>>[C:1]([C:2]([C@@:6]1([H:16])[C@:3]2([H:11])[C:4]([H:12])([H:13])[C@@:5]21[H:15])([H:10])[H:14])([H:7])([H:8])[H:9]"
C        2.05322189      -0.18405276       0.42413959
C        0.59866762      -0.66773753       0.34334420
C       -1.30574910      -0.74073613      -0.15344006
C       -1.88468814       0.58013449       0.10353201
C       -0.53322980       1.14375317      -0.30324445
C       -0.15611047      -0.19879395      -0.90224270
H        2.47426974      -0.39803094       1.40906777
H        2.10748299       0.89273634       0.25667787
H        2.67142025      -0.69097935      -0.32180763
H        0.61261921      -1.75015078       0.51529504
H       -1.61195196      -1.74104156       0.10887701
H       -2.53512389       0.78560673      -0.75938079
H       -2.37469185       0.83564433       1.04209428
H        0.12619481       0.43325795       0.91174362
H       -0.39894746       2.12069301      -0.75901893
H        0.15661614      -0.42030301      -1.91563683
16
Frame=3 idx=001489 GeodesicLength=0.24108098189992694 rxn_smarts="[C:1]([C@@:2]1([H:10])[C@@:3]2([H:11])[C:4]([H:12])([H:13])[C:5]([H:14])([H:15])[C@@:6]12[H:16])([H:7])([H:8])[H:9]>>[C:1]([C:2]([C@@:6]1([H:16])[C@:3]2([H:11])[C:4]([H:12])([H:13])[C@@:5]21[H:15])([H:10])[H:14])([H:7])([H:8])[H:9]"
C        2.06101473      -0.19140320       0.42634677
C        0.60559049      -0.66805540       0.34287618
C       -1.29963222      -0.73402147      -0.14298550
C       -1.90177456       0.58238578       0.09010451
C       -0.54603815       1.13858375      -0.30507072
C       -0.15096055      -0.19873048      -0.89881737
H        2.48629269      -0.42443741       1.40512945
H        2.11654808       0.88851934       0.28165909
H        2.67699332      -0.68329076      -0.33120164
H        0.62541859      -1.75305548       0.49943162
H       -1.61460736      -1.72937945       0.12782024
H       -2.55243830       0.77604405      -0.77430164
H       -2.38795496       0.84149572       1.02962779
H        0.13935891       0.46078871       0.91483591
H       -0.40636159       2.11872941      -0.75044739
H        0.14855088      -0.42417312      -1.91500729
16
Frame=4 idx=001489 GeodesicLength=0.32133571074203726 rxn_smarts="[C:1]([C@@:2]1([H:10])[C@@:3]2([H:11])[C:4]([H:12])([H:13])[C:5]([H:14])([H:15])[C@@:6]12[H:16])([H:7])([H:8])[H:9]>>[C:1]([C:2]([C@@:6]1([H:16])[C@:3]2([H:11])[C:4]([H:12])([H:13])[C@@:5]21[H:15])([H:10])[H:14])([H:7])([H:8])[H:9]"
C        2.06886319      -0.19894768       0.42853884
C        0.61259571      -0.66847122       0.34231563
C       -1.29349165      -0.72702615      -0.13217012
C       -1.91890358       0.58423047       0.07646048
C       -0.55888827       1.13342462      -0.30644699
C       -0.14590203      -0.19837916      -0.89523370
H        2.49807903      -0.45083046       1.40092808
H        2.12609329       0.88357952       0.30643604
H        2.68263153      -0.67575405      -0.34016023
H        0.63798829      -1.75582022       0.48340970
H       -1.61701436      -1.71744786       0.14677398
H       -2.56965234       0.76595501      -0.78941145
H       -2.40161955       0.84715295       1.01668717
H        0.15321885       0.48940978       0.91721794
H       -0.41418560       2.11676872      -0.74126708
H        0.14018750      -0.42784426      -1.91407829
16
Frame=5 idx=001489 GeodesicLength=0.4015676589525082 rxn_smarts="[C:1]([C@@:2]1([H:10])[C@@:3]2([H:11])[C:4]([H:12])([H:13])[C:5]([H:14])([H:15])[C@@:6]12[H:16])([H:7])([H:8])[H:9]>>[C:1]([C:2]([C@@:6]1([H:16])[C@:3]2([H:11])[C:4]([H:12])([H:13])[C@@:5]21[H:15])([H:10])[H:14])([H:7])([H:8])[H:9]"
C        2.07675199      -0.20669685       0.43074068
C        0.61967292      -0.66899165       0.34165088
C       -1.28732762      -0.71974115      -0.12100591
C       -1.93603964       0.58565016       0.06262792
C       -0.57177100       1.12829346      -0.30736095
C       -0.14093628      -0.19772271      -0.89149617
H        2.50959271      -0.47722410       1.39650610
H        2.13611993       0.87791045       0.33102707
H        2.68833846      -0.66838844      -0.34865254
H        0.65031099      -1.75845451       0.46720584
H       -1.61917339      -1.70525259       0.16571353
H       -2.58675513       0.75533786      -0.80465551
H       -2.41565788       0.85257539       1.00330938
H        0.16781347       0.51919622       0.91878725
H       -0.42247876       2.11480445      -0.73155322
H        0.13153924      -0.43129598      -1.91284437
16
Frame=6 idx=001489 GeodesicLength=0.4817921082837233 rxn_smarts="[C:1]([C@@:2]1([H:10])[C@@:3]2([H:11])[C:4]([H:12])([H:13])[C:5]([H:14])([H:15])[C@@:6]12[H:16])([H:7])([H:8])[H:9]>>[C:1]([C:2]([C@@:6]1([H:16])[C@:3]2([H:11])[C:4]([H:12])([H:13])[C@@:5]21[H:15])([H:10])[H:14])([H:7])([H:8])[H:9]"
C        2.08466308      -0.21465864       0.43297910
C        0.62681053      -0.66962422       0.34087080
C       -1.28114043      -0.71215628      -0.10950180
C       -1.95314421       0.58662958       0.04864031
C       -0.58467672       1.12320867      -0.30779996
C       -0.13606472      -0.19674588      -0.88760634
H        2.52079736      -0.50366341       1.39190167
H        2.14661743       0.87152264       0.35548090
H        2.69411829      -0.66119514      -0.35666077
H        0.66237268      -1.76097049       0.45078892
H       -1.62108772      -1.69280069       0.18462917
H       -2.60372859       0.74419328      -0.81998030
H       -2.43003380       0.85772013       0.98952522
H        0.18318084       0.55022299       0.91942979
H       -0.43130156       2.11282676      -0.72140075
H        0.12261754      -0.43450930      -1.91129596
16
Frame=7 idx=001489 GeodesicLength=0.5619945012545392 rxn_smarts="[C:1]([C@@:2]1([H:10])[C@@:3]2([H:11])[C:4]([H:12])([H:13])[C:5]([H:14])([H:15])[C@@:6]12[H:16])([H:7])([H:8])[H:9]>>[C:1]([C:2]([C@@:6]1([H:16])[C@:3]2([H:11])[C:4]([H:12])([H:13])[C@@:5]21[H:15])([H:10])[H:14])([H:7])([H:8])[H:9]"
C        2.09257424      -0.22284119       0.43528612
C        0.63399287      -0.67037660       0.33996567
C       -1.27493174      -0.70426872      -0.09768133
C       -1.97017614       0.58715084       0.03454063
C       -0.59759299       1.11818793      -0.30775220
C       -0.13128699      -0.19543350      -0.88357080
H        2.53164917      -0.53016269       1.38716149
H        2.15757215       0.86440692       0.37983523
H        2.69997264      -0.65418331      -0.36414418
H        0.67415631      -1.76337672       0.43413036
H       -1.62275834      -1.68010508       0.20349006
H       -2.62056587       0.73253063      -0.83531077
H       -2.44470124       0.86254242       0.97539165
H        0.19936468       0.58255745       0.91900688
H       -0.44071208       2.11082976      -0.71091600
H        0.11344333      -0.43745814      -1.90943282
16
Frame=8 idx=001489 GeodesicLength=0.6421761468605718 rxn_smarts="[C:1]([C@@:2]1([H:10])[C@@:3]2([H:11])[C:4]([H:12])([H:13])[C:5]([H:14])([H:15])[C@@:6]12[H:16])([H:7])([H:8])[H:9]>>[C:1]([C:2]([C@@:6]1([H:16])[C@:3]2([H:11])[C:4]([H:12])([H:13])[C@@:5]21[H:15])([H:10])[H:14])([H:7])([H:8])[H:9]"
C        2.10045936      -0.23125058       0.43769896
C        0.64120455      -0.67126197       0.33892182
C       -1.26870265      -0.69607465      -0.08556008
C       -1.98709114       0.58720265       0.02037802
C       -0.61050548       1.11324714      -0.30720930
C       -0.12660306      -0.19377387      -0.87939715
H        2.54210139      -0.55676301       1.38232723
H        2.16895276       0.85656768       0.40416808
H        2.70590754      -0.64733882      -0.37107245
H        0.68565104      -1.76568712       0.41718672
H       -1.62418821      -1.66717825       0.22227735
H       -2.63725564       0.72035766      -0.85056998
H       -2.45960468       0.86700058       0.96096548
H        0.21640772       0.61627083       0.91736298
H       -0.45076461       2.10880517      -0.70022396
H        0.10403110      -0.44012343      -1.90725371
16
Frame=9 idx=001489 GeodesicLength=0.7220535282561287 rxn_smarts="[C:1]([C@@:2]1([H:10])[C@@:3]2([H:11])[C:4]([H:12])([H:13])[C:5]([H:14])([H:15])[C@@:6]12[H:16])([H:7])([H:8])[H:9]>>[C:1]([C:2]([C@@:6]1([H:16])[C@:3]2([H:11])[C:4]([H:12])([H:13])[C@@:5]21[H:15])([H:10])[H:14])([H:7])([H:8])[H:9]"
C        2.10826843      -0.23986109       0.44027288
C        0.64842228      -0.67228768       0.33768703
C       -1.26245216      -0.68759238      -0.07319169
C       -2.00380888       0.58681124       0.00623547
C       -0.62338944       1.10839009      -0.30622200
C       -0.12201254      -0.19178016      -0.87512798
H        2.55204385      -0.58340600       1.37749432
H        2.18066406       0.84804252       0.42857467
H        2.71193968      -0.64065026      -0.37733999
H        0.69685957      -1.76790960       0.39989637
H       -1.62539380      -1.65403088       0.24093390
H       -2.65381743       0.70772073      -0.86559283
H       -2.47457390       0.87108858       0.94641063
H        0.23433015       0.65125784       0.91424035
H       -0.46148402       2.10670864      -0.68947032
H        0.09440417      -0.44250158      -1.90480081
16
Frame=10 idx=001489 GeodesicLength=0.8019172560194204 rxn_smarts="[C:1]([C@@:2]1([H:10])[C@@:3]2([H:11])[C:4]([H:12])([H:13])[C:5]([H:14])([H:15])[C@@:6]12[H:16])([H:7])([H:8])[H:9]>>[C:1]([C:2]([C@@:6]1([H:16])[C@:3]2([H:11])[C:4]([H:12])([H:13])[C@@:5]21[H:15])([H:10])[H:14])([H:7])([H:8])[H:9]"
C        2.11598688      -0.24870206       0.44304110
C        0.65563486      -0.67347841       0.33627279
C       -1.25617975      -0.67881440      -0.06057406
C       -2.02031510       0.58593600      -0.00785390
C       -0.63622977       1.10363625      -0.30473947
C       -0.11751768      -0.18943101      -0.87075176
H        2.56147663      -0.61022182       1.37266323
H        2.19269155       0.83879783       0.45315370
H        2.71806518      -0.63407081      -0.38296160
H        0.70776744      -1.77006250       0.38222023
H       -1.62636334      -1.64068868       0.25946512
H       -2.67023092       0.69461717      -0.88035026
H       -2.48962926       0.87473610       0.93172904
H        0.25319644       0.68776041       0.90951031
H       -0.47292535       2.10455207      -0.67877380
H        0.08457220      -0.44456614      -1.90205067
16
Frame=11 idx=001489 GeodesicLength=0.8817608569532178 rxn_smarts="[C:1]([C@@:2]1([H:10])[C@@:3]2([H:11])[C:4]([H:12])([H:13])[C:5]([H:14])([H:15])[C@@:6]12[H:16])([H:7])([H:8])[H:9]>>[C:1]([C:2]([C@@:6]1([H:16])[C@:3]2([H:11])[C:4]([H:12])([H:13])[C@@:5]21[H:15])([H:10])[H:14])([H:7])([H:8])[H:9]"
C        2.12357531      -0.25776896       0.44605786
C        0.66282250      -0.67485528       0.33465388
C       -1.24988436      -0.66975618      -0.04774217
C       -2.03655693       0.58457773      -0.02182028
C       -0.64900218       1.09899117      -0.30276923
C       -0.11311942      -0.18672929      -0.86629081
H        2.57033436      -0.63724449       1.36788871
H        2.20495749       0.82883230       0.47801606
H        2.72429228      -0.62755074      -0.38787705
H        0.71837689      -1.77216049       0.36409754
H       -1.62709967      -1.62717460       0.27783659
H       -2.68650542       0.68108105      -0.89472314
H       -2.50467459       0.87790826       0.91703025
H        0.27304259       0.72583720       0.90295017
H       -0.48511399       2.10231675      -0.66828560
H        0.07455513      -0.44630443      -1.89902278
16
Frame=12 idx=001489 GeodesicLength=0.9615780782440799 rxn_smarts="[C:1]([C@@:2]1([H:10])[C@@:3]2([H:11])[C:4]([H:12])([H:13])[C:5]([H:14])([H:15])[C@@:6]12[H:16])([H:7])([H:8])[H:9]>>[C:1]([C:2]([C@@:6]1([H:16])[C@:3]2([H:11])[C:4]([H:12])([H:13])[C@@:5]21[H:15])([H:10])[H:14])([H:7])([H:8])[H:9]"
C        2.13099145      -0.26705805       0.44938270
C        0.66996549      -0.67644424       0.33280189
C       -1.24356284      -0.66043383      -0.03472625
C       -2.05248158       0.58274205      -0.03558546
C       -0.66167787       1.09445835      -0.30032247
C       -0.10881885      -0.18368387      -0.86176997
H        2.57855666      -0.66452868       1.36321162
H        2.21735651       0.81814967       0.50332444
H        2.73063146      -0.62100660      -0.39202935
H        0.72869489      -1.77421902       0.34545184
H       -1.62760497      -1.61351433       0.29602735
H       -2.70265052       0.66715023      -0.90858975
H       -2.51960642       0.88058035       0.90242549
H        0.29390677       0.76554323       0.89430479
H       -0.49806554       2.09997926      -0.65816912
H        0.06436536      -0.44771455      -1.89573774
16
Frame=13 idx=001489 GeodesicLength=1.0413843645188743 rxn_smarts="[C:1]([C@@:2]1([H:10])[C@@:3]2([H:11])[C:4]([H:12])([H:13])[C:5]([H:14])([H:15])[C@@:6]12[H:16])([H:7])([H:8])[H:9]>>[C:1]([C:2]([C@@:6]1([H:16])[C@:3]2([H:11])[C:4]([H:12])([H:13])[C@@:5]21[H:15])([H:10])[H:14])([H:7])([H:8])[H:9]"
C        2.13818467      -0.27655753       0.45308139
C        0.67704439      -0.67828259       0.33067862
C       -1.23721262      -0.65087057      -0.02155951
C       -2.06803526       0.58043894      -0.04906606
C       -0.67422058       1.09003253      -0.29741368
C       -0.10461955      -0.18031377      -0.85722271
H        2.58607414      -0.69211646       1.35867826
H        2.22976214       0.80673793       0.52926095
H        2.73709204      -0.61432923      -0.39534740
H        0.73874028      -1.77626151       0.32619886
H       -1.62788019      -1.59973646       0.31400830
H       -2.71868585       0.65287339      -0.92180964
H       -2.53430832       0.88273521       0.88804524
H        0.31582931       0.80693768       0.88328815
H       -0.51177513       2.09751205      -0.64859010
H        0.05401052      -0.44879960      -1.89223067
16
Frame=14 idx=001489 GeodesicLength=1.121128145960296 rxn_smarts="[C:1]([C@@:2]1([H:10])[C@@:3]2([H:11])[C:4]([H:12])([H:13])[C:5]([H:14])([H:15])[C@@:6]12[H:16])([H:7])([H:8])[H:9]>>[C:1]([C:2]([C@@:6]1([H:16])[C@:3]2([H:11])[C:4]([H:12])([H:13])[C@@:5]21[H:15])([H:10])[H:14])([H:7])([H:8])[H:9]"
C        2.14510031      -0.28625310       0.45722805
C        0.68403734      -0.68040577       0.32824674
C       -1.23083052      -0.64109498      -0.00828045
C       -2.08316339       0.57768840      -0.06216736
C       -0.68658830       1.08570782      -0.29405995
C       -0.10052526      -0.17664723      -0.85268553
H        2.59282505      -0.72007380       1.35431393
H        2.24200324       0.79459450       0.55606712
H        2.74368502      -0.60736793      -0.39775490
H        0.74853798      -1.77830350       0.30625013
H       -1.62792860      -1.58587391       0.33176622
H       -2.73463178       0.63831168      -0.93423644
H       -2.54864923       0.88436829       0.87403089
H        0.33886177       0.85004202       0.86954339
H       -0.52623095       2.09487775      -0.63972381
H        0.04349733      -0.44957025      -1.88853803
16
Frame=15 idx=001489 GeodesicLength=1.2007887437016342 rxn_smarts="[C:1]([C@@:2]1([H:10])[C@@:3]2([H:11])[C:4]([H:12])([H:13])[C:5]([H:14])([H:15])[C@@:6]12[H:16])([H:7])([H:8])[H:9]>>[C:1]([C:2]([C@@:6]1([H:16])[C@:3]2([H:11])[C:4]([H:12])([H:13])[C@@:5]21[H:15])([H:10])[H:14])([H:7])([H:8])[H:9]"
C        2.15167393      -0.29612315       0.46190655
C        0.69092464      -0.68286713       0.32545340
C       -1.22441101      -0.63114130       0.00507536
C       -2.09780865       0.57451873      -0.07478489
C       -0.69872700       1.08147015      -0.29028309
C       -0.09654236      -0.17272638      -0.84820436
H        2.59874324      -0.74846097       1.35014243
H        2.25386358       0.78170096       0.58402861
H        2.75042332      -0.59992542      -0.39915812
H        0.75812970      -1.78037267       0.28549628
H       -1.62775212      -1.57195958       0.34928532
H       -2.75051655       0.62353727      -0.94570340
H       -2.56248083       0.88549200       0.86054058
H        0.36306056       0.89487758       0.85266369
H       -0.54139919       2.09202912      -0.63174931
H        0.03281874      -0.45004922      -1.88470905
16
Frame=16 idx=001489 GeodesicLength=1.2803208566336304 rxn_smarts="[C:1]([C@@:2]1([H:10])[C@@:3]2([H:11])[C:4]([H:12])([H:13])[C:5]([H:14])([H:15])[C@@:6]12[H:16])([H:7])([H:8])[H:9]>>[C:1]([C:2]([C@@:6]1([H:16])[C@:3]2([H:11])[C:4]([H:12])([H:13])[C@@:5]21[H:15])([H:10])[H:14])([H:7])([H:8])[H:9]"
C        2.15783431      -0.30613749       0.46721168
C        0.69768735      -0.68572695       0.32224073
C       -1.21794556      -0.62104656       0.01847763
C       -2.11191174       0.57096985      -0.08680770
C       -0.71057049       1.07730003      -0.28610612
C       -0.09267986      -0.16860944      -0.84383133
H        2.60377560      -0.77736403       1.34615813
H        2.26506203       0.76802982       0.61350360
H        2.75731707      -0.59173277      -0.39945337
H        0.76757231      -1.78249641       0.26381497
H       -1.62735207      -1.55802410       0.36656789
H       -2.76636915       0.60863564      -0.95603662
H       -2.57564336       0.88613812       0.84773975
H        0.38849460       0.94143371       0.83216964
H       -0.55722623       2.08890789      -0.62484951
H        0.02195519      -0.45027731      -1.88079936
