14
Frame=0 idx=004138 GeodesicLength=0.0 rxn_smarts="[C:1]([C:2](=[O:3])[C:4]([C:5]([O:6][H:14])([H:12])[H:13])([H:10])[H:11])([H:7])([H:8])[H:9]>>[C:1]([C:2]([O:3][H:14])=[C:4]([H:10])[H:11])([H:7])([H:8])[H:9].[C:5](=[O:6])([H:12])[H:13]"
C        1.89390763       0.00916942       0.05102974
C        0.52803714       0.29621663      -0.47722968
O        0.18807212       1.54748872      -0.51987803
C       -0.40768066      -0.68010960      -0.76244657
C       -1.61011417      -0.15607361       0.77158185
O       -1.89857626       1.06123594       0.59074527
H        1.99230199       0.43118208       1.05321707
H        2.10721977      -1.05748273       0.07216857
H        2.62865609       0.50974180      -0.58211852
H       -1.19070763      -0.44550224      -1.47063631
H       -0.11294543      -1.71990135      -0.69689019
H       -0.97743664      -0.44840400       1.62415949
H       -2.33642358      -0.92834548       0.48825860
H       -0.80431036       1.58078441      -0.14196133
14
Frame=1 idx=004138 GeodesicLength=0.0809689756555663 rxn_smarts="[C:1]([C:2](=[O:3])[C:4]([C:5]([O:6][H:14])([H:12])[H:13])([H:10])[H:11])([H:7])([H:8])[H:9]>>[C:1]([C:2]([O:3][H:14])=[C:4]([H:10])[H:11])([H:7])([H:8])[H:9].[C:5](=[O:6])([H:12])[H:13]"
C        1.91300874       0.00745692       0.03634951
C        0.53657920       0.29485359      -0.46411971
O        0.19494855       1.54493238      -0.49904389
C       -0.39997541      -0.68542768      -0.74406331
C       -1.64008843      -0.15134667       0.76752108
O       -1.92640636       1.06621577       0.56895337
H        2.01811639       0.39592925       1.05137636
H        2.13967392      -1.05661796       0.01998885
H        2.63542296       0.53599732      -0.58799895
H       -1.16797096      -0.45918250      -1.47187950
H       -0.10244414      -1.72428886      -0.67287993
H       -1.01294044      -0.42688966       1.62967320
H       -2.37128304      -0.92303206       0.49610870
H       -0.81664100       1.58140016      -0.12998578
14
Frame=2 idx=004138 GeodesicLength=0.16138416223942503 rxn_smarts="[C:1]([C:2](=[O:3])[C:4]([C:5]([O:6][H:14])([H:12])[H:13])([H:10])[H:11])([H:7])([H:8])[H:9]>>[C:1]([C:2]([O:3][H:14])=[C:4]([H:10])[H:11])([H:7])([H:8])[H:9].[C:5](=[O:6])([H:12])[H:13]"
C        1.93206455       0.00588632       0.02139708
C        0.54541187       0.29354103      -0.45055429
O        0.20198129       1.54234979      -0.47706558
C       -0.39207212      -0.69068700      -0.72499547
C       -1.67015300      -0.14681880       0.76287720
O       -1.95383607       1.07084828       0.54642842
H        2.04506442       0.35991122       1.04813030
H        2.17085867      -1.05435227      -0.03317971
H        2.64198286       0.56190893      -0.59313179
H       -1.14455825      -0.47328319      -1.47217382
H       -0.09152714      -1.72851242      -0.64793661
H       -1.04886507      -0.40541711       1.63443843
H       -2.40689373      -0.91728506       0.50392560
H       -0.82945830       1.58191029      -0.11815976
14
Frame=3 idx=004138 GeodesicLength=0.2412937937734769 rxn_smarts="[C:1]([C:2](=[O:3])[C:4]([C:5]([O:6][H:14])([H:12])[H:13])([H:10])[H:11])([H:7])([H:8])[H:9]>>[C:1]([C:2]([O:3][H:14])=[C:4]([H:10])[H:11])([H:7])([H:8])[H:9].[C:5](=[O:6])([H:12])[H:13]"
C        1.95107119       0.00447728       0.00614050
C        0.55454675       0.29227074      -0.43647443
O        0.20918393       1.53972090      -0.45381443
C       -0.38395407      -0.69588834      -0.70520535
C       -1.70030675      -0.14251028       0.75761279
O       -1.98082158       1.07511902       0.52315758
H        2.07317326       0.32315970       1.04337338
H        2.20066350      -1.05064260      -0.08732611
H        2.64835722       0.58744555      -0.59756097
H       -1.12042172      -0.48782403      -1.47148506
H       -0.08017918      -1.73256075      -0.62198544
H       -1.08524576      -0.38403202       1.63842388
H       -2.44329533      -0.91104062       0.51166924
H       -0.84277147       1.58230544      -0.10652558
14
Frame=4 idx=004138 GeodesicLength=0.3207550390114977 rxn_smarts="[C:1]([C:2](=[O:3])[C:4]([C:5]([O:6][H:14])([H:12])[H:13])([H:10])[H:11])([H:7])([H:8])[H:9]>>[C:1]([C:2]([O:3][H:14])=[C:4]([H:10])[H:11])([H:7])([H:8])[H:9].[C:5](=[O:6])([H:12])[H:13]"
C        1.97003876       0.00323944      -0.00945981
C        0.56399696       0.29103501      -0.42180414
O        0.21657609       1.53702253      -0.42913813
C       -0.37560004      -0.70103553      -0.68463832
C       -1.73056923      -0.13843958       0.75167777
O       -2.00733708       1.07901243       0.49910543
H        2.10247992       0.28567339       1.03700708
H        2.22900644      -1.04545174      -0.14247060
H        2.65456432       0.61261560      -0.60135806
H       -1.09551266      -0.50283269      -1.46975422
H       -0.06837868      -1.73642388      -0.59493012
H       -1.12214496      -0.36276438       1.64159776
H       -2.48054162      -0.90423076       0.51929230
H       -0.85657822       1.58258016      -0.09512693
14
Frame=5 idx=004138 GeodesicLength=0.39974534171445475 rxn_smarts="[C:1]([C:2](=[O:3])[C:4]([C:5]([O:6][H:14])([H:12])[H:13])([H:10])[H:11])([H:7])([H:8])[H:9]>>[C:1]([C:2]([O:3][H:14])=[C:4]([H:10])[H:11])([H:7])([H:8])[H:9].[C:5](=[O:6])([H:12])[H:13]"
C        1.98889833       0.00219380      -0.02540127
C        0.57377978       0.28982418      -0.40657567
O        0.22416350       1.53422457      -0.40297507
C       -0.36700504      -0.70613134      -0.66330410
C       -1.76085999      -0.13462804       0.74505494
O       -2.03327435       1.08251124       0.47429798
H        2.13282794       0.24746886       1.02896022
H        2.25573649      -1.03874526      -0.19856448
H        2.66061815       0.63741856      -0.60446236
H       -1.06983559      -0.51832764      -1.46694775
H       -0.05611829      -1.74009369      -0.56676161
H       -1.15946613      -0.34165695       1.64391341
H       -2.51861050      -0.89678303       0.52681592
H       -0.87085430       1.58272473      -0.08405016
14
Frame=6 idx=004138 GeodesicLength=0.4783292246193077 rxn_smarts="[C:1]([C:2](=[O:3])[C:4]([C:5]([O:6][H:14])([H:12])[H:13])([H:10])[H:11])([H:7])([H:8])[H:9]>>[C:1]([C:2]([O:3][H:14])=[C:4]([H:10])[H:11])([H:7])([H:8])[H:9].[C:5](=[O:6])([H:12])[H:13]"
C        2.00764577       0.00135732      -0.04170970
C        0.58390771       0.28862800      -0.39072311
O        0.23196035       1.53129024      -0.37515515
C       -0.35815382      -0.71118256      -0.64115140
C       -1.79119348      -0.13110290       0.73768471
O       -2.05859806       1.08559825       0.44870067
H        2.16426809       0.20857411       1.01907283
H        2.28075588      -1.03047564      -0.25560199
H        2.66653195       0.66184101      -0.60690851
H       -1.04335778      -0.53434077      -1.46299165
H       -0.04337137      -1.74355810      -0.53739300
H       -1.19726122      -0.32075482       1.64532661
H       -2.55754926      -0.88860892       0.53418854
H       -0.88558476       1.58273478      -0.07333886
14
Frame=7 idx=004138 GeodesicLength=0.5564699465437559 rxn_smarts="[C:1]([C:2](=[O:3])[C:4]([C:5]([O:6][H:14])([H:12])[H:13])([H:10])[H:11])([H:7])([H:8])[H:9]>>[C:1]([C:2]([O:3][H:14])=[C:4]([H:10])[H:11])([H:7])([H:8])[H:9].[C:5](=[O:6])([H:12])[H:13]"
C        2.02619226       0.00075466      -0.05836456
C        0.59439336       0.28742517      -0.37431870
O        0.23996394       1.52816707      -0.34563844
C       -0.34904492      -0.71619856      -0.61820871
C       -1.82146836      -0.12789453       0.72954778
O       -2.08317427       1.08825653       0.42236173
H        2.19663676       0.16906652       1.00724455
H        2.30387896      -1.02058136      -0.31343686
H        2.67231833       0.68584953      -0.60862160
H       -1.01613927      -0.55087967      -1.45784181
H       -0.03012411      -1.74681321      -0.50685729
H       -1.23539718      -0.30012708       1.64577585
H       -2.59732225      -0.87962288       0.54141628
H       -0.90071323       1.58259781      -0.06305821
14
Frame=8 idx=004138 GeodesicLength=0.6341852642768989 rxn_smarts="[C:1]([C:2](=[O:3])[C:4]([C:5]([O:6][H:14])([H:12])[H:13])([H:10])[H:11])([H:7])([H:8])[H:9]>>[C:1]([C:2]([O:3][H:14])=[C:4]([H:10])[H:11])([H:7])([H:8])[H:9].[C:5](=[O:6])([H:12])[H:13]"
C        2.04447533       0.00038861      -0.07534942
C        0.60524480       0.28620929      -0.35742295
O        0.24816947       1.52480388      -0.31435038
C       -0.33967663      -0.72119086      -0.59448910
C       -1.85162275      -0.12503327       0.72061194
O       -2.10692409       1.09046629       0.39528319
H        2.22980027       0.12898264       0.99335303
H        2.32499634      -1.00902097      -0.37198704
H        2.67799645       0.70944727      -0.60951669
H       -0.98822391      -0.56796685      -1.45144286
H       -0.01634742      -1.74985444      -0.47516257
H       -1.27378251      -0.27980795       1.64520620
H       -2.63791871      -0.86973023       0.54853325
H       -0.91618665       1.58230660      -0.05326660
14
Frame=9 idx=004138 GeodesicLength=0.7115898382677727 rxn_smarts="[C:1]([C:2](=[O:3])[C:4]([C:5]([O:6][H:14])([H:12])[H:13])([H:10])[H:11])([H:7])([H:8])[H:9]>>[C:1]([C:2]([O:3][H:14])=[C:4]([H:10])[H:11])([H:7])([H:8])[H:9].[C:5](=[O:6])([H:12])[H:13]"
C        2.06265268       0.00024080      -0.09281899
C        0.61644072       0.28493976      -0.33973054
O        0.25658977       1.52108268      -0.28081604
C       -0.33003851      -0.72621126      -0.56977165
C       -1.88190358      -0.12254537       0.71071227
O       -2.12993014       1.09222445       0.36727579
H        2.26420587       0.08846143       0.97711280
H        2.34425520      -0.99563800      -0.43138044
H        2.68352370       0.73250805      -0.60994374
H       -0.95955433      -0.58564617      -1.44365589
H       -0.00197883      -1.75268971      -0.44199659
H       -1.31288181      -0.25986030       1.64358681
H       -2.67944177      -0.85873768       0.55524478
H       -0.93193896       1.58187134      -0.04381858
14
Frame=10 idx=004138 GeodesicLength=0.7885487830149663 rxn_smarts="[C:1]([C:2](=[O:3])[C:4]([C:5]([O:6][H:14])([H:12])[H:13])([H:10])[H:11])([H:7])([H:8])[H:9]>>[C:1]([C:2]([O:3][H:14])=[C:4]([H:10])[H:11])([H:7])([H:8])[H:9].[C:5](=[O:6])([H:12])[H:13]"
C        2.08041729       0.00038218      -0.11060307
C        0.62799498       0.28363976      -0.32171414
O        0.26518923       1.51696794      -0.24537490
C       -0.32014519      -0.73124940      -0.54432164
C       -1.91191484      -0.12046818       0.69994548
O       -2.15188823       1.09350181       0.33857728
H        2.29902677       0.04754820       0.95864576
H        2.36127043      -0.98052073      -0.49121007
H        2.68894671       0.75511846      -0.60949614
H       -0.93029113      -0.60395332      -1.43454959
H        0.01296508      -1.75530190      -0.40770199
H       -1.35202408      -0.24034218       1.64082501
H       -2.72168469      -0.84660175       0.56185471
H       -0.94786233       1.58127911      -0.03487672
14
Frame=11 idx=004138 GeodesicLength=0.8650392537775977 rxn_smarts="[C:1]([C:2](=[O:3])[C:4]([C:5]([O:6][H:14])([H:12])[H:13])([H:10])[H:11])([H:7])([H:8])[H:9]>>[C:1]([C:2]([O:3][H:14])=[C:4]([H:10])[H:11])([H:7])([H:8])[H:9].[C:5](=[O:6])([H:12])[H:13]"
C        2.09766833       0.00084144      -0.12865412
C        0.63989181       0.28228609      -0.30354460
O        0.27395604       1.51236865      -0.20807399
C       -0.31001459      -0.73633304      -0.51822548
C       -1.94154717      -0.11884161       0.68830404
O       -2.17265686       1.09428454       0.30927085
H        2.33395773       0.00641082       0.93791214
H        2.37595290      -0.96361522      -0.55120284
H        2.69426033       0.77721451      -0.60812114
H       -0.90055616      -0.62292606      -1.42413489
H        0.02848930      -1.75769681      -0.37238601
H       -1.39102365      -0.22135177       1.63686216
H       -2.76453476      -0.83317279       0.56840202
H       -0.96384326       1.58053127      -0.02640816
14
Frame=12 idx=004138 GeodesicLength=0.9410710261177948 rxn_smarts="[C:1]([C:2](=[O:3])[C:4]([C:5]([O:6][H:14])([H:12])[H:13])([H:10])[H:11])([H:7])([H:8])[H:9]>>[C:1]([C:2]([O:3][H:14])=[C:4]([H:10])[H:11])([H:7])([H:8])[H:9].[C:5](=[O:6])([H:12])[H:13]"
C        2.11434890       0.00163622      -0.14694335
C        0.65209842       0.28088530      -0.28537556
O        0.28286565       1.50718759      -0.16894495
C       -0.29965350      -0.74149066      -0.49153759
C       -1.97073477      -0.11769596       0.67577011
O       -2.19214812       1.09456046       0.27940043
H        2.36877207      -0.03483621       0.91485173
H        2.38826712      -0.94489301      -0.61115715
H        2.69946507       0.79876595      -0.60577130
H       -0.87044845      -0.64262392      -1.41240103
H        0.04462866      -1.75987275      -0.33609921
H       -1.42975200      -0.20294958       1.63165361
H       -2.80792610      -0.81830844       0.57489680
H       -0.97978295       1.57963500      -0.01834253
14
Frame=13 idx=004138 GeodesicLength=1.0167325492731965 rxn_smarts="[C:1]([C:2](=[O:3])[C:4]([C:5]([O:6][H:14])([H:12])[H:13])([H:10])[H:11])([H:7])([H:8])[H:9]>>[C:1]([C:2]([O:3][H:14])=[C:4]([H:10])[H:11])([H:7])([H:8])[H:9].[C:5](=[O:6])([H:12])[H:13]"
C        2.13052381       0.00278843      -0.16557229
C        0.66456485       0.27939289      -0.26709178
O        0.29192168       1.50128239      -0.12776189
C       -0.28908148      -0.74678015      -0.46415710
C       -1.99959750      -0.11706687       0.66223447
O       -2.21034729       1.09435137       0.24891553
H        2.40366620      -0.07585953       0.88933598
H        2.39821821      -0.92437522      -0.67096405
H        2.70457542       0.81967665      -0.60274943
H       -0.84000377      -0.66309264      -1.39926283
H        0.06141169      -1.76184212      -0.29871164
H       -1.46842827      -0.18527126       1.62514897
H       -2.85183937      -0.80180776       0.58108155
H       -0.99558418       1.57860382      -0.01044549
14
Frame=14 idx=004138 GeodesicLength=1.0919541894344427 rxn_smarts="[C:1]([C:2](=[O:3])[C:4]([C:5]([O:6][H:14])([H:12])[H:13])([H:10])[H:11])([H:7])([H:8])[H:9]>>[C:1]([C:2]([O:3][H:14])=[C:4]([H:10])[H:11])([H:7])([H:8])[H:9].[C:5](=[O:6])([H:12])[H:13]"
C        2.14597808       0.00433428      -0.18434816
C        0.67724711       0.27785613      -0.24916813
O        0.30107948       1.49459350      -0.08499502
C       -0.27831627      -0.75221231      -0.43635158
C       -2.02785104      -0.11698315       0.64780512
O       -2.22705660       1.09363136       0.21803487
H        2.43789986      -0.11661592       0.86152251
H        2.40573021      -0.90207197      -0.73020274
H        2.70960358       0.83996222      -0.59871120
H       -0.80943633      -0.68439812      -1.38484252
H        0.07884084      -1.76359883      -0.26054894
H       -1.50649350      -0.16836275       1.61731775
H       -2.89605810      -0.78357876       0.58721478
H       -1.01116732       1.57744430      -0.00272673
14
Frame=15 idx=004138 GeodesicLength=1.166742074463546 rxn_smarts="[C:1]([C:2](=[O:3])[C:4]([C:5]([O:6][H:14])([H:12])[H:13])([H:10])[H:11])([H:7])([H:8])[H:9]>>[C:1]([C:2]([O:3][H:14])=[C:4]([H:10])[H:11])([H:7])([H:8])[H:9].[C:5](=[O:6])([H:12])[H:13]"
C        2.16065089       0.00629399      -0.20319696
C        0.69006441       0.27628173      -0.23181787
O        0.31031333       1.48703649      -0.04089797
C       -0.26739418      -0.75781365      -0.40825336
C       -2.05542383      -0.11747755       0.63251538
O       -2.24221421       1.09239516       0.18687993
H        2.47116322      -0.15689886       0.83153888
H        2.41086069      -0.87803845      -0.78855417
H        2.71458880       0.85954859      -0.59364700
H       -0.77891616      -0.70655949      -1.36921264
H        0.09691463      -1.76514059      -0.22178839
H       -1.54374755      -0.15231470       1.60814729
H       -2.94036660      -0.76348256       0.59334454
H       -1.02649343       1.57616988       0.00494233
14
Frame=16 idx=004138 GeodesicLength=1.2411546643752236 rxn_smarts="[C:1]([C:2](=[O:3])[C:4]([C:5]([O:6][H:14])([H:12])[H:13])([H:10])[H:11])([H:7])([H:8])[H:9]>>[C:1]([C:2]([O:3][H:14])=[C:4]([H:10])[H:11])([H:7])([H:8])[H:9].[C:5](=[O:6])([H:12])[H:13]"
C        2.17454767       0.00866887      -0.22208609
C        0.70292415       0.27469107      -0.21513591
O        0.31960300       1.47853933       0.00432615
C       -0.25634370      -0.76361703      -0.37991354
C       -2.08231796      -0.11856926       0.61638103
O       -2.25581799       1.09064263       0.15550240
H        2.50331866      -0.19659122       0.79945983
H        2.41369678      -0.85230285      -0.84587599
H        2.71958723       0.87839150      -0.58755501
H       -0.74855561      -0.72961304      -1.35239652
H        0.11565224      -1.76645921      -0.18249530
H       -1.58011301      -0.13718008       1.59764699
H       -2.98461261      -0.74140004       0.59945197
H       -1.04156884       1.57479932       0.01268999
