18
Frame=0 idx=008097 GeodesicLength=0.0 rxn_smarts="[C:1]([C:2]([N:3]([C:4]([H:13])([H:14])[H:15])[C:5](=[O:6])[C:7]([H:16])([H:17])[H:18])([H:11])[H:12])([H:8])([H:9])[H:10]>>[C:1](=[C:2]([H:11])[H:12])([H:8])[H:9].[N:3](\[C:4]([H:13])([H:14])[H:15])=[C:5](/[O:6][H:10])[C:7]([H:16])([H:17])[H:18]"
C       -2.24419317       0.02325540      -1.03394952
C       -1.80315933      -0.16800018       0.27630281
N        0.09379673      -0.35637400       0.42054193
C        0.62308850      -0.11690993       1.73872240
C        0.78927031      -0.13420545      -0.64436450
O        0.24568209      -0.27967639      -1.81021731
C        2.22077526       0.31778855      -0.62653453
H       -2.49654907       1.02654828      -1.35673853
H       -2.77571059      -0.78689067      -1.52080610
H       -0.84486939      -0.20716712      -1.64072063
H       -1.99587920      -1.11455567       0.76907642
H       -1.79405501       0.67452157       0.96237061
H       -0.14219607      -0.38115578       2.47181740
H        1.49886948      -0.73781600       1.94292185
H        0.89651256       0.93041373       1.90907348
H        2.60833302       0.32544310      -1.64216607
H        2.83143917      -0.33998349      -0.00705589
H        2.28884467       1.32476401      -0.20827383
18
Frame=1 idx=008097 GeodesicLength=0.09171658261305347 rxn_smarts="[C:1]([C:2]([N:3]([C:4]([H:13])([H:14])[H:15])[C:5](=[O:6])[C:7]([H:16])([H:17])[H:18])([H:11])[H:12])([H:8])([H:9])[H:10]>>[C:1](=[C:2]([H:11])[H:12])([H:8])[H:9].[N:3](\[C:4]([H:13])([H:14])[H:15])=[C:5](/[O:6][H:10])[C:7]([H:16])([H:17])[H:18]"
C       -2.25879116       0.02854840      -1.03435501
C       -1.81260070      -0.19306367       0.27092468
N        0.09656213      -0.33447943       0.42535908
C        0.62671035      -0.08577781       1.74189177
C        0.79795108      -0.13043186      -0.64077301
O        0.25156205      -0.27494992      -1.80446034
C        2.23924187       0.29059433      -0.62647073
H       -2.54587278       1.03339879      -1.32204050
H       -2.77293508      -0.77751813      -1.54635430
H       -0.85591738      -0.14006155      -1.64765752
H       -1.98706333      -1.16093279       0.72826715
H       -1.83904741       0.62728357       0.98300943
H       -0.12357308      -0.37685971       2.48035673
H        1.52201080      -0.67900792       1.94271506
H        0.86910577       0.96905582       1.91226008
H        2.62406237       0.28733188      -1.64315905
H        2.83740418      -0.37985572      -0.00841977
H        2.33119032       1.29672574      -0.21109376
18
Frame=2 idx=008097 GeodesicLength=0.18306297212800787 rxn_smarts="[C:1]([C:2]([N:3]([C:4]([H:13])([H:14])[H:15])[C:5](=[O:6])[C:7]([H:16])([H:17])[H:18])([H:11])[H:12])([H:8])([H:9])[H:10]>>[C:1](=[C:2]([H:11])[H:12])([H:8])[H:9].[N:3](\[C:4]([H:13])([H:14])[H:15])=[C:5](/[O:6][H:10])[C:7]([H:16])([H:17])[H:18]"
C       -2.27285211       0.03359329      -1.03466063
C       -1.82111694      -0.21896705       0.26472151
N        0.09939276      -0.31276350       0.43013082
C        0.63016647      -0.05315015       1.74469294
C        0.80681357      -0.12841879      -0.63715966
O        0.25541370      -0.26322521      -1.79874490
C        2.25729528       0.26111614      -0.62601576
H       -2.59892992       1.03672935      -1.28517859
H       -2.76766110      -0.76774656      -1.57283711
H       -0.86656045      -0.06776610      -1.65137113
H       -1.97561128      -1.20718197       0.68467271
H       -1.88246551       0.57633983       1.00266054
H       -0.10404892      -0.36984750       2.48878970
H        1.54430036      -0.61761581       1.94259947
H        0.84101681       1.00852651       1.91390288
H        2.63940282       0.24611621      -1.64361082
H        2.84185553      -0.42173136      -0.00854651
H        2.37358894       1.26599265      -0.21404545
18
Frame=3 idx=008097 GeodesicLength=0.2739086861237606 rxn_smarts="[C:1]([C:2]([N:3]([C:4]([H:13])([H:14])[H:15])[C:5](=[O:6])[C:7]([H:16])([H:17])[H:18])([H:11])[H:12])([H:8])([H:9])[H:10]>>[C:1](=[C:2]([H:11])[H:12])([H:8])[H:9].[N:3](\[C:4]([H:13])([H:14])[H:15])=[C:5](/[O:6][H:10])[C:7]([H:16])([H:17])[H:18]"
C       -2.28615678       0.03877815      -1.03483855
C       -1.82865859      -0.24513747       0.25776598
N        0.10231598      -0.29185496       0.43480488
C        0.63351510      -0.01971235       1.74704225
C        0.81557767      -0.12780279      -0.63355328
O        0.25793709      -0.24510911      -1.79320449
C        2.27452184       0.23018338      -0.62510222
H       -2.65323403       1.03678365      -1.24718858
H       -2.76108765      -0.75655405      -1.59956723
H       -0.87740122       0.00531296      -1.65145712
H       -1.96220191      -1.25220690       0.63879931
H       -1.92347363       0.52263950       1.02093658
H       -0.08347391      -0.36105426       2.49706041
H        1.56596783      -0.55409586       1.94205045
H        0.81201610       1.04810332       1.91422629
H        2.65395012       0.20297235      -1.64343355
H        2.84468132      -0.46458120      -0.00747176
H        2.41520469       1.23333565      -0.21686938
18
Frame=4 idx=008097 GeodesicLength=0.3642155466265732 rxn_smarts="[C:1]([C:2]([N:3]([C:4]([H:13])([H:14])[H:15])[C:5](=[O:6])[C:7]([H:16])([H:17])[H:18])([H:11])[H:12])([H:8])([H:9])[H:10]>>[C:1](=[C:2]([H:11])[H:12])([H:8])[H:9].[N:3](\[C:4]([H:13])([H:14])[H:15])=[C:5](/[O:6][H:10])[C:7]([H:16])([H:17])[H:18]"
C       -2.29869744       0.04447902      -1.03476737
C       -1.83523888      -0.27124221       0.25012264
N        0.10535362      -0.27221102       0.43938663
C        0.63680417       0.01403495       1.74890707
C        0.82407704      -0.12831033      -0.62994757
O        0.25991977      -0.22238676      -1.78774643
C        2.29067042       0.19848949      -0.62370425
H       -2.70696657       1.03414223      -1.20867266
H       -2.75415351      -0.74318486      -1.62605790
H       -0.88881860       0.07667632      -1.64815232
H       -1.94743294      -1.29537868       0.59095971
H       -1.96164654       0.46679293       1.03769660
H       -0.06167837      -0.35119614       2.50515549
H        1.58715801      -0.48873759       1.94065008
H        0.78189809       1.08721567       1.91344678
H        2.66744541       0.15872506      -1.64259401
H        2.84594226      -0.50741759      -0.00514041
H        2.45536407       1.19950949      -0.21954207
18
Frame=5 idx=008097 GeodesicLength=0.4540230824655661 rxn_smarts="[C:1]([C:2]([N:3]([C:4]([H:13])([H:14])[H:15])[C:5](=[O:6])[C:7]([H:16])([H:17])[H:18])([H:11])[H:12])([H:8])([H:9])[H:10]>>[C:1](=[C:2]([H:11])[H:12])([H:8])[H:9].[N:3](\[C:4]([H:13])([H:14])[H:15])=[C:5](/[O:6][H:10])[C:7]([H:16])([H:17])[H:18]"
C       -2.31057483       0.05084762      -1.03432034
C       -1.84090205      -0.29715061       0.24182157
N        0.10851774      -0.25403728       0.44389883
C        0.64005860       0.04785722       1.75025887
C        0.83224517      -0.12973384      -0.62632765
O        0.26189241      -0.19643350      -1.78220406
C        2.30568498       0.16635032      -0.62180293
H       -2.75954282       1.02907754      -1.16986042
H       -2.74716949      -0.72743349      -1.65206103
H       -0.90096354       0.14584033      -1.64178218
H       -1.93168761      -1.33641125       0.54132954
H       -1.99685548       0.40914996       1.05285918
H       -0.03852276      -0.34060707       2.51306219
H        1.60787294      -0.42165688       1.93807797
H        0.75056580       1.12552519       1.91169334
H        2.67980217       0.11364964      -1.64106500
H        2.84573050      -0.54974453      -0.00146413
H        2.49384827       1.16491064      -0.22211374
18
Frame=6 idx=008097 GeodesicLength=0.5434039334763132 rxn_smarts="[C:1]([C:2]([N:3]([C:4]([H:13])([H:14])[H:15])[C:5](=[O:6])[C:7]([H:16])([H:17])[H:18])([H:11])[H:12])([H:8])([H:9])[H:10]>>[C:1](=[C:2]([H:11])[H:12])([H:8])[H:9].[N:3](\[C:4]([H:13])([H:14])[H:15])=[C:5](/[O:6][H:10])[C:7]([H:16])([H:17])[H:18]"
C       -2.32186785       0.05803460      -1.03339194
C       -1.84571988      -0.32279789       0.23287175
N        0.11182445      -0.23752560       0.44840748
C        0.64330532       0.08157500       1.75110529
C        0.84007763      -0.13211693      -0.62265974
O        0.26419366      -0.16866827      -1.77638507
C        2.31954598       0.13402286      -0.61940525
H       -2.81050595       1.02195752      -1.13086327
H       -2.74038068      -0.70907726      -1.67745528
H       -0.91381407       0.21268277      -1.63264795
H       -1.91531189      -1.37515761       0.48997088
H       -2.02909905       0.34991825       1.06641309
H       -0.01386065      -0.32949613       2.52082201
H        1.62809805      -0.35291577       1.93407252
H        0.71791561       1.16273943       1.90907245
H        2.69095184       0.06790834      -1.63885323
H        2.84426890      -0.59103032       0.00369007
H        2.53037857       1.12994702      -0.22476381
18
Frame=7 idx=008097 GeodesicLength=0.632431097673529 rxn_smarts="[C:1]([C:2]([N:3]([C:4]([H:13])([H:14])[H:15])[C:5](=[O:6])[C:7]([H:16])([H:17])[H:18])([H:11])[H:12])([H:8])([H:9])[H:10]>>[C:1](=[C:2]([H:11])[H:12])([H:8])[H:9].[N:3](\[C:4]([H:13])([H:14])[H:15])=[C:5](/[O:6][H:10])[C:7]([H:16])([H:17])[H:18]"
C       -2.33264579       0.06607449      -1.03192256
C       -1.84977610      -0.34809486       0.22327464
N        0.11527887      -0.22276913       0.45297590
C        0.64656420       0.11504164       1.75145178
C        0.84758883      -0.13546017      -0.61891467
O        0.26701289      -0.14007887      -1.77012010
C        2.33229966       0.10167051      -0.61651763
H       -2.85978829       1.01290721      -1.09182521
H       -2.73383601      -0.68812469      -1.70212580
H       -0.92730621       0.27738529      -1.62093392
H       -1.89863639      -1.41144695       0.43702625
H       -2.05840674       0.28941304       1.07826350
H        0.01245619      -0.31804192       2.52844598
H        1.64775612      -0.28258688       1.92836764
H        0.68389363       1.19857159       1.90573858
H        2.70088973       0.02159045      -1.63596514
H        2.84177563      -0.63095327       0.01038957
H        2.56487976       1.09490253      -0.22760881
18
Frame=8 idx=008097 GeodesicLength=0.7211732882965457 rxn_smarts="[C:1]([C:2]([N:3]([C:4]([H:13])([H:14])[H:15])[C:5](=[O:6])[C:7]([H:16])([H:17])[H:18])([H:11])[H:12])([H:8])([H:9])[H:10]>>[C:1](=[C:2]([H:11])[H:12])([H:8])[H:9].[N:3](\[C:4]([H:13])([H:14])[H:15])=[C:5](/[O:6][H:10])[C:7]([H:16])([H:17])[H:18]"
C       -2.34295433       0.07503313      -1.02986544
C       -1.85317905      -0.37291204       0.21304982
N        0.11888587      -0.20987061       0.45766745
C        0.64986284       0.14805346       1.75131609
C        0.85481551      -0.13989394      -0.61505438
O        0.27047353      -0.11183203      -1.76331040
C        2.34399226       0.06953391      -0.61314326
H       -2.90718985       1.00220202      -1.05294273
H       -2.72767710      -0.66454406      -1.72592782
H       -0.94130749       0.33990207      -1.60687648
H       -1.88203726      -1.44510299       0.38267899
H       -2.08485735       0.22802492       1.08833982
H        0.04058747      -0.30644863       2.53595829
H        1.66674330      -0.21084109       1.92070398
H        0.64848421       1.23266014       1.90188041
H        2.70962563      -0.02510004      -1.63239372
H        2.83857785      -0.66905033       0.01872020
H        2.59715397       1.06018610      -0.23080081
18
Frame=9 idx=008097 GeodesicLength=0.8096423061403055 rxn_smarts="[C:1]([C:2]([N:3]([C:4]([H:13])([H:14])[H:15])[C:5](=[O:6])[C:7]([H:16])([H:17])[H:18])([H:11])[H:12])([H:8])([H:9])[H:10]>>[C:1](=[C:2]([H:11])[H:12])([H:8])[H:9].[N:3](\[C:4]([H:13])([H:14])[H:15])=[C:5](/[O:6][H:10])[C:7]([H:16])([H:17])[H:18]"
C       -2.35286359       0.08485567      -1.02720263
C       -1.85604960      -0.39708334       0.20221890
N        0.12263900      -0.19877866       0.46249063
C        0.65325655       0.18043636       1.75067180
C        0.86177888      -0.14543092      -0.61104285
O        0.27461054      -0.08458588      -1.75591772
C        2.35470321       0.03776630      -0.60923567
H       -2.95290898       0.98978342      -1.01448307
H       -2.72184480      -0.63855790      -1.74870459
H       -0.95573054       0.40042888      -1.59060928
H       -1.86585169      -1.47591174       0.32720454
H       -2.10857971       0.16626820       1.09650182
H        0.07068814      -0.29481881       2.54329137
H        1.68489495      -0.13797264       1.91080829
H        0.61190727       1.26463636       1.89769120
H        2.71720619      -0.07200176      -1.62804728
H        2.83492652      -0.70506661       0.02871672
H        2.62721765       1.02603308      -0.23435216
18
Frame=10 idx=008097 GeodesicLength=0.8979341610633286 rxn_smarts="[C:1]([C:2]([N:3]([C:4]([H:13])([H:14])[H:15])[C:5](=[O:6])[C:7]([H:16])([H:17])[H:18])([H:11])[H:12])([H:8])([H:9])[H:10]>>[C:1](=[C:2]([H:11])[H:12])([H:8])[H:9].[N:3](\[C:4]([H:13])([H:14])[H:15])=[C:5](/[O:6][H:10])[C:7]([H:16])([H:17])[H:18]"
C       -2.36242971       0.09556806      -1.02392743
C       -1.85851692      -0.42051868       0.19080938
N        0.12651833      -0.18944235       0.46751068
C        0.65675095       0.21205818       1.74957748
C        0.86852910      -0.15212548      -0.60685440
O        0.27943724      -0.05933488      -1.74794975
C        2.36454415       0.00656783      -0.60482495
H       -2.99676632       0.97596681      -0.97665006
H       -2.71651294      -0.61018652      -1.77035938
H       -0.97045917       0.45886021      -1.57234579
H       -1.85036080      -1.50381578       0.27079504
H       -2.12978361       0.10447878       1.10274278
H        0.10291761      -0.28332235       2.55046735
H        1.70205412      -0.06411924       1.89848059
H        0.57414113       1.29421261       1.89350148
H        2.72375653      -0.11891421      -1.62295900
H        2.83115025      -0.73872173       0.04036192
H        2.65503006       0.99278872      -0.23837592
18
Frame=11 idx=008097 GeodesicLength=0.9860935630431372 rxn_smarts="[C:1]([C:2]([N:3]([C:4]([H:13])([H:14])[H:15])[C:5](=[O:6])[C:7]([H:16])([H:17])[H:18])([H:11])[H:12])([H:8])([H:9])[H:10]>>[C:1](=[C:2]([H:11])[H:12])([H:8])[H:9].[N:3](\[C:4]([H:13])([H:14])[H:15])=[C:5](/[O:6][H:10])[C:7]([H:16])([H:17])[H:18]"
C       -2.37173444       0.10712033      -1.02000314
C       -1.86068516      -0.44321096       0.17882368
N        0.13049706      -0.18168378       0.47272907
C        0.66036000       0.24292115       1.74801326
C        0.87509059      -0.15993403      -0.60246730
O        0.28491189      -0.03642847      -1.73946404
C        2.37363389      -0.02403789      -0.59987279
H       -3.03894702       0.96076168      -0.93953492
H       -2.71165420      -0.57955126      -1.79082840
H       -0.98545647       0.51544727      -1.55214123
H       -1.83566037      -1.52883597       0.21352573
H       -2.14871625       0.04280818       1.10704612
H        0.13742377      -0.27188887       2.55740922
H        1.71800547       0.01062175       1.88350764
H        0.53533754       1.32121762       1.88951095
H        2.72940944      -0.16585420      -1.61704154
H        2.82741802      -0.76999650       0.05366941
H        2.68076626       0.96052396      -0.24288172
18
Frame=12 idx=008097 GeodesicLength=1.0741708368258778 rxn_smarts="[C:1]([C:2]([N:3]([C:4]([H:13])([H:14])[H:15])[C:5](=[O:6])[C:7]([H:16])([H:17])[H:18])([H:11])[H:12])([H:8])([H:9])[H:10]>>[C:1](=[C:2]([H:11])[H:12])([H:8])[H:9].[N:3](\[C:4]([H:13])([H:14])[H:15])=[C:5](/[O:6][H:10])[C:7]([H:16])([H:17])[H:18]"
C       -2.38085546       0.11945846      -1.01540721
C       -1.86265628      -0.46513957       0.16627123
N        0.13454665      -0.17533957       0.47814927
C        0.66410071       0.27300936       1.74597557
C        0.88149123      -0.16883728      -0.59786047
O        0.29098617      -0.01625219      -1.73055102
C        2.38208333      -0.05400175      -0.59434939
H       -3.07954647       0.94423809      -0.90326696
H       -2.70727688      -0.54676644      -1.81005348
H       -1.00069403       0.57034821      -1.53005770
H       -1.82185964      -1.55098085       0.15550998
H       -2.16561746      -0.01857401       1.10940516
H        0.17435504      -0.26046042       2.56404023
H        1.73253176       0.08612696       1.86569763
H        0.49564415       1.34546922       1.88596194
H        2.73430706      -0.21277992      -1.61022128
H        2.82390287      -0.79884739       0.06863042
H        2.70455725       0.92932907      -0.24787393
18
Frame=13 idx=008097 GeodesicLength=1.1621873163389547 rxn_smarts="[C:1]([C:2]([N:3]([C:4]([H:13])([H:14])[H:15])[C:5](=[O:6])[C:7]([H:16])([H:17])[H:18])([H:11])[H:12])([H:8])([H:9])[H:10]>>[C:1](=[C:2]([H:11])[H:12])([H:8])[H:9].[N:3](\[C:4]([H:13])([H:14])[H:15])=[C:5](/[O:6][H:10])[C:7]([H:16])([H:17])[H:18]"
C       -2.38985716       0.13248144      -1.01015801
C       -1.86451348      -0.48623555       0.15317760
N        0.13863220      -0.17021245       0.48375507
C        0.66800532       0.30230621       1.74345982
C        0.88773561      -0.17876903      -0.59302706
O        0.29759302       0.00113901      -1.72130859
C        2.38997339      -0.08333351      -0.58821835
H       -3.11889078       0.92622081      -0.86810871
H       -2.70318333      -0.51208744      -1.82801009
H       -1.01619867       0.62388574      -1.50604173
H       -1.80903653      -1.57022216       0.09696729
H       -2.18071934      -0.07936346       1.10978878
H        0.21391211      -0.24899819       2.57024182
H        1.74540909       0.16223525       1.84487537
H        0.45531742       1.36681063       1.88312854
H        2.73855997      -0.25968579      -1.60241748
H        2.82068238      -0.82535835       0.08518476
H        2.72657878       0.89918683      -0.25328903
18
Frame=14 idx=008097 GeodesicLength=1.2501985361746975 rxn_smarts="[C:1]([C:2]([N:3]([C:4]([H:13])([H:14])[H:15])[C:5](=[O:6])[C:7]([H:16])([H:17])[H:18])([H:11])[H:12])([H:8])([H:9])[H:10]>>[C:1](=[C:2]([H:11])[H:12])([H:8])[H:9].[N:3](\[C:4]([H:13])([H:14])[H:15])=[C:5](/[O:6][H:10])[C:7]([H:16])([H:17])[H:18]"
C       -2.39881563       0.14613439      -1.00424291
C       -1.86634932      -0.50650814       0.13954527
N        0.14271840      -0.16615312       0.48954520
C        0.67209558       0.33082177       1.74046447
C        0.89384649      -0.18973998      -0.58794253
O        0.30467272       0.01541711      -1.71185080
C        2.39740064      -0.11199222      -0.58144614
H       -3.15698423       0.90683501      -0.83418148
H       -2.69941781      -0.47557429      -1.84467319
H       -1.03198415       0.67615594      -1.48010906
H       -1.79725702      -1.58660702       0.03797099
H       -2.19425317      -0.13948416       1.10822190
H        0.25624128      -0.23737272       2.57590501
H        1.75640300       0.23882455       1.82087265
H        0.41453307       1.38510319       1.88126718
H        2.74232257      -0.30652307      -1.59354821
H        2.81789553      -0.84949245       0.10331933
H        2.74693205       0.87015522      -0.25911768
18
Frame=15 idx=008097 GeodesicLength=1.3382361785223893 rxn_smarts="[C:1]([C:2]([N:3]([C:4]([H:13])([H:14])[H:15])[C:5](=[O:6])[C:7]([H:16])([H:17])[H:18])([H:11])[H:12])([H:8])([H:9])[H:10]>>[C:1](=[C:2]([H:11])[H:12])([H:8])[H:9].[N:3](\[C:4]([H:13])([H:14])[H:15])=[C:5](/[O:6][H:10])[C:7]([H:16])([H:17])[H:18]"
C       -2.40777893       0.16036056      -0.99765776
C       -1.86823502      -0.52595361       0.12538076
N        0.14677178      -0.16305336       0.49550532
C        0.67638903       0.35857741       1.73696474
C        0.89982897      -0.20177493      -0.58258964
O        0.31215962       0.02647770      -1.70227433
C        2.40443230      -0.13999174      -0.57398701
H       -3.19397596       0.88605456      -0.80165688
H       -2.69586297      -0.43731860      -1.86003759
H       -1.04808674       0.72739185      -1.45214399
H       -1.78656784      -1.60017235      -0.02137887
H       -2.20643091      -0.19882562       1.10471437
H        0.30156649      -0.22546304       2.58086784
H        1.76525316       0.31583695       1.79350453
H        0.37348059       1.40022975       1.88060533
H        2.74572074      -0.35331183      -1.58350939
H        2.81561571      -0.87128196       0.12301439
H        2.76571999       0.84221828      -0.26532184
18
Frame=16 idx=008097 GeodesicLength=1.4263340066937207 rxn_smarts="[C:1]([C:2]([N:3]([C:4]([H:13])([H:14])[H:15])[C:5](=[O:6])[C:7]([H:16])([H:17])[H:18])([H:11])[H:12])([H:8])([H:9])[H:10]>>[C:1](=[C:2]([H:11])[H:12])([H:8])[H:9].[N:3](\[C:4]([H:13])([H:14])[H:15])=[C:5](/[O:6][H:10])[C:7]([H:16])([H:17])[H:18]"
C       -2.41678969       0.17509836      -0.99040335
C       -1.87023770      -0.54457187       0.11068945
N        0.15075856      -0.16082418       0.50162246
C        0.68091025       0.38559509       1.73293006
C        0.90568425      -0.21491265      -0.57694623
O        0.31999032       0.03421040      -1.69266648
C        2.41112500      -0.16733773      -0.56579367
H       -3.22996507       0.86387829      -0.77072043
H       -2.69240220      -0.39739015      -1.87410603
H       -1.06455846       0.77779502      -1.42199315
H       -1.77701522      -1.61095972      -0.08098147
H       -2.21745056      -0.25729601       1.09928073
H        0.35010782      -0.21310511       2.58493402
H        1.77167218       0.39318674       1.76257724
H        0.33237060       1.41207065       1.88137793
H        2.74887718      -0.40004893      -1.57219412
H        2.81390293      -0.89074695       0.14424473
H        2.78301980       0.81535875      -0.27185169
