10
Frame=0 idx=003677 GeodesicLength=0.0 rxn_smarts="[N:1]([c:2]1[c:3]([H:9])[o:4][n:5][c:6]1[H:10])([H:7])[H:8]>>[N:1](=[C:2]1/[C:3]([H:8])([H:9])[O:4][N:5]=[C:6]1[H:10])\[H:7]"
N        1.56583692       0.00236198      -0.48295391
C        0.37262310       0.14503380       0.05823110
C       -0.38357903      -1.02421809      -0.20813108
O       -1.72681587      -0.60491357      -0.22069543
N       -1.77443994       0.67813183       0.20717334
C       -0.58450676       1.13547072       0.45763719
H        2.36640936       0.49726373      -0.10174586
H        0.87022488      -1.10538675      -0.94690452
H       -0.23875930      -1.87943655       0.45024565
H       -0.46699336       2.15569289       0.78714352
10
Frame=1 idx=003677 GeodesicLength=0.03399812941813188 rxn_smarts="[N:1]([c:2]1[c:3]([H:9])[o:4][n:5][c:6]1[H:10])([H:7])[H:8]>>[N:1](=[C:2]1/[C:3]([H:8])([H:9])[O:4][N:5]=[C:6]1[H:10])\[H:7]"
N        1.56680729       0.00209335      -0.47591437
C        0.37679095       0.13554114       0.07810187
C       -0.38629421      -1.02657698      -0.20584335
O       -1.72625049      -0.60112905      -0.22203750
N       -1.77239050       0.67964860       0.21458955
C       -0.58068201       1.13342116       0.45898829
H        2.35536222       0.52290646      -0.10506977
H        0.87295585      -1.11101223      -0.95174361
H       -0.25055981      -1.89348220       0.43859601
H       -0.45573929       2.15858975       0.77033289
10
Frame=2 idx=003677 GeodesicLength=0.0679707821350006 rxn_smarts="[N:1]([c:2]1[c:3]([H:9])[o:4][n:5][c:6]1[H:10])([H:7])[H:8]>>[N:1](=[C:2]1/[C:3]([H:8])([H:9])[O:4][N:5]=[C:6]1[H:10])\[H:7]"
N        1.56785623       0.00176024      -0.46856085
C        0.38078327       0.12626957       0.09729563
C       -0.38888171      -1.02883266      -0.20342612
O       -1.72555896      -0.59734184      -0.22329647
N       -1.77029120       0.68114714       0.22199582
C       -0.57677823       1.13146794       0.45981556
H        2.34361314       0.54813156      -0.10839563
H        0.87581941      -1.11660681      -0.95662686
H       -0.26213265      -1.90688559       0.42715530
H       -0.44442930       2.16089045       0.75404362
10
Frame=3 idx=003677 GeodesicLength=0.10187755462125364 rxn_smarts="[N:1]([c:2]1[c:3]([H:9])[o:4][n:5][c:6]1[H:10])([H:7])[H:8]>>[N:1](=[C:2]1/[C:3]([H:8])([H:9])[O:4][N:5]=[C:6]1[H:10])\[H:7]"
N        1.56891863       0.00155753      -0.46114848
C        0.38457587       0.11736499       0.11570680
C       -0.39130055      -1.03093438      -0.20088426
O       -1.72473420      -0.59364415      -0.22423928
N       -1.76817166       0.68259594       0.22942602
C       -0.57287363       1.12958784       0.46029912
H        2.33131424       0.57229873      -0.11127552
H        0.87874601      -1.12196972      -0.96176893
H       -0.27324028      -1.91958825       0.41591409
H       -0.43323442       2.16273147       0.73797045
10
Frame=4 idx=003677 GeodesicLength=0.13583418180757972 rxn_smarts="[N:1]([c:2]1[c:3]([H:9])[o:4][n:5][c:6]1[H:10])([H:7])[H:8]>>[N:1](=[C:2]1/[C:3]([H:8])([H:9])[O:4][N:5]=[C:6]1[H:10])\[H:7]"
N        1.57000891       0.00152157      -0.45381659
C        0.38818972       0.10885427       0.13333430
C       -0.39356762      -1.03293034      -0.19819573
O       -1.72384135      -0.59008354      -0.22487601
N       -1.76609679       0.68406085       0.23670205
C       -0.56902210       1.12782553       0.46038345
H        2.31866826       0.59541524      -0.11375955
H        0.88175536      -1.12720266      -0.96713825
H       -0.28389131      -1.93163653       0.40497050
H       -0.42220308       2.16417562       0.72239584
10
Frame=5 idx=003677 GeodesicLength=0.16976373256892555 rxn_smarts="[N:1]([c:2]1[c:3]([H:9])[o:4][n:5][c:6]1[H:10])([H:7])[H:8]>>[N:1](=[C:2]1/[C:3]([H:8])([H:9])[O:4][N:5]=[C:6]1[H:10])\[H:7]"
N        1.57112507       0.00155747      -0.44643614
C        0.39164917       0.10065973       0.15033505
C       -0.39569931      -1.03482941      -0.19535254
O       -1.72284945      -0.58660168      -0.22530227
N       -1.76400091       0.68558160       0.24369204
C       -0.56518969       1.12610284       0.46022428
H        2.30560759       0.61776306      -0.11611387
H        0.88484100      -1.13233311      -0.97265061
H       -0.29419746      -1.94310103       0.39429318
H       -0.41128602       2.16520053       0.70731088
10
Frame=6 idx=003677 GeodesicLength=0.20368145535522758 rxn_smarts="[N:1]([c:2]1[c:3]([H:9])[o:4][n:5][c:6]1[H:10])([H:7])[H:8]>>[N:1](=[C:2]1/[C:3]([H:8])([H:9])[O:4][N:5]=[C:6]1[H:10])\[H:7]"
N        1.57222200       0.00177046      -0.43924275
C        0.39495918       0.09286778       0.16663017
C       -0.39767988      -1.03663407      -0.19231246
O       -1.72176868      -0.58327053      -0.22545425
N       -1.76191278       0.68722458       0.25015747
C       -0.56143150       1.12443322       0.45985050
H        2.29225630       0.63911041      -0.11823283
H        0.88798746      -1.13736798      -0.97833724
H       -0.30407009      -1.95394111       0.38402030
H       -0.40056202       2.16580723       0.69292109
10
Frame=7 idx=003677 GeodesicLength=0.23757627625011404 rxn_smarts="[N:1]([c:2]1[c:3]([H:9])[o:4][n:5][c:6]1[H:10])([H:7])[H:8]>>[N:1](=[C:2]1/[C:3]([H:8])([H:9])[O:4][N:5]=[C:6]1[H:10])\[H:7]"
N        1.57327899       0.00217864      -0.43227228
C        0.39812889       0.08545817       0.18227999
C       -0.39952425      -1.03835889      -0.18908816
O       -1.72062158      -0.58009970      -0.22531188
N       -1.75985398       0.68896574       0.25615448
C       -0.55776143       1.12281234       0.45930977
H        2.27873444       0.65945712      -0.12004133
H        0.89116785      -1.14228983      -0.98423644
H       -0.31351126      -1.96422352       0.37410315
H       -0.39003768       2.16609993       0.67910270
10
Frame=8 idx=003677 GeodesicLength=0.2715179432317204 rxn_smarts="[N:1]([c:2]1[c:3]([H:9])[o:4][n:5][c:6]1[H:10])([H:7])[H:8]>>[N:1](=[C:2]1/[C:3]([H:8])([H:9])[O:4][N:5]=[C:6]1[H:10])\[H:7]"
N        1.57430486       0.00278947      -0.42548363
C        0.40117799       0.07840930       0.19737382
C       -0.40124520      -1.04000755      -0.18569546
O       -1.71941496      -0.57707665      -0.22490067
N       -1.75781334       0.69079043       0.26182138
C       -0.55417261       1.12122443       0.45866636
H        2.26507334       0.67884759      -0.12150864
H        0.89435975      -1.14707359      -0.99038195
H       -0.32255959      -1.97402316       0.36446688
H       -0.37971026       2.16611974       0.66564189
10
Frame=9 idx=003677 GeodesicLength=0.30540984995475073 rxn_smarts="[N:1]([c:2]1[c:3]([H:9])[o:4][n:5][c:6]1[H:10])([H:7])[H:8]>>[N:1](=[C:2]1/[C:3]([H:8])([H:9])[O:4][N:5]=[C:6]1[H:10])\[H:7]"
N        1.57528273       0.00358094      -0.41885472
C        0.40411047       0.07167841       0.21198787
C       -0.40285141      -1.04157944      -0.18215138
O       -1.71815349      -0.57418211      -0.22421354
N       -1.75580378       0.69264892       0.26724413
C       -0.55066721       1.11964753       0.45801325
H        2.25132877       0.69730575      -0.12260198
H        0.89755040      -1.15166551      -0.99679001
H       -0.33123031      -1.98338393       0.35502817
H       -0.36956617       2.16594944       0.65233822
10
Frame=10 idx=003677 GeodesicLength=0.33931417913551265 rxn_smarts="[N:1]([c:2]1[c:3]([H:9])[o:4][n:5][c:6]1[H:10])([H:7])[H:8]>>[N:1](=[C:2]1/[C:3]([H:8])([H:9])[O:4][N:5]=[C:6]1[H:10])\[H:7]"
N        1.57621083       0.00452409      -0.41249212
C        0.40695369       0.06530655       0.22606623
C       -0.40434043      -1.04311281      -0.17837701
O       -1.71682410      -0.57144324      -0.22336842
N       -1.75381364       0.69469656       0.27194309
C       -0.54725402       1.11811581       0.45722193
H        2.23748052       0.71501006      -0.12363423
H        0.90077315      -1.15626940      -1.00332650
H       -0.33957200      -1.99227626       0.34604897
H       -0.35961402       2.16544865       0.63991806
10
Frame=11 idx=003677 GeodesicLength=0.3732017553824764 rxn_smarts="[N:1]([c:2]1[c:3]([H:9])[o:4][n:5][c:6]1[H:10])([H:7])[H:8]>>[N:1](=[C:2]1/[C:3]([H:8])([H:9])[O:4][N:5]=[C:6]1[H:10])\[H:7]"
N        1.57704841       0.00569135      -0.40647764
C        0.40970274       0.05928722       0.23963018
C       -0.40572082      -1.04460389      -0.17440014
O       -1.71544691      -0.56887803      -0.22230008
N       -1.75186225       0.69686164       0.27610088
C       -0.54394881       1.11663412       0.45629939
H        2.22365955       0.73183736      -0.12436360
H        0.90398149      -1.16081850      -1.01006952
H       -0.34754625      -2.00073738       0.33745891
H       -0.34986714       2.16472611       0.62812163
10
Frame=12 idx=003677 GeodesicLength=0.40710449351818734 rxn_smarts="[N:1]([c:2]1[c:3]([H:9])[o:4][n:5][c:6]1[H:10])([H:7])[H:8]>>[N:1](=[C:2]1/[C:3]([H:8])([H:9])[O:4][N:5]=[C:6]1[H:10])\[H:7]"
N        1.57781166       0.00705827      -0.40073577
C        0.41237191       0.05358976       0.25275892
C       -0.40700525      -1.04605406      -0.17023917
O       -1.71403016      -0.56646719      -0.22102425
N       -1.74995215       0.69911531       0.27985300
C       -0.54074065       1.11518812       0.45530208
H        2.20988391       0.74785386      -0.12478875
H        0.90717141      -1.16528866      -1.01704156
H       -0.35519610      -2.00882526       0.32916762
H       -0.34031458       2.16382987       0.61674787
10
Frame=13 idx=003677 GeodesicLength=0.4410061181473435 rxn_smarts="[N:1]([c:2]1[c:3]([H:9])[o:4][n:5][c:6]1[H:10])([H:7])[H:8]>>[N:1](=[C:2]1/[C:3]([H:8])([H:9])[O:4][N:5]=[C:6]1[H:10])\[H:7]"
N        1.57852909       0.00856032      -0.39515353
C        0.41497169       0.04816758       0.26553990
C       -0.40820523      -1.04746571      -0.16591628
O       -1.71257309      -0.56417315      -0.21957884
N       -1.74807358       0.70141691       0.28334757
C       -0.53761162       1.11376780       0.45427974
H        2.19613700       0.76317632      -0.12494607
H        0.91033392      -1.16965051      -1.02425074
H       -0.36257473      -2.01659988       0.32108052
H       -0.33093347       2.16280030       0.60559772
10
Frame=14 idx=003677 GeodesicLength=0.4749572206054358 rxn_smarts="[N:1]([c:2]1[c:3]([H:9])[o:4][n:5][c:6]1[H:10])([H:7])[H:8]>>[N:1](=[C:2]1/[C:3]([H:8])([H:9])[O:4][N:5]=[C:6]1[H:10])\[H:7]"
N        1.57924881       0.01012969      -0.38959019
C        0.41752244       0.04297410       0.27807864
C       -0.40934368      -1.04885875      -0.16145546
O       -1.71110021      -0.56196823      -0.21800164
N       -1.74623068       0.70374610       0.28675890
C       -0.53454080       1.11236472       0.45332365
H        2.18241125       0.77793970      -0.12487065
H        0.91346247      -1.17386833      -1.03172470
H       -0.36973381      -2.02416082       0.31307575
H       -0.32169580       2.16170183       0.59440570
10
Frame=15 idx=003677 GeodesicLength=0.508860375111219 rxn_smarts="[N:1]([c:2]1[c:3]([H:9])[o:4][n:5][c:6]1[H:10])([H:7])[H:8]>>[N:1](=[C:2]1/[C:3]([H:8])([H:9])[O:4][N:5]=[C:6]1[H:10])\[H:7]"
N        1.57990263       0.01182427      -0.38413043
C        0.41999561       0.03801364       0.29035498
C       -0.41039585      -1.05017870      -0.15683563
O       -1.70954857      -0.55984908      -0.21622643
N       -1.74438906       0.70605895       0.29006166
C       -0.53153983       1.11095009       0.45238012
H        2.16872815       0.79202985      -0.12446259
H        0.91653515      -1.17790679      -1.03946885
H       -0.37666640      -2.03140010       0.30516387
H       -0.31262184       2.16045788       0.58316331
10
Frame=16 idx=003677 GeodesicLength=0.5428020261667938 rxn_smarts="[N:1]([c:2]1[c:3]([H:9])[o:4][n:5][c:6]1[H:10])([H:7])[H:8]>>[N:1](=[C:2]1/[C:3]([H:8])([H:9])[O:4][N:5]=[C:6]1[H:10])\[H:7]"
N        1.58050904       0.01365452      -0.37883722
C        0.42242309       0.03330986       0.30235794
C       -0.41138117      -1.05148111      -0.15205678
O       -1.70798832      -0.55785218      -0.21426751
N       -1.74259859       0.70840613       0.29321723
C       -0.52862258       1.10958272       0.45140741
H        2.15518555       0.80545536      -0.12368909
H        0.91953952      -1.18181036      -1.04750582
H       -0.38333593      -2.03840942       0.29739518
H       -0.30373059       2.15914448       0.57197866
