16
Frame=0 idx=000035 GeodesicLength=0.0 rxn_smarts="[O:1]([C:2]1([H:8])[C:3]([H:9])([H:10])[C:4]([H:11])([H:12])[C:5]([H:13])([H:14])[C:6]1([H:15])[H:16])[H:7]>>[O:1]([C:6]([C:5]([C:4]([C:3]([C:2][H:8])([H:9])[H:10])([H:11])[H:12])([H:13])[H:14])([H:15])[H:16])[H:7]"
O       -1.64577104       0.59729424       0.22855290
C       -0.96434955       0.05579773      -1.02332438
C       -0.22884632      -1.18947107      -0.63900451
C        0.83089665      -0.86243331       0.42425926
C        1.18459571       0.61715322       0.25704437
C       -0.06560243       1.43667790       0.33482472
H       -1.89093404      -0.10840596       0.85743430
H       -1.75321397      -0.13925925      -1.75477890
H       -0.89066376      -1.99044334      -0.25440630
H        0.23409278      -1.58647493      -1.54691384
H        1.71848926      -1.49232081       0.34381575
H        0.42917778      -1.02162239       1.43079986
H        1.86863660       0.93251845       1.05410098
H        1.65312136       0.76854616      -0.71595884
H       -0.30298310       1.72902580       1.36373804
H       -0.17664591       2.25341750      -0.36018341
16
Frame=1 idx=000035 GeodesicLength=0.032555438980743395 rxn_smarts="[O:1]([C:2]1([H:8])[C:3]([H:9])([H:10])[C:4]([H:11])([H:12])[C:5]([H:13])([H:14])[C:6]1([H:15])[H:16])[H:7]>>[O:1]([C:6]([C:5]([C:4]([C:3]([C:2][H:8])([H:9])[H:10])([H:11])[H:12])([H:13])[H:14])([H:15])[H:16])[H:7]"
O       -1.64889430       0.59000421       0.24045679
C       -0.96683384       0.05809125      -1.01426792
C       -0.22897941      -1.18974872      -0.63904775
C        0.83175796      -0.86433439       0.42379921
C        1.18482431       0.61576624       0.26005073
C       -0.06983153       1.43366068       0.32374842
H       -1.89568951      -0.11948329       0.86275851
H       -1.75650458      -0.12785352      -1.74693209
H       -0.88874140      -1.99390909      -0.25909690
H        0.23451859      -1.57868517      -1.55022646
H        1.71953557      -1.49359255       0.34027251
H        0.43128654      -1.02721689       1.43013765
H        1.86144147       0.93273663       1.06235423
H        1.66372275       0.76861962      -0.70766076
H       -0.30387347       1.74517846       1.34764027
H       -0.16773915       2.25076654      -0.37398644
16
Frame=2 idx=000035 GeodesicLength=0.06501603409628862 rxn_smarts="[O:1]([C:2]1([H:8])[C:3]([H:9])([H:10])[C:4]([H:11])([H:12])[C:5]([H:13])([H:14])[C:6]1([H:15])[H:16])[H:7]>>[O:1]([C:6]([C:5]([C:4]([C:3]([C:2][H:8])([H:9])[H:10])([H:11])[H:12])([H:13])[H:14])([H:15])[H:16])[H:7]"
O       -1.65168861       0.58276536       0.25235461
C       -0.96934942       0.06027809      -1.00521179
C       -0.22914220      -1.18997468      -0.63910195
C        0.83260659      -0.86615840       0.42328219
C        1.18496986       0.61442764       0.26314132
C       -0.07397342       1.43061370       0.31272188
H       -1.90040703      -0.13045017       0.86787951
H       -1.75992976      -0.11662686      -1.73881926
H       -0.88683861      -1.99724876      -0.26381735
H        0.23483498      -1.57084182      -1.55345666
H        1.72055095      -1.49468757       0.33662056
H        0.43344777      -1.03280791       1.42935581
H        1.85408304       0.93298082       1.07065653
H        1.67420498       0.76880838      -0.69908076
H       -0.30477804       1.76108184       1.33120773
H       -0.15859108       2.24784033      -0.38773234
16
Frame=3 idx=000035 GeodesicLength=0.09748195324987857 rxn_smarts="[O:1]([C:2]1([H:8])[C:3]([H:9])([H:10])[C:4]([H:11])([H:12])[C:5]([H:13])([H:14])[C:6]1([H:15])[H:16])[H:7]>>[O:1]([C:6]([C:5]([C:4]([C:3]([C:2][H:8])([H:9])[H:10])([H:11])[H:12])([H:13])[H:14])([H:15])[H:16])[H:7]"
O       -1.65424579       0.57563607       0.26429313
C       -0.97191391       0.06241479      -0.99618634
C       -0.22929666      -1.19018481      -0.63917090
C        0.83349212      -0.86798615       0.42273291
C        1.18506970       0.61313211       0.26628816
C       -0.07807064       1.42760653       0.30172034
H       -1.90518523      -0.14128547       0.87288236
H       -1.76353842      -0.10547784      -1.73048644
H       -0.88494164      -2.00053219      -0.26852388
H        0.23513691      -1.56297581      -1.55666009
H        1.72164748      -1.49574926       0.33287855
H        0.43566073      -1.03850157       1.42854685
H        1.84658704       0.93322302       1.07900739
H        1.68465804       0.76913078      -0.69030725
H       -0.30579031       1.77678988       1.31447832
H       -0.14926941       2.24475991      -0.40149312
16
Frame=4 idx=000035 GeodesicLength=0.12994026844302292 rxn_smarts="[O:1]([C:2]1([H:8])[C:3]([H:9])([H:10])[C:4]([H:11])([H:12])[C:5]([H:13])([H:14])[C:6]1([H:15])[H:16])[H:7]>>[O:1]([C:6]([C:5]([C:4]([C:3]([C:2][H:8])([H:9])[H:10])([H:11])[H:12])([H:13])[H:14])([H:15])[H:16])[H:7]"
O       -1.65652619       0.56859697       0.27627746
C       -0.97452715       0.06448374      -0.98717373
C       -0.22945296      -1.19036388      -0.63925971
C        0.83439669      -0.86979330       0.42214083
C        1.18511034       0.61187853       0.26950991
C       -0.08210548       1.42461962       0.29073486
H       -1.90998265      -0.15199272       0.87775180
H       -1.76733283      -0.09444192      -1.72189746
H       -0.88304683      -2.00374148      -0.27324740
H        0.23539743      -1.55505400      -1.55983193
H        1.72278629      -1.49673029       0.32903331
H        0.43792510      -1.04427050       1.42767517
H        1.83892221       0.93346433       1.08743287
H        1.69506689       0.76957620      -0.68128898
H       -0.30687562       1.79230829       1.29742530
H       -0.13975523       2.24146043      -0.41528232
16
Frame=5 idx=000035 GeodesicLength=0.16237754806690924 rxn_smarts="[O:1]([C:2]1([H:8])[C:3]([H:9])([H:10])[C:4]([H:11])([H:12])[C:5]([H:13])([H:14])[C:6]1([H:15])[H:16])[H:7]>>[O:1]([C:6]([C:5]([C:4]([C:3]([C:2][H:8])([H:9])[H:10])([H:11])[H:12])([H:13])[H:14])([H:15])[H:16])[H:7]"
O       -1.65853410       0.56165289       0.28829522
C       -0.97717972       0.06648990      -0.97818247
C       -0.22961406      -1.19051299      -0.63936266
C        0.83532357      -0.87157672       0.42150657
C        1.18509567       0.61066940       0.27279770
C       -0.08607605       1.42165106       0.27977321
H       -1.91481105      -0.16255782       0.88247590
H       -1.77129255      -0.08351812      -1.71307612
H       -0.88116466      -2.00686973      -0.27797141
H        0.23560930      -1.54709570      -1.56296164
H        1.72397051      -1.49762772       0.32508908
H        0.44024683      -1.05010684       1.42674282
H        1.83110399       0.93370938       1.09591206
H        1.70542159       0.77014757      -0.67203842
H       -0.30802952       1.80760034       1.28007644
H       -0.13006973       2.23794508      -0.42907627
16
Frame=6 idx=000035 GeodesicLength=0.19478533814278992 rxn_smarts="[O:1]([C:2]1([H:8])[C:3]([H:9])([H:10])[C:4]([H:11])([H:12])[C:5]([H:13])([H:14])[C:6]1([H:15])[H:16])[H:7]>>[O:1]([C:6]([C:5]([C:4]([C:3]([C:2][H:8])([H:9])[H:10])([H:11])[H:12])([H:13])[H:14])([H:15])[H:16])[H:7]"
O       -1.66027361       0.55480855       0.30033026
C       -0.97985968       0.06843650      -0.96921804
C       -0.22978176      -1.19063331      -0.63947270
C        0.83627451      -0.87333269       0.42082977
C        1.18502762       0.60950537       0.27614025
C       -0.08998317       1.41869563       0.26884378
H       -1.91967976      -0.17296354       0.88703964
H       -1.77538967      -0.07270413      -1.70404226
H       -0.87930274      -2.00990768      -0.28267875
H        0.23576744      -1.53912114      -1.56603682
H        1.72520018      -1.49843903       0.32104912
H        0.44263028      -1.05599877       1.42575012
H        1.82314677       0.93396000       1.10442020
H        1.71570859       0.77084545      -0.66257234
H       -0.30924800       1.82263056       1.26246505
H       -0.12023702       2.23421823      -0.44284728
16
Frame=7 idx=000035 GeodesicLength=0.22717338207058657 rxn_smarts="[O:1]([C:2]1([H:8])[C:3]([H:9])([H:10])[C:4]([H:11])([H:12])[C:5]([H:13])([H:14])[C:6]1([H:15])[H:16])[H:7]>>[O:1]([C:6]([C:5]([C:4]([C:3]([C:2][H:8])([H:9])[H:10])([H:11])[H:12])([H:13])[H:14])([H:15])[H:16])[H:7]"
O       -1.66173968       0.54806473       0.31239670
C       -0.98257130       0.07032497      -0.96027702
C       -0.22995450      -1.19072355      -0.63959462
C        0.83725004      -0.87506362       0.42010940
C        1.18490666       0.60838489       0.27954517
C       -0.09382341       1.41575552       0.25793570
H       -1.92458606      -0.18320367       0.89145455
H       -1.77963778      -0.06200463      -1.69478583
H       -0.87745762      -2.01286072      -0.28738005
H        0.23587415      -1.53111643      -1.56906769
H        1.72647664      -1.49916336       0.31690615
H        0.44507596      -1.06195501       1.42469383
H        1.81503617       0.93421327       1.11297576
H        1.72593801       0.77166796      -0.65287359
H       -0.31052817       1.83741503       1.24457997
H       -0.11025911       2.23026461      -0.45661843
16
Frame=8 idx=000035 GeodesicLength=0.25955502553294935 rxn_smarts="[O:1]([C:2]1([H:8])[C:3]([H:9])([H:10])[C:4]([H:11])([H:12])[C:5]([H:13])([H:14])[C:6]1([H:15])[H:16])[H:7]>>[O:1]([C:6]([C:5]([C:4]([C:3]([C:2][H:8])([H:9])[H:10])([H:11])[H:12])([H:13])[H:14])([H:15])[H:16])[H:7]"
O       -1.66292920       0.54142090       0.32450406
C       -0.98531796       0.07215501      -0.95135537
C       -0.23013137      -1.19078298      -0.63973131
C        0.83825150      -0.87677173       0.41934326
C        1.18473300       0.60730542       0.28301764
C       -0.09759436       1.41282925       0.24703821
H       -1.92952745      -0.19327024       0.89572860
H       -1.78404744      -0.05141976      -1.68529564
H       -0.87562630      -2.01573180      -0.29208208
H        0.23593379      -1.52306873      -1.57206069
H        1.72780167      -1.49980101       0.31265369
H        0.44758533      -1.06798199       1.42356994
H        1.80675669       0.93446450       1.12159359
H        1.73611755       0.77261554      -0.64292852
H       -0.31186769       1.85196722       1.22641315
H       -0.10013776       2.22607039      -0.47040853
16
Frame=9 idx=000035 GeodesicLength=0.29194984083436243 rxn_smarts="[O:1]([C:2]1([H:8])[C:3]([H:9])([H:10])[C:4]([H:11])([H:12])[C:5]([H:13])([H:14])[C:6]1([H:15])[H:16])[H:7]>>[O:1]([C:6]([C:5]([C:4]([C:3]([C:2][H:8])([H:9])[H:10])([H:11])[H:12])([H:13])[H:14])([H:15])[H:16])[H:7]"
O       -1.66384050       0.53488374       0.33667327
C       -0.98810450       0.07393241      -0.94244916
C       -0.23030640      -1.19081536      -0.63988941
C        0.83928114      -0.87846823       0.41852979
C        1.18450574       0.60626531       0.28656418
C       -0.10129787       1.40992473       0.23613852
H       -1.93450552      -0.20315421       0.89988582
H       -1.78863113      -0.04094565      -1.67555919
H       -0.87379993      -2.01853625      -0.29679428
H        0.23595953      -1.51496591      -1.57503377
H        1.72918221      -1.50036654       0.30828279
H        0.45015772      -1.07410276       1.42238082
H        1.79828496       0.93470917       1.13029629
H        1.74626034       0.77368939      -0.63272644
H       -0.31326970       1.86631987       1.20795232
H       -0.08987610       2.22163030      -0.48425154
16
Frame=10 idx=000035 GeodesicLength=0.3243700313369219 rxn_smarts="[O:1]([C:2]1([H:8])[C:3]([H:9])([H:10])[C:4]([H:11])([H:12])[C:5]([H:13])([H:14])[C:6]1([H:15])[H:16])[H:7]>>[O:1]([C:6]([C:5]([C:4]([C:3]([C:2][H:8])([H:9])[H:10])([H:11])[H:12])([H:13])[H:14])([H:15])[H:16])[H:7]"
O       -1.66445580       0.52843524       0.34890221
C       -0.99093677       0.07564573      -0.93354882
C       -0.23048543      -1.19080615      -0.64007045
C        0.84033574      -0.88013764       0.41766511
C        1.18422491       0.60525828       0.29019483
C       -0.10492468       1.40702292       0.22522304
H       -1.93949723      -0.21285122       0.90391246
H       -1.79340978      -0.03059841      -1.66555106
H       -0.87198102      -2.02125105      -0.30153528
H        0.23593558      -1.50677675      -1.57797835
H        1.73060788      -1.50082744       0.30379666
H        0.45279606      -1.08029990       1.42110531
H        1.78960936       0.93493624       1.13909842
H        1.75636899       0.77488518      -0.62223198
H       -0.31471921       1.88046379       1.18917605
H       -0.07946859       2.21690118      -0.49815814
16
Frame=11 idx=000035 GeodesicLength=0.35676422433907357 rxn_smarts="[O:1]([C:2]1([H:8])[C:3]([H:9])([H:10])[C:4]([H:11])([H:12])[C:5]([H:13])([H:14])[C:6]1([H:15])[H:16])[H:7]>>[O:1]([C:6]([C:5]([C:4]([C:3]([C:2][H:8])([H:9])[H:10])([H:11])[H:12])([H:13])[H:14])([H:15])[H:16])[H:7]"
O       -1.66479207       0.52209031       0.36114362
C       -0.99378051       0.07730476      -0.92467581
C       -0.23067588      -1.19076558      -0.64025614
C        0.84141672      -0.88177151       0.41674867
C        1.18389337       0.60429592       0.29387990
C       -0.10847425       1.40411359       0.21433050
H       -1.94453239      -0.22232839       0.90777660
H       -1.79829877      -0.02037472      -1.65534045
H       -0.87019389      -2.02386798      -0.30624976
H        0.23584692      -1.49857123      -1.58086295
H        1.73207437      -1.50118054       0.29919659
H        0.45550909      -1.08654469       1.41974821
H        1.78077494       0.93517130       1.14792687
H        1.76639672       0.77621051      -0.61149737
H       -0.31620736       1.89430428       1.17016381
H       -0.06895699       2.21191398      -0.51203229
16
Frame=12 idx=000035 GeodesicLength=0.3891588817366625 rxn_smarts="[O:1]([C:2]1([H:8])[C:3]([H:9])([H:10])[C:4]([H:11])([H:12])[C:5]([H:13])([H:14])[C:6]1([H:15])[H:16])[H:7]>>[O:1]([C:6]([C:5]([C:4]([C:3]([C:2][H:8])([H:9])[H:10])([H:11])[H:12])([H:13])[H:14])([H:15])[H:16])[H:7]"
O       -1.66486033       0.51586122       0.37341495
C       -0.99664145       0.07891818      -0.91583353
C       -0.23086770      -1.19070192      -0.64045137
C        0.84253542      -0.88338952       0.41578453
C        1.18351540       0.60337174       0.29762034
C       -0.11195846       1.40121214       0.20344795
H       -1.94962013      -0.23156996       0.91150374
H       -1.80331512      -0.01025777      -1.64492826
H       -0.86842798      -2.02640301      -0.31094100
H        0.23571312      -1.49034869      -1.58370785
H        1.73360506      -1.50145535       0.29448020
H        0.45830048      -1.09286482       1.41832653
H        1.77177262       0.93539782       1.15679943
H        1.77636381       0.77766490      -0.60052988
H       -0.31775491       1.90787642       1.15092189
H       -0.05835983       2.20668860      -0.52590766
16
Frame=13 idx=000035 GeodesicLength=0.42157842652582594 rxn_smarts="[O:1]([C:2]1([H:8])[C:3]([H:9])([H:10])[C:4]([H:11])([H:12])[C:5]([H:13])([H:14])[C:6]1([H:15])[H:16])[H:7]>>[O:1]([C:6]([C:5]([C:4]([C:3]([C:2][H:8])([H:9])[H:10])([H:11])[H:12])([H:13])[H:14])([H:15])[H:16])[H:7]"
O       -1.66466502       0.50974316       0.38572800
C       -0.99952907       0.08048740      -0.90701429
C       -0.23106104      -1.19061525      -0.64065845
C        0.84369541      -0.88499579       0.41476847
C        1.18309399       0.60248608       0.30142584
C       -0.11537425       1.39831788       0.19256242
H       -1.95476966      -0.24057241       0.91510732
H       -1.80847715      -0.00024608      -1.63429753
H       -0.86668432      -2.02886699      -0.31561792
H        0.23554030      -1.48209011      -1.58651811
H        1.73520818      -1.50165049       0.28963714
H        0.46117278      -1.09927714       1.41683108
H        1.76258872       0.93561311       1.16573282
H        1.78628919       0.77925418      -0.58930321
H       -0.31935987       1.92120311       1.13142590
H       -0.04766819       2.20120933      -0.53980946
16
Frame=14 idx=000035 GeodesicLength=0.4540089820321285 rxn_smarts="[O:1]([C:2]1([H:8])[C:3]([H:9])([H:10])[C:4]([H:11])([H:12])[C:5]([H:13])([H:14])[C:6]1([H:15])[H:16])[H:7]>>[O:1]([C:6]([C:5]([C:4]([C:3]([C:2][H:8])([H:9])[H:10])([H:11])[H:12])([H:13])[H:14])([H:15])[H:16])[H:7]"
O       -1.66416092       0.50372172       0.39808284
C       -1.00243658       0.08199476      -0.89820984
C       -0.23126184      -1.19049110      -0.64088369
C        0.84488256      -0.88657026       0.41369393
C        1.18261352       0.60163244       0.30531007
C       -0.11871057       1.39540609       0.18166768
H       -1.95992059      -0.24931842       0.91858111
H       -1.81378152       0.00962991      -1.62342720
H       -0.86495786      -2.03123240      -0.32030531
H        0.23530255      -1.47377196      -1.58929332
H        1.73684817      -1.50173290       0.28466141
H        0.46412682      -1.10575393       1.41524031
H        1.75319050       0.93581374       1.17474613
H        1.79614581       0.78097070      -0.57778250
H       -0.32100265       1.93427881       1.11166104
H       -0.03687740       2.19542281      -0.55374266
16
Frame=15 idx=000035 GeodesicLength=0.4864124678889129 rxn_smarts="[O:1]([C:2]1([H:8])[C:3]([H:9])([H:10])[C:4]([H:11])([H:12])[C:5]([H:13])([H:14])[C:6]1([H:15])[H:16])[H:7]>>[O:1]([C:6]([C:5]([C:4]([C:3]([C:2][H:8])([H:9])[H:10])([H:11])[H:12])([H:13])[H:14])([H:15])[H:16])[H:7]"
O       -1.66339151       0.49781408       0.41042732
C       -1.00533510       0.08345723      -0.88944732
C       -0.23147126      -1.19034378      -0.64110679
C        0.84610431      -0.88810925       0.41256704
C        1.18208461       0.60081924       0.30923374
C       -0.12197537       1.39247102       0.17080269
H       -1.96513007      -0.25777820       0.92189523
H       -1.81915008       0.01938872      -1.61239579
H       -0.86326931      -2.03349636      -0.32494115
H        0.23500417      -1.46546965      -1.59200280
H        1.73853772      -1.50170169       0.27956180
H        0.46716991      -1.11226932       1.41357032
H        1.74364159       0.93601620       1.18375737
H        1.80589384       0.78281049      -0.56604138
H       -0.32267417       1.94701110       1.09172411
H       -0.02603927       2.18938017      -0.56760438
16
Frame=16 idx=000035 GeodesicLength=0.5188273910523423 rxn_smarts="[O:1]([C:2]1([H:8])[C:3]([H:9])([H:10])[C:4]([H:11])([H:12])[C:5]([H:13])([H:14])[C:6]1([H:15])[H:16])[H:7]>>[O:1]([C:6]([C:5]([C:4]([C:3]([C:2][H:8])([H:9])[H:10])([H:11])[H:12])([H:13])[H:14])([H:15])[H:16])[H:7]"
O       -1.66236899       0.49201986       0.42277420
C       -1.00823462       0.08488015      -0.88072378
C       -0.23168593      -1.19017837      -0.64133091
C        0.84737181      -0.88963091       0.41138801
C        1.18151803       0.60004259       0.31320388
C       -0.12517460       1.38952362       0.15995153
H       -1.97040084      -0.26594397       0.92507203
H       -1.82461082       0.02904121      -1.60119151
H       -0.86161872      -2.03567640      -0.32953148
H        0.23465553      -1.45716947      -1.59465864
H        1.74029994      -1.50158149       0.27433693
H        0.47030324      -1.11885606       1.41182439
H        1.73393446       0.93620669       1.19278798
H        1.81556784       0.78478712      -0.55406934
H       -0.32439885       1.95943741       1.07159890
H       -0.01515749       2.18309801      -0.58143220
