14
Frame=0 idx=003570 GeodesicLength=0.0 rxn_smarts="[C:1]([C@@:2]1([H:10])[O:3][C:4]([H:11])([H:12])[C@:5]1([O:6][H:14])[H:13])([H:7])([H:8])[H:9]>>[C:1]([C@@:2]([O:3][H:11])([C@@:5]([C:4][H:12])([O:6][H:14])[H:13])[H:10])([H:7])([H:8])[H:9]"
C        1.54009336       0.62691910       0.06265067
C        0.54960032      -0.50238246       0.09639378
O       -0.06873982      -0.66472389       1.41572089
C       -1.59198176      -0.41715861       0.54038377
C       -0.75427213      -0.33914870      -0.71009927
O       -0.92359699       0.86956608      -1.41320232
H        1.05428397       1.58059269       0.27255385
H        2.32528245       0.45722497       0.80080913
H        1.99190027       0.69528256      -0.92781880
H        1.02863455      -1.46036565      -0.10675140
H       -0.76841748       0.15417235       1.50261264
H       -2.13786920      -1.34137423       0.71739328
H       -0.88745590      -1.13834979      -1.44178674
H       -1.35746159       1.47974559      -0.80885952
14
Frame=1 idx=003570 GeodesicLength=0.052194449080565385 rxn_smarts="[C:1]([C@@:2]1([H:10])[O:3][C:4]([H:11])([H:12])[C@:5]1([O:6][H:14])[H:13])([H:7])([H:8])[H:9]>>[C:1]([C@@:2]([O:3][H:11])([C@@:5]([C:4][H:12])([O:6][H:14])[H:13])[H:10])([H:7])([H:8])[H:9]"
C        1.53978326       0.62598150       0.06211324
C        0.54920876      -0.50346187       0.09403654
O       -0.07490776      -0.66283448       1.41079420
C       -1.58766039      -0.42314705       0.54268986
C       -0.75463342      -0.33968228      -0.71151877
O       -0.92516045       0.86970733      -1.41257950
H        1.05444725       1.57985825       0.27251452
H        2.32450817       0.45587091       0.80069052
H        1.99247248       0.69506080      -0.92793342
H        1.02884706      -1.46150825      -0.10785187
H       -0.77638788       0.16963366       1.50735747
H       -2.13094180      -1.34955405       0.71760081
H       -0.88957109      -1.13854449      -1.44321046
H       -1.35000419       1.48262003      -0.80470314
14
Frame=2 idx=003570 GeodesicLength=0.1043935241630959 rxn_smarts="[C:1]([C@@:2]1([H:10])[O:3][C:4]([H:11])([H:12])[C@:5]1([O:6][H:14])[H:13])([H:7])([H:8])[H:9]>>[C:1]([C@@:2]([O:3][H:11])([C@@:5]([C:4][H:12])([O:6][H:14])[H:13])[H:10])([H:7])([H:8])[H:9]"
C        1.53945141       0.62506608       0.06159317
C        0.54884486      -0.50456402       0.09165477
O       -0.08088768      -0.66100873       1.40588699
C       -1.58330618      -0.42899582       0.54502908
C       -0.75500526      -0.34022369      -0.71290117
O       -0.92669537       0.86980210      -1.41199176
H        1.05455086       1.57910381       0.27259395
H        2.32377211       0.45452027       0.80052090
H        1.99299106       0.69494892      -0.92803800
H        1.02910218      -1.46264988      -0.10903884
H       -0.78463281       0.18486301       1.51205566
H       -2.12400592      -1.35755829       0.71788118
H       -0.89176952      -1.13878271      -1.44454070
H       -1.34240973       1.48547896      -0.80070525
14
Frame=3 idx=003570 GeodesicLength=0.156594578056957 rxn_smarts="[C:1]([C@@:2]1([H:10])[O:3][C:4]([H:11])([H:12])[C@:5]1([O:6][H:14])[H:13])([H:7])([H:8])[H:9]>>[C:1]([C@@:2]([O:3][H:11])([C@@:5]([C:4][H:12])([O:6][H:14])[H:13])[H:10])([H:7])([H:8])[H:9]"
C        1.53910051       0.62417093       0.06109154
C        0.54851026      -0.50568975       0.08924616
O       -0.08667768      -0.65926091       1.40099720
C       -1.57891721      -0.43470551       0.54740396
C       -0.75538723      -0.34077166      -0.71424551
O       -0.92820109       0.86985324      -1.41143611
H        1.05459760       1.57832862       0.27278714
H        2.32306994       0.45317372       0.80030942
H        1.99346348       0.69494164      -0.92812928
H        1.02940297      -1.46378939      -0.11032175
H       -0.79314955       0.19987814       1.51670940
H       -2.11706529      -1.36538487       0.71823627
H       -0.89405056      -1.13906117      -1.44577824
H       -1.33469616       1.48831698      -0.79687021
14
Frame=4 idx=003570 GeodesicLength=0.2088006879411288 rxn_smarts="[C:1]([C@@:2]1([H:10])[O:3][C:4]([H:11])([H:12])[C@:5]1([O:6][H:14])[H:13])([H:7])([H:8])[H:9]>>[C:1]([C@@:2]([O:3][H:11])([C@@:5]([C:4][H:12])([O:6][H:14])[H:13])[H:10])([H:7])([H:8])[H:9]"
C        1.53873192       0.62329345       0.06060650
C        0.54820330      -0.50683871       0.08681195
O       -0.09228210      -0.65758506       1.39612769
C       -1.57449607      -0.44028729       0.54981249
C       -0.75577941      -0.34132534      -0.71555245
O       -0.92968095       0.86986552      -1.41090656
H        1.05459233       1.57753148       0.27309348
H        2.32240531       0.45182445       0.80005106
H        1.99388947       0.69503457      -0.92820989
H        1.02974588      -1.46492810      -0.11169764
H       -0.80195480       0.21470730       1.52131223
H       -2.11010632      -1.37305480       0.71866594
H       -0.89641149      -1.13937572      -1.44692752
H       -1.32685708       1.49113826      -0.79318728
14
Frame=5 idx=003570 GeodesicLength=0.26101492367224854 rxn_smarts="[C:1]([C@@:2]1([H:10])[O:3][C:4]([H:11])([H:12])[C@:5]1([O:6][H:14])[H:13])([H:7])([H:8])[H:9]>>[C:1]([C@@:2]([O:3][H:11])([C@@:5]([C:4][H:12])([O:6][H:14])[H:13])[H:10])([H:7])([H:8])[H:9]"
C        1.53834715       0.62243096       0.06013711
C        0.54792281      -0.50801097       0.08435304
O       -0.09770431      -0.65597802       1.39128226
C       -1.57004433      -0.44574974       0.55225338
C       -0.75618211      -0.34188439      -0.71682288
O       -0.93113813       0.86984253      -1.41039889
H        1.05454040       1.57671165       0.27351573
H        2.32178251       0.45046552       0.79974180
H        1.99426821       0.69522693      -0.92828240
H        1.03012737      -1.46606848      -0.11316539
H       -0.81106379       0.22937761       1.52585622
H       -2.10311666      -1.38058478       0.71917147
H       -0.89885076      -1.13972276      -1.44799328
H       -1.31888837       1.49394396      -0.78964818
14
Frame=6 idx=003570 GeodesicLength=0.31323906250717215 rxn_smarts="[C:1]([C@@:2]1([H:10])[O:3][C:4]([H:11])([H:12])[C@:5]1([O:6][H:14])[H:13])([H:7])([H:8])[H:9]>>[C:1]([C@@:2]([O:3][H:11])([C@@:5]([C:4][H:12])([O:6][H:14])[H:13])[H:10])([H:7])([H:8])[H:9]"
C        1.53794814       0.62158040       0.05968171
C        0.54766704      -0.50920540       0.08187105
O       -0.10294891      -0.65443177       1.38645970
C       -1.56556401      -0.45110499       0.55472537
C       -0.75659473      -0.34244932      -0.71805655
O       -0.93257636       0.86978773      -1.40990635
H        1.05444907       1.57586528       0.27405513
H        2.32120734       0.44909056       0.79937350
H        1.99459472       0.69551776      -0.92834920
H        1.03054295      -1.46720991      -0.11471795
H       -0.82049419       0.24391568       1.53033184
H       -2.09608526      -1.38799525       0.71975120
H       -0.90136557      -1.14009882      -1.44897896
H       -1.31078023       1.49673804      -0.78624050
14
Frame=7 idx=003570 GeodesicLength=0.3654646025101044 rxn_smarts="[C:1]([C@@:2]1([H:10])[O:3][C:4]([H:11])([H:12])[C@:5]1([O:6][H:14])[H:13])([H:7])([H:8])[H:9]>>[C:1]([C@@:2]([O:3][H:11])([C@@:5]([C:4][H:12])([O:6][H:14])[H:13])[H:10])([H:7])([H:8])[H:9]"
C        1.53753523       0.62074270       0.05924212
C        0.54744010      -0.51042488       0.07936135
O       -0.10800962      -0.65297038       1.38165965
C       -1.56104967      -0.45634504       0.55723329
C       -0.75701731      -0.34302103      -0.71925159
O       -0.93399362       0.86969747      -1.40942783
H        1.05431184       1.57499228       0.27470949
H        2.32067291       0.44770458       0.79895716
H        1.99487527       0.69591018      -0.92840665
H        1.03100137      -1.46835202      -0.11637350
H       -0.83024089       0.25832671       1.53473936
H       -2.08902651      -1.39526656       0.72040713
H       -0.90395972      -1.14050632      -1.44987839
H       -1.30253938       1.49951232      -0.78297160
14
Frame=8 idx=003570 GeodesicLength=0.4177111078190602 rxn_smarts="[C:1]([C@@:2]1([H:10])[O:3][C:4]([H:11])([H:12])[C@:5]1([O:6][H:14])[H:13])([H:7])([H:8])[H:9]>>[C:1]([C@@:2]([O:3][H:11])([C@@:5]([C:4][H:12])([O:6][H:14])[H:13])[H:10])([H:7])([H:8])[H:9]"
C        1.53710846       0.61991614       0.05881756
C        0.54724129      -0.51166984       0.07682428
O       -0.11288875      -0.65159283       1.37688310
C       -1.55650098      -0.46147871       0.55977887
C       -0.75744994      -0.34360074      -0.72040882
O       -0.93539383       0.86957407      -1.40896323
H        1.05413148       1.57409006       0.27548746
H        2.32018400       0.44629914       0.79848660
H        1.99510501       0.69640747      -0.92845736
H        1.03150103      -1.46949564      -0.11813359
H       -0.84032319       0.27263708       1.53907152
H       -2.08193004      -1.40241387       0.72114473
H       -0.90663160      -1.14094616      -1.45069469
H       -1.29415295       1.50227383      -0.77983643
14
Frame=9 idx=003570 GeodesicLength=0.46997568671275225 rxn_smarts="[C:1]([C@@:2]1([H:10])[O:3][C:4]([H:11])([H:12])[C@:5]1([O:6][H:14])[H:13])([H:7])([H:8])[H:9]>>[C:1]([C@@:2]([O:3][H:11])([C@@:5]([C:4][H:12])([O:6][H:14])[H:13])[H:10])([H:7])([H:8])[H:9]"
C        1.53666950       0.61909843       0.05840528
C        0.54706946      -0.51293948       0.07426119
O       -0.11758907      -0.65029303       1.37213327
C       -1.55191926      -0.46651594       0.56236286
C       -0.75789328      -0.34418700      -0.72152648
O       -0.93678043       0.86942170      -1.40850419
H        1.05391373       1.57315694       0.27638647
H        2.31974340       0.44487009       0.79795667
H        1.99528283       0.69700422      -0.92850483
H        1.03203884      -1.47064057      -0.11999431
H       -0.85076395       0.28686787       1.54331504
H       -2.07478162      -1.40945634       0.72196237
H       -0.90938052      -1.14141221      -1.45143045
H       -1.28560963       1.50502532      -0.77682289
14
Frame=10 idx=003570 GeodesicLength=0.5222445678670056 rxn_smarts="[C:1]([C@@:2]1([H:10])[O:3][C:4]([H:11])([H:12])[C@:5]1([O:6][H:14])[H:13])([H:7])([H:8])[H:9]>>[C:1]([C@@:2]([O:3][H:11])([C@@:5]([C:4][H:12])([O:6][H:14])[H:13])[H:10])([H:7])([H:8])[H:9]"
C        1.53622110       0.61828624       0.05800213
C        0.54692078      -0.51423151       0.07167477
O       -0.12211666      -0.64905642       1.36741122
C       -1.54730906      -0.47147107       0.56497974
C       -0.75834833      -0.34477582      -0.72260408
O       -0.93815920       0.86924786      -1.40804202
H        1.05366863       1.57219284       0.27740163
H        2.31935309       0.44341315       0.79736335
H        1.99541006       0.69768797      -0.92855286
H        1.03260619      -1.47178886      -0.12194634
H       -0.86157881       0.30104459       1.54746203
H       -2.06755962      -1.41642271       0.72285603
H       -0.91220359      -1.14189402      -1.45209021
H       -1.27690458       1.50776777      -0.77391540
14
Frame=11 idx=003570 GeodesicLength=0.5745295782205511 rxn_smarts="[C:1]([C@@:2]1([H:10])[O:3][C:4]([H:11])([H:12])[C@:5]1([O:6][H:14])[H:13])([H:7])([H:8])[H:9]>>[C:1]([C@@:2]([O:3][H:11])([C@@:5]([C:4][H:12])([O:6][H:14])[H:13])[H:10])([H:7])([H:8])[H:9]"
C        1.53576367       0.61748167       0.05761252
C        0.54680242      -0.51554958       0.06905855
O       -0.12645992      -0.64791350       1.36271548
C       -1.54265974      -0.47633208       0.56764085
C       -0.75881358      -0.34537067      -0.72363979
O       -0.93952491       0.86904716      -1.40758056
H        1.05338826       1.57119480       0.27854468
H        2.31901404       0.44192869       0.79671187
H        1.99548743       0.69847224      -0.92859657
H        1.03321575      -1.47293915      -0.12401059
H       -0.87277470       0.31516807       1.55150602
H       -2.06028393      -1.42328437       0.72383601
H       -0.91510894      -1.14239930      -1.45266698
H       -1.26804585       1.51049601      -0.77113149
14
Frame=12 idx=003570 GeodesicLength=0.6268324350686277 rxn_smarts="[C:1]([C@@:2]1([H:10])[O:3][C:4]([H:11])([H:12])[C@:5]1([O:6][H:14])[H:13])([H:7])([H:8])[H:9]>>[C:1]([C@@:2]([O:3][H:11])([C@@:5]([C:4][H:12])([O:6][H:14])[H:13])[H:10])([H:7])([H:8])[H:9]"
C        1.53529852       0.61668530       0.05723921
C        0.54671855      -0.51689582       0.06640887
O       -0.13061247      -0.64688513       1.35804379
C       -1.53796398      -0.48109283       0.57035164
C       -0.75928745      -0.34597259      -0.72463177
O       -0.94087432       0.86881705      -1.40712085
H        1.05306985       1.57016071       0.27982176
H        2.31872638       0.44041688       0.79600594
H        1.99551645       0.69936361      -0.92863269
H        1.03387417      -1.47409109      -0.12620075
H       -0.88435384       0.32924504       1.55544527
H       -2.05296752      -1.43002399       0.72490614
H       -0.91809967      -1.14293020      -1.45315533
H       -1.25904467       1.51320306      -0.76848124
14
Frame=13 idx=003570 GeodesicLength=0.6791410412806427 rxn_smarts="[C:1]([C@@:2]1([H:10])[O:3][C:4]([H:11])([H:12])[C@:5]1([O:6][H:14])[H:13])([H:7])([H:8])[H:9]>>[C:1]([C@@:2]([O:3][H:11])([C@@:5]([C:4][H:12])([O:6][H:14])[H:13])[H:10])([H:7])([H:8])[H:9]"
C        1.53482819       0.61589357       0.05687997
C        0.54666718      -0.51826839       0.06372774
O       -0.13457841      -0.64596095       1.35339677
C       -1.53322458      -0.48576490       0.57311102
C       -0.75977017      -0.34658016      -0.72557869
O       -0.94221078       0.86856256      -1.40665540
H        1.05272154       1.56908548       0.28123468
H        2.31849498       0.43887162       0.79523826
H        1.99549373       0.70035854      -0.92866370
H        1.03457636      -1.47524255      -0.12851288
H       -0.89633587       0.34329717       1.55926487
H       -2.04559709      -1.43666203       0.72606855
H       -0.92117136      -1.14348148      -1.45355809
H       -1.24989372       1.51589153      -0.76595311
14
Frame=14 idx=003570 GeodesicLength=0.7314651572533226 rxn_smarts="[C:1]([C@@:2]1([H:10])[O:3][C:4]([H:11])([H:12])[C@:5]1([O:6][H:14])[H:13])([H:7])([H:8])[H:9]>>[C:1]([C@@:2]([O:3][H:11])([C@@:5]([C:4][H:12])([O:6][H:14])[H:13])[H:10])([H:7])([H:8])[H:9]"
C        1.53435337       0.61510810       0.05653808
C        0.54665369      -0.51967047       0.06101061
O       -0.13834826      -0.64516683       1.34877343
C       -1.52843202      -0.49033945       0.57592669
C       -0.76026032      -0.34719523      -0.72647853
O       -0.94353100       0.86827970      -1.40618659
H        1.05233812       1.56796835       0.28279109
H        2.31832033       0.43729358       0.79441317
H        1.99542065       0.70146611      -0.92868658
H        1.03533130      -1.47639454      -0.13096353
H       -0.90872668       0.35732950       1.56296211
H       -2.03818814      -1.44317671       0.72732722
H       -0.92432996      -1.14405723      -1.45386847
H       -1.24060109       1.51855512      -0.76355870
14
Frame=15 idx=003570 GeodesicLength=0.7837996129068221 rxn_smarts="[C:1]([C@@:2]1([H:10])[O:3][C:4]([H:11])([H:12])[C@:5]1([O:6][H:14])[H:13])([H:7])([H:8])[H:9]>>[C:1]([C@@:2]([O:3][H:11])([C@@:5]([C:4][H:12])([O:6][H:14])[H:13])[H:10])([H:7])([H:8])[H:9]"
C        1.53387550       0.61432889       0.05621535
C        0.54668159      -0.52110322       0.05825490
O       -0.14191588      -0.64452031       1.34417232
C       -1.52358011      -0.49481248       0.57880439
C       -0.76075657      -0.34781812      -0.72732861
O       -0.94483321       0.86796737      -1.40571336
H        1.05191802       1.56680639       0.28449337
H        2.31820335       0.43568378       0.79353259
H        1.99529931       0.70268922      -0.92869799
H        1.03614420      -1.47754556      -0.13356260
H       -0.92153126       0.37134885       1.56653110
H       -2.03075135      -1.44955589       0.72868324
H       -0.92757765      -1.14465793      -1.45408160
H       -1.23117595       1.52118900      -0.76130312
14
Frame=16 idx=003570 GeodesicLength=0.8361405980629263 rxn_smarts="[C:1]([C@@:2]1([H:10])[O:3][C:4]([H:11])([H:12])[C@:5]1([O:6][H:14])[H:13])([H:7])([H:8])[H:9]>>[C:1]([C@@:2]([O:3][H:11])([C@@:5]([C:4][H:12])([O:6][H:14])[H:13])[H:10])([H:7])([H:8])[H:9]"
C        1.53339637       0.61355605       0.05591378
C        0.54675478      -0.52256803       0.05545786
O       -0.14527455      -0.64403986       1.33959217
C       -1.51866227      -0.49917967       0.58175009
C       -0.76125736      -0.34844956      -0.72812647
O       -0.94611489       0.86762415      -1.40523533
H        1.05145980       1.56559655       0.28634585
H        2.31814561       0.43404270       0.79259836
H        1.99513085       0.70403240      -0.92869513
H        1.03702083      -1.47869423      -0.13632141
H       -0.93475553       0.38536199       1.56996576
H       -2.02329950      -1.45578607       0.73013954
H       -0.93091598      -1.14528499      -1.45419276
H       -1.22162817       1.52378857      -0.75919230
