11
Frame=0 idx=000890 GeodesicLength=0.0 rxn_smarts="[N:1](=[C:2]1/[C:3]([H:8])=[C:4]([H:9])[C:5]([H:10])([H:11])[O:6]1)\[H:7]>>[N:1](=[C:2](/[C:3](=[C:4])[H:8])[O:6][C:5]([H:9])([H:10])[H:11])\[H:7]"
N        2.26903647      -0.00201918      -0.07794536
C        1.01762232       0.03578660      -0.11807231
C        0.19225304       1.24061700      -0.30565648
C       -1.12652268       1.22228245      -0.28387315
C       -1.08355893      -0.78079057       0.29788600
O        0.20563015      -1.07286506      -0.03755638
H        2.61374084      -0.94726446       0.06452946
H        0.71616523       2.17227225      -0.47692196
H       -1.79139719       0.25610892      -0.30088600
H       -1.76531109      -1.52086236      -0.12291477
H       -1.24765813      -0.60326556       1.36141100
11
Frame=1 idx=000890 GeodesicLength=0.053450702790963554 rxn_smarts="[N:1](=[C:2]1/[C:3]([H:8])=[C:4]([H:9])[C:5]([H:10])([H:11])[O:6]1)\[H:7]>>[N:1](=[C:2](/[C:3](=[C:4])[H:8])[O:6][C:5]([H:9])([H:10])[H:11])\[H:7]"
N        2.27367421      -0.00266443      -0.08758787
C        1.02168516       0.03439961      -0.12134737
C        0.19834105       1.23996102      -0.31067786
C       -1.11845654       1.21113966      -0.32756263
C       -1.08493496      -0.77352496       0.29731909
O        0.21057714      -1.07133710      -0.02048453
H        2.61823600      -0.94645675       0.06523343
H        0.71986183       2.17672005      -0.46105840
H       -1.82589594       0.26698816      -0.26347090
H       -1.75632171      -1.51782713      -0.13338804
H       -1.25676624      -0.61739814       1.36302508
11
Frame=2 idx=000890 GeodesicLength=0.10673886003108878 rxn_smarts="[N:1](=[C:2]1/[C:3]([H:8])=[C:4]([H:9])[C:5]([H:10])([H:11])[O:6]1)\[H:7]>>[N:1](=[C:2](/[C:3](=[C:4])[H:8])[O:6][C:5]([H:9])([H:10])[H:11])\[H:7]"
N        2.27853880      -0.00189907      -0.09141206
C        1.02597281       0.03397103      -0.11660135
C        0.20395274       1.23936555      -0.31147339
C       -1.10934071       1.19550807      -0.37759601
C       -1.08710391      -0.76644396       0.29724852
O        0.21629689      -1.06912822       0.00357237
H        2.62399910      -0.94675459       0.05272569
H        0.72168516       2.18004322      -0.45064917
H       -1.85636792       0.28143387      -0.22174740
H       -1.74651517      -1.51320298      -0.14814579
H       -1.27111779      -0.63289293       1.36407858
11
Frame=3 idx=000890 GeodesicLength=0.15952686119497372 rxn_smarts="[N:1](=[C:2]1/[C:3]([H:8])=[C:4]([H:9])[C:5]([H:10])([H:11])[O:6]1)\[H:7]>>[N:1](=[C:2](/[C:3](=[C:4])[H:8])[O:6][C:5]([H:9])([H:10])[H:11])\[H:7]"
N        2.28279075      -0.00021411      -0.09172928
C        1.02976692       0.03380410      -0.11137318
C        0.20838088       1.23865332      -0.31229385
C       -1.09998661       1.17774552      -0.42409743
C       -1.08936531      -0.76028168       0.29644754
O        0.22168770      -1.06682703       0.02611976
H        2.62907110      -0.94619404       0.04342929
H        0.72170083       2.18187385      -0.45090111
H       -1.88127802       0.30151498      -0.17193624
H       -1.73778574      -1.50529283      -0.16814431
H       -1.28498251      -0.65478207       1.36447882
11
Frame=4 idx=000890 GeodesicLength=0.21225532085076815 rxn_smarts="[N:1](=[C:2]1/[C:3]([H:8])=[C:4]([H:9])[C:5]([H:10])([H:11])[O:6]1)\[H:7]>>[N:1](=[C:2](/[C:3](=[C:4])[H:8])[O:6][C:5]([H:9])([H:10])[H:11])\[H:7]"
N        2.28632352       0.00111639      -0.09668796
C        1.03283605       0.03376892      -0.10742990
C        0.21167350       1.23793178      -0.31460884
C       -1.09148578       1.16019063      -0.46157804
C       -1.09176086      -0.75516039       0.29481959
O        0.22636894      -1.06463258       0.04504235
H        2.63316993      -0.94348524       0.04677717
H        0.72057340       2.18239325      -0.46126180
H       -1.89954700       0.32614941      -0.11615571
H       -1.73052663      -1.49407629      -0.19283636
H       -1.29762507      -0.68419589       1.36391948
11
Frame=5 idx=000890 GeodesicLength=0.2650651821981267 rxn_smarts="[N:1](=[C:2]1/[C:3]([H:8])=[C:4]([H:9])[C:5]([H:10])([H:11])[O:6]1)\[H:7]>>[N:1](=[C:2](/[C:3](=[C:4])[H:8])[O:6][C:5]([H:9])([H:10])[H:11])\[H:7]"
N        2.28951546       0.00382041      -0.09515887
C        1.03565807       0.03492012      -0.09671151
C        0.21446948       1.23646031      -0.31964240
C       -1.08331364       1.14162238      -0.49530725
C       -1.09488874      -0.75005025       0.29442703
O        0.23115360      -1.06138758       0.07018451
H        2.63719675      -0.94209934       0.03766237
H        0.71854780       2.18215639      -0.47496818
H       -1.91142223       0.35142551      -0.06428005
H       -1.72157391      -1.48225974      -0.21873434
H       -1.31534266      -0.71460821       1.36252870
11
Frame=6 idx=000890 GeodesicLength=0.3180722543823848 rxn_smarts="[N:1](=[C:2]1/[C:3]([H:8])=[C:4]([H:9])[C:5]([H:10])([H:11])[O:6]1)\[H:7]>>[N:1](=[C:2](/[C:3](=[C:4])[H:8])[O:6][C:5]([H:9])([H:10])[H:11])\[H:7]"
N        2.29228469       0.00639343      -0.09452276
C        1.03811944       0.03650297      -0.08526295
C        0.21695635       1.23454035      -0.32766111
C       -1.07612471       1.12367908      -0.52323317
C       -1.09826410      -0.74513403       0.29457183
O        0.23558726      -1.05748342       0.09673715
H        2.64045337      -0.94064700       0.02924319
H        0.71599748       2.18169541      -0.49048545
H       -1.91849567       0.37718151      -0.01437402
H       -1.71175235      -1.46979478      -0.24499908
H       -1.33476175      -0.74693353       1.35998637
11
Frame=7 idx=000890 GeodesicLength=0.37095786045578444 rxn_smarts="[N:1](=[C:2]1/[C:3]([H:8])=[C:4]([H:9])[C:5]([H:10])([H:11])[O:6]1)\[H:7]>>[N:1](=[C:2](/[C:3](=[C:4])[H:8])[O:6][C:5]([H:9])([H:10])[H:11])\[H:7]"
N        2.29425375       0.00799586      -0.09893518
C        1.03986972       0.03724180      -0.08051476
C        0.21902234       1.23227441      -0.33918813
C       -1.07104781       1.10820245      -0.54304115
C       -1.10143119      -0.74063530       0.29418329
O        0.23912021      -1.05379734       0.11795843
H        2.64287695      -0.93747255       0.03562990
H        0.71306415       2.18089002      -0.50878135
H       -1.92127928       0.40393175       0.03845505
H       -1.70305657      -1.45551380      -0.27159410
H       -1.35139227      -0.78311729       1.35582800
11
Frame=8 idx=000890 GeodesicLength=0.4240666049817633 rxn_smarts="[N:1](=[C:2]1/[C:3]([H:8])=[C:4]([H:9])[C:5]([H:10])([H:11])[O:6]1)\[H:7]>>[N:1](=[C:2](/[C:3](=[C:4])[H:8])[O:6][C:5]([H:9])([H:10])[H:11])\[H:7]"
N        2.29606331       0.00977514      -0.10180615
C        1.04159748       0.03903600      -0.07136201
C        0.22115155       1.22965791      -0.35148775
C       -1.06611774       1.09253031      -0.56103594
C       -1.10502175      -0.73598465       0.29488408
O        0.24274842      -1.04856050       0.14525455
H        2.64477277      -0.93567893       0.03310068
H        0.70984107       2.18007303      -0.52655665
H       -1.92107882       0.42962836       0.08650779
H       -1.69145217      -1.44220448      -0.29754779
H       -1.37250413      -0.81827218       1.35004918
11
Frame=9 idx=000890 GeodesicLength=0.4772562186148741 rxn_smarts="[N:1](=[C:2]1/[C:3]([H:8])=[C:4]([H:9])[C:5]([H:10])([H:11])[O:6]1)\[H:7]>>[N:1](=[C:2](/[C:3](=[C:4])[H:8])[O:6][C:5]([H:9])([H:10])[H:11])\[H:7]"
N        2.29734730       0.01092797      -0.10694994
C        1.04285876       0.04030169      -0.06620305
C        0.22304548       1.22675723      -0.36579491
C       -1.06270486       1.07872163      -0.57394039
C       -1.10866273      -0.73157747       0.29537536
O        0.24577971      -1.04301593       0.17049853
H        2.64624404      -0.93303485       0.03804084
H        0.70644365       2.17892368      -0.54613324
H       -1.91771707       0.45547608       0.13621048
H       -1.67980398      -1.42809441      -0.32336812
H       -1.39283030      -0.85538562       1.34226445
11
Frame=10 idx=000890 GeodesicLength=0.5305306829003411 rxn_smarts="[N:1](=[C:2]1/[C:3]([H:8])=[C:4]([H:9])[C:5]([H:10])([H:11])[O:6]1)\[H:7]>>[N:1](=[C:2](/[C:3](=[C:4])[H:8])[O:6][C:5]([H:9])([H:10])[H:11])\[H:7]"
N        2.29834619       0.01171852      -0.11245753
C        1.04397592       0.04196287      -0.06024996
C        0.22488666       1.22351983      -0.38100706
C       -1.05976686       1.06533719      -0.58502523
C       -1.11252268      -0.72713043       0.29637479
O        0.24866075      -1.03606918       0.19912068
H        2.64710761      -0.93117341       0.04011790
H        0.70272021       2.17788710      -0.56467682
H       -1.91213386       0.48051723       0.18357034
H       -1.66590001      -1.41483641      -0.34831417
H       -1.41537394      -0.89173333       1.33254706
11
Frame=11 idx=000890 GeodesicLength=0.5837874432870557 rxn_smarts="[N:1](=[C:2]1/[C:3]([H:8])=[C:4]([H:9])[C:5]([H:10])([H:11])[O:6]1)\[H:7]>>[N:1](=[C:2](/[C:3](=[C:4])[H:8])[O:6][C:5]([H:9])([H:10])[H:11])\[H:7]"
N        2.29886182       0.01190412      -0.11928168
C        1.04464483       0.04315196      -0.05729748
C        0.22645803       1.22003851      -0.39740085
C       -1.05801306       1.05358223      -0.59236526
C       -1.11653854      -0.72286959       0.29717182
O        0.25100228      -1.02842001       0.22701649
H        2.64761081      -0.92876598       0.04690410
H        0.69890828       2.17644929      -0.58455640
H       -1.90392269       0.50523682       0.23220457
H       -1.65140284      -1.40131947      -0.37295408
H       -1.43760891      -0.92898790       1.32055877
11
Frame=12 idx=000890 GeodesicLength=0.6371034009111265 rxn_smarts="[N:1](=[C:2]1/[C:3]([H:8])=[C:4]([H:9])[C:5]([H:10])([H:11])[O:6]1)\[H:7]>>[N:1](=[C:2](/[C:3](=[C:4])[H:8])[O:6][C:5]([H:9])([H:10])[H:11])\[H:7]"
N        2.29903097       0.01147082      -0.12685960
C        1.04520892       0.04491956      -0.05280869
C        0.22794899       1.21623811      -0.41418519
C       -1.05639220       1.04183324      -0.59916994
C       -1.12073052      -0.71855492       0.29841935
O        0.25320589      -1.01865591       0.25956644
H        2.64722692      -0.92766116       0.04931231
H        0.69462353       2.17534300      -0.60225342
H       -1.89417596       0.52894136       0.27805565
H       -1.63376818      -1.38930647      -0.39657869
H       -1.46217836      -0.96456763       1.30650178
11
Frame=13 idx=000890 GeodesicLength=0.6903568271587859 rxn_smarts="[N:1](=[C:2]1/[C:3]([H:8])=[C:4]([H:9])[C:5]([H:10])([H:11])[O:6]1)\[H:7]>>[N:1](=[C:2](/[C:3](=[C:4])[H:8])[O:6][C:5]([H:9])([H:10])[H:11])\[H:7]"
N        2.29865765       0.01010392      -0.13605028
C        1.04532439       0.04621210      -0.05079443
C        0.22911171       1.21212162      -0.43199827
C       -1.05565433       1.03128515      -0.60362515
C       -1.12507172      -0.71437164       0.29944883
O        0.25486008      -1.00766645       0.29225768
H        2.64635627      -0.92636044       0.05506008
H        0.69005362       2.17415671      -0.61949872
H       -1.88233535       0.55201951       0.32435189
H       -1.61503641      -1.37764579      -0.41948756
H       -1.48626591      -0.99985468       1.29033594
11
Frame=14 idx=000890 GeodesicLength=0.7436479115466635 rxn_smarts="[N:1](=[C:2]1/[C:3]([H:8])=[C:4]([H:9])[C:5]([H:10])([H:11])[O:6]1)\[H:7]>>[N:1](=[C:2](/[C:3](=[C:4])[H:8])[O:6][C:5]([H:9])([H:10])[H:11])\[H:7]"
N        2.29776463       0.00790109      -0.14595743
C        1.04516761       0.04785950      -0.04820645
C        0.23003685       1.20787691      -0.44981864
C       -1.05520136       1.02116177      -0.60716398
C       -1.12952034      -0.71026527       0.30051351
O        0.25612596      -0.99442752       0.32798111
H        2.64445007      -0.92615356       0.05869700
H        0.68514849       2.17307509      -0.63564913
H       -1.86922110       0.57405251       0.36906798
H       -1.59358705      -1.36723254      -0.44155407
H       -1.51116375      -1.03384800       1.27209011
11
Frame=15 idx=000890 GeodesicLength=0.7969686904522618 rxn_smarts="[N:1](=[C:2]1/[C:3]([H:8])=[C:4]([H:9])[C:5]([H:10])([H:11])[O:6]1)\[H:7]>>[N:1](=[C:2](/[C:3](=[C:4])[H:8])[O:6][C:5]([H:9])([H:10])[H:11])\[H:7]"
N        2.29615033       0.00458543      -0.15719126
C        1.04454481       0.04953754      -0.04622223
C        0.23056442       1.20372061      -0.46731882
C       -1.05533474       1.01218076      -0.60869899
C       -1.13409446      -0.70634925       0.30123617
O        0.25677028      -0.97937355       0.36449428
H        2.64167515      -0.92623427       0.06387651
H        0.68022762       2.17167526      -0.65252132
H       -1.85466249       0.59501967       0.41382213
H       -1.57038727      -1.35731665      -0.46316221
H       -1.53545366      -1.06744555       1.25168575
11
Frame=16 idx=000890 GeodesicLength=0.8502875007659574 rxn_smarts="[N:1](=[C:2]1/[C:3]([H:8])=[C:4]([H:9])[C:5]([H:10])([H:11])[O:6]1)\[H:7]>>[N:1](=[C:2](/[C:3](=[C:4])[H:8])[O:6][C:5]([H:9])([H:10])[H:11])\[H:7]"
N        2.29388098       0.00045837      -0.16839103
C        1.04352740       0.05152016      -0.04377727
C        0.23075547       1.19959140      -0.48445669
C       -1.05575847       1.00378728      -0.60936931
C       -1.13868966      -0.70257489       0.30173067
O        0.25679080      -0.96241563       0.40188521
H        2.63775308      -0.92725285       0.06813359
H        0.67512286       2.17019568      -0.66909343
H       -1.83917575       0.61474058       0.45741158
H       -1.54540340      -1.34822117      -0.48372822
H       -1.55880329      -1.09982893       1.22965490
