15
Frame=0 idx=011468 GeodesicLength=0.0 rxn_smarts="[C:1]([C@@:2]1([H:11])[N:3]([H:12])[C@:4]1([C:5]([H:13])([H:14])[H:15])[C:6]#[N:7])([H:8])([H:9])[H:10]>>[C:1]([C-:2]1[N+:3]([H:11])([H:12])[C@:4]1([C:5]([H:13])([H:14])[H:15])[C:6]#[N:7])([H:8])([H:9])[H:10]"
C        1.62379006      -0.95351674       0.07507293
C        0.99844029       0.34612785       0.48638153
N        0.18922281       1.04865872      -1.03820895
C       -0.45708880       0.45277994       0.15360894
C       -1.33460968      -0.74991066      -0.13970335
C       -1.17526701       1.43398584       0.97579940
N       -1.76487163       2.20519260       1.58726135
H        1.39803818      -1.64657857       0.89444115
H        1.24547679      -1.40127490      -0.84696336
H        2.70735460      -0.86514584       0.01481610
H        1.25218281       1.21455558      -0.53472863
H       -0.00206236       2.05250473      -0.99698059
H       -0.86369403      -1.40458398      -0.86794744
H       -1.52282015      -1.30844898       0.77854367
H       -2.29409189      -0.42434554      -0.54139276
15
Frame=1 idx=011468 GeodesicLength=0.06789501348616885 rxn_smarts="[C:1]([C@@:2]1([H:11])[N:3]([H:12])[C@:4]1([C:5]([H:13])([H:14])[H:15])[C:6]#[N:7])([H:8])([H:9])[H:10]>>[C:1]([C-:2]1[N+:3]([H:11])([H:12])[C@:4]1([C:5]([H:13])([H:14])[H:15])[C:6]#[N:7])([H:8])([H:9])[H:10]"
C        1.62486024      -0.95312752       0.07779633
C        0.99482256       0.34969637       0.46959248
N        0.19084345       1.04881432      -1.02709265
C       -0.46357626       0.45098107       0.15668924
C       -1.34084405      -0.74968991      -0.14312762
C       -1.17690726       1.43069092       0.98324335
N       -1.76661279       2.19996522       1.59714039
H        1.40922907      -1.63727284       0.90689582
H        1.24417466      -1.41220526      -0.83791619
H        2.70771301      -0.86055431       0.00941664
H        1.27545857       1.21681930      -0.55112727
H       -0.00048161       2.05213831      -0.99655851
H       -0.86697058      -1.40411723      -0.86979836
H       -1.53339335      -1.30948659       0.77342019
H       -2.29831568      -0.42265186      -0.54857386
15
Frame=2 idx=011468 GeodesicLength=0.13576296627992437 rxn_smarts="[C:1]([C@@:2]1([H:11])[N:3]([H:12])[C@:4]1([C:5]([H:13])([H:14])[H:15])[C:6]#[N:7])([H:8])([H:9])[H:10]>>[C:1]([C-:2]1[N+:3]([H:11])([H:12])[C@:4]1([C:5]([H:13])([H:14])[H:15])[C:6]#[N:7])([H:8])([H:9])[H:10]"
C        1.62590261      -0.95252651       0.08084051
C        0.99118905       0.35337096       0.45258715
N        0.19215833       1.04932916      -1.01609267
C       -0.47000717       0.44916033       0.15973969
C       -1.34706148      -0.74938661      -0.14678015
C       -1.17842262       1.42713209       0.99096550
N       -1.76815405       2.19432480       1.60754168
H        1.42045410      -1.62723890       0.91977181
H        1.24290246      -1.42315635      -0.82826605
H        2.70797924      -0.85599180       0.00418857
H        1.29840170       1.21771152      -0.56882620
H        0.00128291       2.05210169      -0.99577786
H       -0.87016734      -1.40346603      -0.87191769
H       -1.54396768      -1.31058373       0.76795540
H       -2.30249006      -0.42078063      -0.55592970
15
Frame=3 idx=011468 GeodesicLength=0.2035936314013574 rxn_smarts="[C:1]([C@@:2]1([H:11])[N:3]([H:12])[C@:4]1([C:5]([H:13])([H:14])[H:15])[C:6]#[N:7])([H:8])([H:9])[H:10]>>[C:1]([C-:2]1[N+:3]([H:11])([H:12])[C@:4]1([C:5]([H:13])([H:14])[H:15])[C:6]#[N:7])([H:8])([H:9])[H:10]"
C        1.62692630      -0.95171612       0.08418382
C        0.98752963       0.35708821       0.43542720
N        0.19318956       1.05018451      -1.00519023
C       -0.47636002       0.44731632       0.16277123
C       -1.35324290      -0.74898793      -0.15064219
C       -1.17980148       1.42329207       0.99896941
N       -1.76950917       2.18833552       1.61833405
H        1.43172135      -1.61653109       0.93297911
H        1.24167196      -1.43408619      -0.81803940
H        2.70816061      -0.85146123      -0.00087631
H        1.32091558       1.21724824      -0.58772054
H        0.00319177       2.05237503      -0.99464062
H       -0.87327538      -1.40262069      -0.87428306
H       -1.55452173      -1.31172452       0.76215886
H       -2.30659608      -0.41871214      -0.56343131
15
Frame=4 idx=011468 GeodesicLength=0.2713871312390606 rxn_smarts="[C:1]([C@@:2]1([H:11])[N:3]([H:12])[C@:4]1([C:5]([H:13])([H:14])[H:15])[C:6]#[N:7])([H:8])([H:9])[H:10]>>[C:1]([C-:2]1[N+:3]([H:11])([H:12])[C@:4]1([C:5]([H:13])([H:14])[H:15])[C:6]#[N:7])([H:8])([H:9])[H:10]"
C        1.62794281      -0.95069400       0.08781526
C        0.98383886       0.36080861       0.41816773
N        0.19396785       1.05136497      -0.99439518
C       -0.48261826       0.44545134       0.16578448
C       -1.35938929      -0.74849434      -0.15471063
C       -1.18103205       1.41917164       1.00725914
N       -1.77066691       2.18203418       1.62948034
H        1.44304982      -1.60517757       0.94647224
H        1.24049002      -1.44497993      -0.80724508
H        2.70826856      -0.84695158      -0.00579228
H        1.34292502       1.21546086      -0.60772474
H        0.00522857       2.05295074      -0.99317769
H       -0.87629952      -1.40159669      -0.87688732
H       -1.56507541      -1.31290460       0.75604080
H       -2.31063008      -0.41644361      -0.57108708
15
Frame=5 idx=011468 GeodesicLength=0.3391404226773142 rxn_smarts="[C:1]([C@@:2]1([H:11])[N:3]([H:12])[C@:4]1([C:5]([H:13])([H:14])[H:15])[C:6]#[N:7])([H:8])([H:9])[H:10]>>[C:1]([C-:2]1[N+:3]([H:11])([H:12])[C@:4]1([C:5]([H:13])([H:14])[H:15])[C:6]#[N:7])([H:8])([H:9])[H:10]"
C        1.62896095      -0.94946079       0.09172349
C        0.98010909       0.36448880       0.40085402
N        0.19451804       1.05285052      -0.98370417
C       -0.48876805       0.44356681       0.16877786
C       -1.36549418      -0.74789525      -0.15898141
C       -1.18210495       1.41476638       1.01582445
N       -1.77162130       2.17543945       1.64093562
H        1.45446432      -1.59320108       0.96020738
H        1.23935671      -1.45582505      -0.79588229
H        2.70830829      -0.84245797      -0.01058018
H        1.36435234       1.21237754      -0.62875241
H        0.00737005       2.05380878      -0.99141045
H       -0.87923694      -1.40039536      -0.87971497
H       -1.57563449      -1.31410489       0.74960289
H       -2.31457988      -0.41395790      -0.57889982
15
Frame=6 idx=011468 GeodesicLength=0.40684998646728393 rxn_smarts="[C:1]([C@@:2]1([H:11])[N:3]([H:12])[C@:4]1([C:5]([H:13])([H:14])[H:15])[C:6]#[N:7])([H:8])([H:9])[H:10]>>[C:1]([C-:2]1[N+:3]([H:11])([H:12])[C@:4]1([C:5]([H:13])([H:14])[H:15])[C:6]#[N:7])([H:8])([H:9])[H:10]"
C        1.62998963      -0.94801712       0.09589617
C        0.97633374       0.36809071       0.38352785
N        0.19486762       1.05462141      -0.97311416
C       -0.49479869       0.44166395       0.17174937
C       -1.37155427      -0.74718407      -0.16345064
C       -1.18301274       1.41007509       1.02465493
N       -1.77236820       2.16857059       1.65266170
H        1.46598873      -1.58062247       0.97414389
H        1.23827112      -1.46661106      -0.78395208
H        2.70828543      -0.83797523      -0.01526240
H        1.38512895       1.20803368      -0.65071709
H        0.00960127       2.05493039      -0.98936132
H       -0.88208732      -1.39902323      -0.88275203
H       -1.58620891      -1.31530932       0.74284943
H       -2.31843634      -0.41124334      -0.58687362
15
Frame=7 idx=011468 GeodesicLength=0.47452014406451615 rxn_smarts="[C:1]([C@@:2]1([H:11])[N:3]([H:12])[C@:4]1([C:5]([H:13])([H:14])[H:15])[C:6]#[N:7])([H:8])([H:9])[H:10]>>[C:1]([C-:2]1[N+:3]([H:11])([H:12])[C@:4]1([C:5]([H:13])([H:14])[H:15])[C:6]#[N:7])([H:8])([H:9])[H:10]"
C        1.63103729      -0.94636466       0.10031863
C        0.97250624       0.37158001       0.36622887
N        0.19504352       1.05665631      -0.96261954
C       -0.50070249       0.43974283       0.17469734
C       -1.37756718      -0.74635613      -0.16811266
C       -1.18374960       1.40509691       1.03373908
N       -1.77290703       2.16144874       1.66461508
H        1.47764523      -1.56746502       0.98823875
H        1.23723226      -1.47732617      -0.77145844
H        2.70820419      -0.83350034      -0.01986256
H        1.40519893       1.20247429      -0.67352972
H        0.01190993       2.05629531      -0.98704950
H       -0.88485155      -1.39748846      -0.88598243
H       -1.59680816      -1.31650209       0.73578763
H       -2.32219158      -0.40829152      -0.59501057
15
Frame=8 idx=011468 GeodesicLength=0.5421468549930543 rxn_smarts="[C:1]([C@@:2]1([H:11])[N:3]([H:12])[C@:4]1([C:5]([H:13])([H:14])[H:15])[C:6]#[N:7])([H:8])([H:9])[H:10]>>[C:1]([C-:2]1[N+:3]([H:11])([H:12])[C@:4]1([C:5]([H:13])([H:14])[H:15])[C:6]#[N:7])([H:8])([H:9])[H:10]"
C        1.63211194      -0.94450484       0.10497677
C        0.96862169       0.37492681       0.34899091
N        0.19507217       1.05893613      -0.95221268
C       -0.50647415       0.43780373       0.17761997
C       -1.38353149      -0.74540791      -0.17296245
C       -1.18431119       1.39983182       1.04306542
N       -1.77324123       2.15409208       1.67675695
H        1.48945531      -1.55374696       1.00245382
H        1.23623768      -1.48796015      -0.75840400
H        2.70806857      -0.82903136      -0.02440440
H        1.42451098       1.19573993      -0.69711003
H        0.01429114       2.05788521      -0.98448990
H       -0.88753095      -1.39579940      -0.88939208
H       -1.60744122      -1.31766940       0.72842386
H       -2.32583926      -0.40509567      -0.60331216
15
Frame=9 idx=011468 GeodesicLength=0.6097301176008068 rxn_smarts="[C:1]([C@@:2]1([H:11])[N:3]([H:12])[C@:4]1([C:5]([H:13])([H:14])[H:15])[C:6]#[N:7])([H:8])([H:9])[H:10]>>[C:1]([C-:2]1[N+:3]([H:11])([H:12])[C@:4]1([C:5]([H:13])([H:14])[H:15])[C:6]#[N:7])([H:8])([H:9])[H:10]"
C        1.63322087      -0.94243878       0.10985718
C        0.96467526       0.37810616       0.33184319
N        0.19497867       1.06144219      -0.94188595
C       -0.51211107       0.43584670       0.18051467
C       -1.38944725      -0.74433743      -0.17799556
C       -1.18469524       1.39428052       1.05262079
N       -1.77337391       2.14651454       1.68905532
H        1.50143910      -1.53948352       1.01675494
H        1.23528383      -1.49850356      -0.74479026
H        2.70788167      -0.82456704      -0.02891105
H        1.44302404       1.18787270      -0.72138384
H        0.01674453       2.05968333      -0.98169590
H       -0.89012806      -1.39396589      -0.89296749
H       -1.61811797      -1.31879829       0.72076497
H       -2.32937446      -0.40165163      -0.61178100
15
Frame=10 idx=011468 GeodesicLength=0.677272905307624 rxn_smarts="[C:1]([C@@:2]1([H:11])[N:3]([H:12])[C@:4]1([C:5]([H:13])([H:14])[H:15])[C:6]#[N:7])([H:8])([H:9])[H:10]>>[C:1]([C-:2]1[N+:3]([H:11])([H:12])[C@:4]1([C:5]([H:13])([H:14])[H:15])[C:6]#[N:7])([H:8])([H:9])[H:10]"
C        1.63437321      -0.94016448       0.11494879
C        0.96066862       0.38110226       0.31481242
N        0.19479594       1.06416154      -0.93163837
C       -0.51761337       0.43387215       0.18338033
C       -1.39532512      -0.74315264      -0.18321057
C       -1.18490195       1.38844797       1.06240109
N       -1.77331046       2.13873251       1.70149961
H        1.51361514      -1.52468265       1.03112305
H        1.23436382      -1.50895246      -0.73062205
H        2.70765438      -0.82009983      -0.03340745
H        1.46071549       1.17891947      -0.74629109
H        0.01928808       2.06168226      -0.97868668
H       -0.89265480      -1.39200963      -0.89670502
H       -1.62886473      -1.31988842       0.71282233
H       -2.33280425      -0.39796803      -0.62042640
15
Frame=11 idx=011468 GeodesicLength=0.7448062629954111 rxn_smarts="[C:1]([C@@:2]1([H:11])[N:3]([H:12])[C@:4]1([C:5]([H:13])([H:14])[H:15])[C:6]#[N:7])([H:8])([H:9])[H:10]>>[C:1]([C-:2]1[N+:3]([H:11])([H:12])[C@:4]1([C:5]([H:13])([H:14])[H:15])[C:6]#[N:7])([H:8])([H:9])[H:10]"
C        1.63556368      -0.93769295       0.12022611
C        0.95658082       0.38388439       0.29792503
N        0.19451540       1.06705262      -0.92143380
C       -0.52298388       0.43187712       0.18620702
C       -1.40113088      -0.74182283      -0.18858946
C       -1.18493799       1.38232344       1.07235284
N       -1.77305536       2.13074285       1.71399853
H        1.52598928      -1.50937589       1.04546960
H        1.23348947      -1.51927513      -0.71589163
H        2.70735054      -0.81566223      -0.03791015
H        1.47754906       1.16892260      -0.77173730
H        0.02186886       2.06382248      -0.97543492
H       -0.89507688      -1.38990343      -0.90054887
H       -1.63963452      -1.32088222       0.70459215
H       -2.33608758      -0.39401081      -0.62922516
15
Frame=12 idx=011468 GeodesicLength=0.8122634988978079 rxn_smarts="[C:1]([C@@:2]1([H:11])[N:3]([H:12])[C@:4]1([C:5]([H:13])([H:14])[H:15])[C:6]#[N:7])([H:8])([H:9])[H:10]>>[C:1]([C-:2]1[N+:3]([H:11])([H:12])[C@:4]1([C:5]([H:13])([H:14])[H:15])[C:6]#[N:7])([H:8])([H:9])[H:10]"
C        1.63680894      -0.93500560       0.12570998
C        0.95242302       0.38645917       0.28117240
N        0.19418474       1.07013111      -0.91130187
C       -0.52822478       0.42986951       0.18898623
C       -1.40690487      -0.74036940      -0.19416332
C       -1.18480065       1.37592559       1.08248793
N       -1.77259387       2.12249763       1.72668905
H        1.53861760      -1.49349313       1.05987532
H        1.23262439      -1.52951204      -0.70055225
H        2.70700371      -0.81121973      -0.04245624
H        1.49348086       1.15786346      -0.79774488
H        0.02457575       2.06614812      -0.97198878
H       -0.89743177      -1.38769391      -0.90454150
H       -1.65051098      -1.32180291       0.69606876
H       -2.33925210      -0.38979788      -0.63824082
15
Frame=13 idx=011468 GeodesicLength=0.8797182010156023 rxn_smarts="[C:1]([C@@:2]1([H:11])[N:3]([H:12])[C@:4]1([C:5]([H:13])([H:14])[H:15])[C:6]#[N:7])([H:8])([H:9])[H:10]>>[C:1]([C-:2]1[N+:3]([H:11])([H:12])[C@:4]1([C:5]([H:13])([H:14])[H:15])[C:6]#[N:7])([H:8])([H:9])[H:10]"
C        1.63810962      -0.93211606       0.13135890
C        0.94818875       0.38880322       0.26460020
N        0.19381214       1.07335874      -0.90120212
C       -0.53334081       0.42783834       0.19173063
C       -1.41263115      -0.73879252      -0.19989720
C       -1.18449812       1.36923920       1.09279384
N       -1.77195129       2.11408079       1.73941229
H        1.55147601      -1.47711617       1.07422603
H        1.23179757      -1.53960395      -0.68466592
H        2.70660306      -0.80679349      -0.04704077
H        1.50853215       1.14583829      -0.82420500
H        0.02736640       2.06860721      -0.96832452
H       -0.89971210      -1.38537586      -0.90863930
H       -1.66146549      -1.32263363       0.68727981
H       -2.34228676      -0.38533411      -0.64742687
15
Frame=14 idx=011468 GeodesicLength=0.9471563198079036 rxn_smarts="[C:1]([C@@:2]1([H:11])[N:3]([H:12])[C@:4]1([C:5]([H:13])([H:14])[H:15])[C:6]#[N:7])([H:8])([H:9])[H:10]>>[C:1]([C-:2]1[N+:3]([H:11])([H:12])[C@:4]1([C:5]([H:13])([H:14])[H:15])[C:6]#[N:7])([H:8])([H:9])[H:10]"
C        1.63946948      -0.92900889       0.13719544
C        0.94388051       0.39092974       0.24819893
N        0.19342122       1.07674136      -0.89115441
C       -0.53834114       0.42579095       0.19441974
C       -1.41832883      -0.73709536      -0.20582385
C       -1.18404100       1.36227605       1.10324911
N       -1.77109333       2.10541262       1.75230799
H        1.56461131      -1.46016418       1.08858960
H        1.23097157      -1.54959510      -0.66815371
H        2.70614663      -0.80237394      -0.05170663
H        1.52267999       1.13283484      -0.85115764
H        0.03029472       2.07121905      -0.96446114
H       -0.90192521      -1.38297410      -0.91286144
H       -1.67254926      -1.32337240       0.67820198
H       -2.34519665      -0.38062066      -0.65684397
15
Frame=15 idx=011468 GeodesicLength=1.014567954872636 rxn_smarts="[C:1]([C@@:2]1([H:11])[N:3]([H:12])[C@:4]1([C:5]([H:13])([H:14])[H:15])[C:6]#[N:7])([H:8])([H:9])[H:10]>>[C:1]([C-:2]1[N+:3]([H:11])([H:12])[C@:4]1([C:5]([H:13])([H:14])[H:15])[C:6]#[N:7])([H:8])([H:9])[H:10]"
C        1.64088831      -0.92567311       0.14323134
C        0.93947297       0.39282148       0.23194173
N        0.19299551       1.08025407      -0.88113766
C       -0.54323430       0.42373143       0.19702619
C       -1.42397737      -0.73523186      -0.21196727
C       -1.18344104       1.35502665       1.11379281
N       -1.77000078       2.09637479       1.76544325
H        1.57809598      -1.44253223       1.10296933
H        1.23012395      -1.55949777      -0.65089060
H        2.70559807      -0.79799442      -0.05650575
H        1.53584691       1.11876439      -0.87860011
H        0.03335746       2.07395553      -0.96037000
H       -0.90403756      -1.38045185      -0.91718819
H       -1.68374832      -1.32394944       0.66877992
H       -2.34793978      -0.37559770      -0.66652502
15
Frame=16 idx=011468 GeodesicLength=1.0819894440246705 rxn_smarts="[C:1]([C@@:2]1([H:11])[N:3]([H:12])[C@:4]1([C:5]([H:13])([H:14])[H:15])[C:6]#[N:7])([H:8])([H:9])[H:10]>>[C:1]([C-:2]1[N+:3]([H:11])([H:12])[C@:4]1([C:5]([H:13])([H:14])[H:15])[C:6]#[N:7])([H:8])([H:9])[H:10]"
C        1.64237104      -0.92209993       0.14946701
C        0.93498301       0.39449779       0.21585059
N        0.19257378       1.08390359      -0.87116493
C       -0.54802849       0.42166114       0.19955019
C       -1.42960409      -0.73323332      -0.21833267
C       -1.18270630       1.34749996       1.12443614
N       -1.76866817       2.08697562       1.77885871
H        1.59192334      -1.42422081       1.11737492
H        1.22924273      -1.56930842      -0.63288397
H        2.70496964      -0.79364442      -0.06144521
H        1.54806569       1.10368810      -0.90654870
H        0.03660888       2.07683726      -0.95606907
H       -0.90607666      -1.37785594      -0.92163068
H       -1.69511227      -1.32439407       0.65903544
H       -2.35054211      -0.37030655      -0.67649779
