14
Frame=0 idx=006280 GeodesicLength=0.0 rxn_smarts="[C:1]([C@@:2]1([H:10])[C:3]([H:11])([H:12])[O:4][C:5]([H:13])([H:14])[O:6]1)([H:7])([H:8])[H:9]>>[C:1](/[C:2](=[C:3](/[O:4][C:5]([O:6][H:12])([H:13])[H:14])[H:11])[H:10])([H:7])([H:8])[H:9]"
C       -1.89889369      -0.36059930       0.59133046
C       -0.42369137      -0.27964496       0.60373031
C        0.38694735      -0.90615955      -0.37393799
O        1.68919116      -0.60551454      -0.38375645
C        1.77025190       0.99335845      -0.44225253
O        0.57392304       1.49294234      -0.53168530
H       -2.23703368      -0.74327392       1.55804107
H       -2.32625028       0.63836104       0.47975627
H       -2.27394721      -1.00246762      -0.20589354
H        0.04169964       0.30105339       1.38921909
H        0.07024127      -1.84108185      -0.83412362
H       -0.11328057      -0.01804582      -1.00467782
H        2.33256973       1.21043886       0.48056984
H        2.40827276       1.12063352      -1.32631973
14
Frame=1 idx=006280 GeodesicLength=0.1011667575359315 rxn_smarts="[C:1]([C@@:2]1([H:10])[C:3]([H:11])([H:12])[O:4][C:5]([H:13])([H:14])[O:6]1)([H:7])([H:8])[H:9]>>[C:1](/[C:2](=[C:3](/[O:4][C:5]([O:6][H:12])([H:13])[H:14])[H:11])[H:10])([H:7])([H:8])[H:9]"
C       -1.89783907      -0.35673623       0.59548877
C       -0.42204554      -0.26283711       0.59149769
C        0.38289257      -0.90566184      -0.38135682
O        1.68879222      -0.60300439      -0.39326357
C        1.77129905       0.98352785      -0.43978732
O        0.56925938       1.48337364      -0.54375562
H       -2.22261464      -0.75811831       1.55916578
H       -2.33607740       0.63931991       0.50228337
H       -2.27883453      -0.99057427      -0.20539755
H        0.04243260       0.30622577       1.38631861
H        0.07681724      -1.85956943      -0.80736831
H       -0.10777386      -0.00467240      -1.04479192
H        2.31365836       1.20254181       0.49398583
H        2.42003363       1.12618501      -1.31301893
14
Frame=2 idx=006280 GeodesicLength=0.2022152713555207 rxn_smarts="[C:1]([C@@:2]1([H:10])[C:3]([H:11])([H:12])[O:4][C:5]([H:13])([H:14])[O:6]1)([H:7])([H:8])[H:9]>>[C:1](/[C:2](=[C:3](/[O:4][C:5]([O:6][H:12])([H:13])[H:14])[H:11])[H:10])([H:7])([H:8])[H:9]"
C       -1.89669914      -0.35284863       0.59956950
C       -0.42050501      -0.24650083       0.57941736
C        0.37863969      -0.90529630      -0.38872420
O        1.68824022      -0.60059097      -0.40256824
C        1.77208003       0.97367361      -0.43737830
O        0.56444938       1.47384962      -0.55560816
H       -2.20822517      -0.77320265       1.55949781
H       -2.34516538       0.64018420       0.52540569
H       -2.28384691      -0.97798902      -0.20526459
H        0.04297110       0.31101442       1.38332961
H        0.08390483      -1.87730343      -0.77925222
H       -0.10147036       0.00894649      -1.08541941
H        2.29467690       1.19452165       0.50671038
H        2.43094983       1.13154182      -1.29971523
14
Frame=3 idx=006280 GeodesicLength=0.3032070922560951 rxn_smarts="[C:1]([C@@:2]1([H:10])[C:3]([H:11])([H:12])[O:4][C:5]([H:13])([H:14])[O:6]1)([H:7])([H:8])[H:9]>>[C:1](/[C:2](=[C:3](/[O:4][C:5]([O:6][H:12])([H:13])[H:14])[H:11])[H:10])([H:7])([H:8])[H:9]"
C       -1.89547995      -0.34894495       0.60358372
C       -0.41905357      -0.23067829       0.56752585
C        0.37417522      -0.90509404      -0.39605561
O        1.68751998      -0.59828422      -0.41170890
C        1.77257977       0.96378658      -0.43502696
O        0.55945699       1.46433934      -0.56724084
H       -2.19391590      -0.78848207       1.55904061
H       -2.35348681       0.64093796       0.54906102
H       -2.28899081      -0.96473986      -0.20543621
H        0.04333974       0.31541000       1.38027061
H        0.09152457      -1.89420414      -0.74977139
H       -0.09431107       0.02287100      -1.12658924
H        2.27562327       1.18636492       0.51876958
H        2.44101856       1.13671776      -1.28642224
14
Frame=4 idx=006280 GeodesicLength=0.40420088759571043 rxn_smarts="[C:1]([C@@:2]1([H:10])[C:3]([H:11])([H:12])[O:4][C:5]([H:13])([H:14])[O:6]1)([H:7])([H:8])[H:9]>>[C:1](/[C:2](=[C:3](/[O:4][C:5]([O:6][H:12])([H:13])[H:14])[H:11])[H:10])([H:7])([H:8])[H:9]"
C       -1.89418678      -0.34503814       0.60754896
C       -0.41767416      -0.21540957       0.55586918
C        0.36949897      -0.90509541      -0.40333756
O        1.68662561      -0.59609484      -0.42070655
C        1.77278569       0.95385661      -0.43273263
O        0.55424982       1.45480239      -0.57865574
H       -2.17974902      -0.80388299       1.55782264
H       -2.36102032       0.64155783       0.57316196
H       -2.29426242      -0.95088182      -0.20583488
H        0.04355967       0.31941642       1.37716769
H        0.09967396      -1.91016778      -0.71901643
H       -0.08622673       0.03715055      -1.16832159
H        2.25649626       1.17806720       0.53018662
H        2.45022946       1.14171955      -1.27315167
14
Frame=5 idx=006280 GeodesicLength=0.5052349180772602 rxn_smarts="[C:1]([C@@:2]1([H:10])[C:3]([H:11])([H:12])[O:4][C:5]([H:13])([H:14])[O:6]1)([H:7])([H:8])[H:9]>>[C:1](/[C:2](=[C:3](/[O:4][C:5]([O:6][H:12])([H:13])[H:14])[H:11])[H:10])([H:7])([H:8])[H:9]"
C       -1.89282882      -0.34114052       0.61148379
C       -0.41635291      -0.20072758       0.54448798
C        0.36460553      -0.90533974      -0.41055858
O        1.68554943      -0.59403527      -0.42957755
C        1.77268416       0.94387113      -0.43049988
O        0.54878642       1.44519724      -0.58987220
H       -2.16578279      -0.81937094       1.55585835
H       -2.36775802       0.64202887       0.59766707
H       -2.29966274      -0.93643989      -0.20640162
H        0.04364979       0.32304043       1.37404381
H        0.10836119      -1.92508257      -0.68704992
H       -0.07713439       0.05182175      -1.21064692
H        2.23729211       1.16963060       0.54098093
H        2.45859104       1.14654650      -1.25991526
14
Frame=6 idx=006280 GeodesicLength=0.6063413347433225 rxn_smarts="[C:1]([C@@:2]1([H:10])[C:3]([H:11])([H:12])[O:4][C:5]([H:13])([H:14])[O:6]1)([H:7])([H:8])[H:9]>>[C:1](/[C:2](=[C:3](/[O:4][C:5]([O:6][H:12])([H:13])[H:14])[H:11])[H:10])([H:7])([H:8])[H:9]"
C       -1.89141312      -0.33726871       0.61541945
C       -0.41507431      -0.18666164       0.53343473
C        0.35950797      -0.90587294      -0.41766892
O        1.68429615      -0.59211821      -0.43831465
C        1.77226606       0.93381857      -0.42832777
O        0.54303670       1.43546720      -0.60091390
H       -2.15207773      -0.83487132       1.55320683
H       -2.37369668       0.64232852       0.62248362
H       -2.30518025      -0.92148318      -0.20705127
H        0.04362364       0.32630990       1.37093133
H        0.11754778      -1.93882309      -0.65407188
H       -0.06693819       0.06691047      -1.25357931
H        2.21800351       1.16106992       0.55117065
H        2.46609847       1.15119450      -1.24671891
14
Frame=7 idx=006280 GeodesicLength=0.7075872862688061 rxn_smarts="[C:1]([C@@:2]1([H:10])[C:3]([H:11])([H:12])[O:4][C:5]([H:13])([H:14])[O:6]1)([H:7])([H:8])[H:9]>>[C:1](/[C:2](=[C:3](/[O:4][C:5]([O:6][H:12])([H:13])[H:14])[H:11])[H:10])([H:7])([H:8])[H:9]"
C       -1.88994764      -0.33343709       0.61938644
C       -0.41382562      -0.17323489       0.52276586
C        0.35422511      -0.90674339      -0.42459611
O        1.68287310      -0.59035579      -0.44690644
C        1.77151972       0.92368889      -0.42621753
O        0.53696402       1.42555170      -0.61181706
H       -2.13869594      -0.85033085       1.54991991
H       -2.37883975       0.64243621       0.64755074
H       -2.31079722      -0.90606226      -0.20770898
H        0.04349151       0.32926667       1.36786497
H        0.12718135      -1.95129323      -0.62029775
H       -0.05552591       0.08244498      -1.29714396
H        2.19862062       1.15241220       0.56077117
H        2.47275665       1.15565686      -1.23357127
14
Frame=8 idx=006280 GeodesicLength=0.8089366777671916 rxn_smarts="[C:1]([C@@:2]1([H:10])[C:3]([H:11])([H:12])[O:4][C:5]([H:13])([H:14])[O:6]1)([H:7])([H:8])[H:9]>>[C:1](/[C:2](=[C:3](/[O:4][C:5]([O:6][H:12])([H:13])[H:14])[H:11])[H:10])([H:7])([H:8])[H:9]"
C       -1.88844116      -0.32966043       0.62342206
C       -0.41259738      -0.16046073       0.51252894
C        0.34877214      -0.90798583      -0.43127991
O        1.68128832      -0.58875947      -0.45532797
C        1.77044014       0.91347439      -0.42416975
O        0.53053962       1.41539110      -0.62262944
H       -2.12568763      -0.86569915       1.54606426
H       -2.38321152       0.64233035       0.67281732
H       -2.31650355      -0.89023576      -0.20829777
H        0.04325953       0.33196293       1.36487351
H        0.13719713      -1.96240245      -0.58597448
H       -0.04276726       0.09843044      -1.34135132
H        2.17913337       1.14369176       0.56979886
H        2.47857825       1.15992286      -1.22047430
14
Frame=9 idx=006280 GeodesicLength=0.9101790238286709 rxn_smarts="[C:1]([C@@:2]1([H:10])[C:3]([H:11])([H:12])[O:4][C:5]([H:13])([H:14])[O:6]1)([H:7])([H:8])[H:9]>>[C:1](/[C:2](=[C:3](/[O:4][C:5]([O:6][H:12])([H:13])[H:14])[H:11])[H:10])([H:7])([H:8])[H:9]"
C       -1.88690057      -0.32595952       0.62760353
C       -0.41139110      -0.14832326       0.50275982
C        0.34313670      -0.90954684      -0.43772361
O        1.67953699      -0.58731717      -0.46355220
C        1.76903086       0.90319145      -0.42216734
O        0.52374206       1.40489466      -0.63352415
H       -2.11305801      -0.88092102       1.54176005
H       -2.38688768       0.64195583       0.69831367
H       -2.32228705      -0.87406742      -0.20868723
H        0.04292733       0.33451157       1.36193775
H        0.14741986      -1.97222068      -0.55146166
H       -0.02842528       0.11483034      -1.38623328
H        2.15945721       1.13498188       0.57831443
H        2.48369868       1.16399019      -1.20733978
14
Frame=10 idx=006280 GeodesicLength=1.0115342904755729 rxn_smarts="[C:1]([C@@:2]1([H:10])[C:3]([H:11])([H:12])[O:4][C:5]([H:13])([H:14])[O:6]1)([H:7])([H:8])[H:9]>>[C:1](/[C:2](=[C:3](/[O:4][C:5]([O:6][H:12])([H:13])[H:14])[H:11])[H:10])([H:7])([H:8])[H:9]"
C       -1.88533839      -0.32234038       0.63192495
C       -0.41019206      -0.13684606       0.49350683
C        0.33736335      -0.91152461      -0.44380095
O        1.67764053      -0.58605709      -0.47156032
C        1.76727642       0.89281602      -0.42023141
O        0.51653897       1.39402360      -0.64443890
H       -2.10088055      -0.89600312       1.53701221
H       -2.38984867       0.64134187       0.72394903
H       -2.32813612      -0.85757581      -0.20888245
H        0.04250080       0.33692001       1.35912773
H        0.15787461      -1.98065460      -0.51684449
H       -0.01245242       0.13176481      -1.43177875
H        2.13964896       1.12628764       0.58628022
H        2.48800457       1.16784772      -1.19426368
14
Frame=11 idx=006280 GeodesicLength=1.1129694923459061 rxn_smarts="[C:1]([C@@:2]1([H:10])[C:3]([H:11])([H:12])[O:4][C:5]([H:13])([H:14])[O:6]1)([H:7])([H:8])[H:9]>>[C:1](/[C:2](=[C:3](/[O:4][C:5]([O:6][H:12])([H:13])[H:14])[H:11])[H:10])([H:7])([H:8])[H:9]"
C       -1.88376739      -0.31881807       0.63642583
C       -0.40900085      -0.12602532       0.48479922
C        0.33146163      -0.91392878      -0.44946160
O        1.67560132      -0.58498422      -0.47933669
C        1.76517356       0.88234906      -0.41836036
O        0.50890834       1.38271521      -0.65543638
H       -2.08918338      -0.91092072       1.53189532
H       -2.39213651       0.64047292       0.74970279
H       -2.33404022      -0.84080435      -0.20881283
H        0.04197852       0.33925472       1.35646112
H        0.16848021      -1.98774712      -0.48233648
H        0.00531419       0.14929332      -1.47800495
H        2.11969283       1.11764854       0.59371321
H        2.49151774       1.17149480      -1.18124820
14
Frame=12 idx=006280 GeodesicLength=1.2144489492422028 rxn_smarts="[C:1]([C@@:2]1([H:10])[C:3]([H:11])([H:12])[O:4][C:5]([H:13])([H:14])[O:6]1)([H:7])([H:8])[H:9]>>[C:1](/[C:2](=[C:3](/[O:4][C:5]([O:6][H:12])([H:13])[H:14])[H:11])[H:10])([H:7])([H:8])[H:9]"
C       -1.88219832      -0.31540695       0.64113884
C       -0.40781951      -0.11585090       0.47665563
C        0.32544162      -0.91677058      -0.45465655
O        1.67342029      -0.58410311      -0.48687741
C        1.76272183       0.87179074      -0.41655673
O        0.50083664       1.37091697      -0.66656271
H       -2.07798897      -0.92564451       1.52648396
H       -2.39379356       0.63933876       0.77554262
H       -2.33998942      -0.82380795      -0.20841755
H        0.04136029       0.34157275       1.35395386
H        0.17916269      -1.99357329      -0.44811079
H        0.02501991       0.16750762      -1.52491812
H        2.09958268       1.10909423       0.60062272
H        2.49424384       1.17493622      -1.16829777
14
Frame=13 idx=006280 GeodesicLength=1.3159127569837803 rxn_smarts="[C:1]([C@@:2]1([H:10])[C:3]([H:11])([H:12])[O:4][C:5]([H:13])([H:14])[O:6]1)([H:7])([H:8])[H:9]>>[C:1](/[C:2](=[C:3](/[O:4][C:5]([O:6][H:12])([H:13])[H:14])[H:11])[H:10])([H:7])([H:8])[H:9]"
C       -1.88064547      -0.31211738       0.64609444
C       -0.40665580      -0.10630774       0.46908474
C        0.31930251      -0.92005677      -0.45935067
O        1.67109146      -0.58341780      -0.49418307
C        1.75991587       0.86114029      -0.41482644
O        0.49230508       1.35856816      -0.67788324
H       -2.06731124      -0.94018698       1.52082844
H       -2.39486977       0.63793062       0.80149645
H       -2.34598340      -0.80660335      -0.20765569
H        0.04064214       0.34393087       1.35161114
H        0.18986438      -1.99821159      -0.41427743
H        0.04683913       0.18650000      -1.57253150
H        2.07930442       1.10065657       0.60701323
H        2.49620069       1.17817508      -1.15542040
14
Frame=14 idx=006280 GeodesicLength=1.4173588527672214 rxn_smarts="[C:1]([C@@:2]1([H:10])[C:3]([H:11])([H:12])[O:4][C:5]([H:13])([H:14])[O:6]1)([H:7])([H:8])[H:9]>>[C:1](/[C:2](=[C:3](/[O:4][C:5]([O:6][H:12])([H:13])[H:14])[H:11])[H:10])([H:7])([H:8])[H:9]"
C       -1.87912373      -0.30896596       0.65132304
C       -0.40552306      -0.09737818       0.46207945
C        0.31304109      -0.92380235      -0.46351088
O        1.66859833      -0.58293570      -0.50129339
C        1.75675446       0.85039225      -0.41317670
O        0.48330625       1.34561012      -0.68946069
H       -2.05715461      -0.95451129       1.51501716
H       -2.39542063       0.63623097       0.82752488
H       -2.35202156      -0.78926896      -0.20645384
H        0.03981719       0.34638227       1.34942587
H        0.20053194      -2.00178193      -0.38092012
H        0.07094081       0.20646804      -1.62083546
H        2.05884799       1.09233887       0.61289077
H        2.49740552       1.18122184      -1.14261009
14
Frame=15 idx=006280 GeodesicLength=1.5187685931119366 rxn_smarts="[C:1]([C@@:2]1([H:10])[C:3]([H:11])([H:12])[O:4][C:5]([H:13])([H:14])[O:6]1)([H:7])([H:8])[H:9]>>[C:1](/[C:2](=[C:3](/[O:4][C:5]([O:6][H:12])([H:13])[H:14])[H:11])[H:10])([H:7])([H:8])[H:9]"
C       -1.87764648      -0.30596881       0.65685275
C       -0.40443546      -0.08904568       0.45562771
C        0.30665103      -0.92802678      -0.46710641
O        1.66592191      -0.58266518      -0.50825571
C        1.75323258       0.83953762      -0.41161809
O        0.47383123       1.33197867      -0.70136095
H       -2.04752069      -0.96857954       1.50914069
H       -2.39550049       0.63422984       0.85358823
H       -2.35810330      -0.77188951      -0.20474443
H        0.03887874       0.34897659       1.34738592
H        0.21112127      -2.00441210      -0.34809330
H        0.09749856       0.22763993      -1.66980856
H        2.03820133       1.08414037       0.61825599
H        2.49786977       1.18408460      -1.12986384
14
Frame=16 idx=006280 GeodesicLength=1.6201005451472104 rxn_smarts="[C:1]([C@@:2]1([H:10])[C:3]([H:11])([H:12])[O:4][C:5]([H:13])([H:14])[O:6]1)([H:7])([H:8])[H:9]>>[C:1](/[C:2](=[C:3](/[O:4][C:5]([O:6][H:12])([H:13])[H:14])[H:11])[H:10])([H:7])([H:8])[H:9]"
C       -1.87623039      -0.30314155       0.66270745
C       -0.40341408      -0.08129122       0.44970146
C        0.30011565      -0.93275511      -0.47011772
O        1.66303212      -0.58261954      -0.51513583
C        1.74934113       0.82856068      -0.41017092
O        0.46386974       1.31759739      -0.71367182
H       -2.03840313      -0.98238084       1.50327086
H       -2.39516545       0.63191486       0.87968639
H       -2.36424084      -0.75452750      -0.20247417
H        0.03781437       0.35176510       1.34546323
H        0.22161587      -2.00622223      -0.31577346
H        0.12670895       0.25028097      -1.71940657
H        2.01734415       1.07605134       0.62309957
H        2.49761191       1.18676766      -1.11717847
