11
Frame=0 idx=002074 GeodesicLength=0.0 rxn_smarts="[C:1]([c:2]1[c:3]([H:10])[o:4][c:5]([H:11])[n:6]1)([H:7])([H:8])[H:9]>>[C:1]([C:2]#[C:3][H:10])([H:7])([H:8])[H:9].[O:4]=[C:5]=[N:6][H:11]"
C       -1.82080647      -0.47865779      -0.12513677
C       -0.71682399       0.41922693       0.19920975
C       -0.00620118       1.33867098       0.54561444
O        2.72550330       0.77317233       0.22364806
C        2.06389717      -0.16288212      -0.14312619
N        0.92220603      -0.68048336      -0.32044745
H       -1.72693923      -1.40450973       0.44143949
H       -1.79863546      -0.72510142      -1.18629625
H       -2.77080356      -0.00272082       0.11567858
H        0.67858043       2.10539562       0.82863280
H        2.45002298      -1.18211063      -0.57921642
11
Frame=1 idx=002074 GeodesicLength=0.06865977138194748 rxn_smarts="[C:1]([c:2]1[c:3]([H:10])[o:4][c:5]([H:11])[n:6]1)([H:7])([H:8])[H:9]>>[C:1]([C:2]#[C:3][H:10])([H:7])([H:8])[H:9].[O:4]=[C:5]=[N:6][H:11]"
C       -1.81524865      -0.47900909      -0.11997232
C       -0.69584363       0.40300400       0.19751566
C        0.00745184       1.33697870       0.53201572
O        2.70552951       0.78397355       0.22821668
C        2.06683487      -0.13775603      -0.21500904
N        0.93340326      -0.66804690      -0.39752541
H       -1.72974498      -1.40803560       0.44279590
H       -1.80624390      -0.72460146      -1.18166050
H       -2.75763687       0.00842326       0.12771867
H        0.65281502       2.11458398       0.87282203
H        2.43868351      -1.22951442      -0.48691738
11
Frame=2 idx=002074 GeodesicLength=0.1388091857674355 rxn_smarts="[C:1]([c:2]1[c:3]([H:10])[o:4][c:5]([H:11])[n:6]1)([H:7])([H:8])[H:9]>>[C:1]([C:2]#[C:3][H:10])([H:7])([H:8])[H:9].[O:4]=[C:5]=[N:6][H:11]"
C       -1.80671331      -0.47999973      -0.11487452
C       -0.67286727       0.38824247       0.19188933
C        0.02240778       1.33659040       0.51575105
O        2.68504156       0.79245582       0.22901407
C        2.07320710      -0.12228111      -0.27030216
N        0.94485859      -0.65017071      -0.48032329
H       -1.72732743      -1.41114029       0.44535884
H       -1.81261338      -0.72601821      -1.17662752
H       -2.74157692       0.01775562       0.14083091
H        0.62694345       2.11869313       0.91602245
H        2.40863983      -1.26412739      -0.39673915
11
Frame=3 idx=002074 GeodesicLength=0.21025546286496882 rxn_smarts="[C:1]([c:2]1[c:3]([H:10])[o:4][c:5]([H:11])[n:6]1)([H:7])([H:8])[H:9]>>[C:1]([C:2]#[C:3][H:10])([H:7])([H:8])[H:9].[O:4]=[C:5]=[N:6][H:11]"
C       -1.79699874      -0.48049143      -0.11183261
C       -0.64837900       0.37133012       0.18903124
C        0.03893168       1.33182281       0.50818969
O        2.66558894       0.80870987       0.20870217
C        2.08120484      -0.11239197      -0.31789049
N        0.95713258      -0.63791557      -0.54831780
H       -1.72996682      -1.41284746       0.44806710
H       -1.81213969      -0.72850600      -1.17313475
H       -2.72426834       0.03048554       0.14549628
H        0.60139949       2.11682133       0.96132177
H        2.36749505      -1.28701725      -0.30963259
11
Frame=4 idx=002074 GeodesicLength=0.2830753042202383 rxn_smarts="[C:1]([c:2]1[c:3]([H:10])[o:4][c:5]([H:11])[n:6]1)([H:7])([H:8])[H:9]>>[C:1]([C:2]#[C:3][H:10])([H:7])([H:8])[H:9].[O:4]=[C:5]=[N:6][H:11]"
C       -1.78642507      -0.48045837      -0.10975465
C       -0.62336948       0.35547352       0.18340635
C        0.05648685       1.32631843       0.50216718
O        2.64685801       0.82803548       0.17970417
C        2.09021563      -0.10637017      -0.35975704
N        0.97005997      -0.62933784      -0.60710140
H       -1.73486500      -1.41042254       0.45580749
H       -1.80751647      -0.73676368      -1.16912984
H       -2.70620360       0.04619412       0.14291699
H        0.57564253       2.10663533       1.01195715
H        2.31911664      -1.29930428      -0.23021640
11
Frame=5 idx=002074 GeodesicLength=0.35663119160668144 rxn_smarts="[C:1]([c:2]1[c:3]([H:10])[o:4][c:5]([H:11])[n:6]1)([H:7])([H:8])[H:9]>>[C:1]([C:2]#[C:3][H:10])([H:7])([H:8])[H:9].[O:4]=[C:5]=[N:6][H:11]"
C       -1.77661117      -0.47938792      -0.10899473
C       -0.59827380       0.33764286       0.18008885
C        0.07506466       1.31663292       0.50297044
O        2.62835931       0.85279397       0.13799010
C        2.09958041      -0.10280309      -0.39885648
N        0.98347851      -0.62852260      -0.65199821
H       -1.74667272      -1.40504245       0.46516380
H       -1.79889761      -0.74687599      -1.16569127
H       -2.68829173       0.06629083       0.13247778
H        0.55045073       2.09028937       1.06386404
H        2.27181342      -1.30101789      -0.15701430
11
Frame=6 idx=002074 GeodesicLength=0.4309651559132442 rxn_smarts="[C:1]([c:2]1[c:3]([H:10])[o:4][c:5]([H:11])[n:6]1)([H:7])([H:8])[H:9]>>[C:1]([C:2]#[C:3][H:10])([H:7])([H:8])[H:9].[O:4]=[C:5]=[N:6][H:11]"
C       -1.76749917      -0.47734734      -0.10911262
C       -0.57344996       0.31890776       0.17745859
C        0.09431366       1.30414884       0.50820537
O        2.60892684       0.88070676       0.08821108
C        2.10903458      -0.10100122      -0.43567266
N        0.99728789      -0.63355713      -0.68718945
H       -1.76340995      -1.39631728       0.47647929
H       -1.78798665      -0.75925111      -1.16221424
H       -2.67026534       0.08973434       0.11607560
H        0.52602636       2.06773564       1.11705041
H        2.22702173      -1.29375926      -0.08929136
11
Frame=7 idx=002074 GeodesicLength=0.505840097312256 rxn_smarts="[C:1]([c:2]1[c:3]([H:10])[o:4][c:5]([H:11])[n:6]1)([H:7])([H:8])[H:9]>>[C:1]([C:2]#[C:3][H:10])([H:7])([H:8])[H:9].[O:4]=[C:5]=[N:6][H:11]"
C       -1.75901368      -0.47446445      -0.10972129
C       -0.54910706       0.29953967       0.17557020
C        0.11383292       1.28954582       0.51693393
O        2.58776057       0.90984486       0.03442679
C        2.11833352      -0.10031268      -0.47014396
N        1.01144757      -0.64303636      -0.71480051
H       -1.78404171      -1.38433971       0.48944023
H       -1.77559324      -0.77358736      -1.15825686
H       -2.65187564       0.11563146       0.09498923
H        0.50224318       2.04067327       1.16971524
H        2.18601357      -1.27949451      -0.02815300
11
Frame=8 idx=002074 GeodesicLength=0.5811832546860268 rxn_smarts="[C:1]([c:2]1[c:3]([H:10])[o:4][c:5]([H:11])[n:6]1)([H:7])([H:8])[H:9]>>[C:1]([C:2]#[C:3][H:10])([H:7])([H:8])[H:9].[O:4]=[C:5]=[N:6][H:11]"
C       -1.75111328      -0.47072785      -0.11078010
C       -0.52534469       0.27960592       0.17455321
C        0.13345025       1.27301513       0.52892731
O        2.56400073       0.93991900      -0.02297841
C        2.12720992      -0.10019421      -0.50274842
N        1.02597081      -0.65639173      -0.73578449
H       -1.80830046      -1.36886042       0.50374376
H       -1.76200909      -0.78984157      -1.15361059
H       -2.63282781       0.14368012       0.06936243
H        0.47931205       2.00932254       1.22210250
H        2.14965159      -1.25952693       0.02721281
11
Frame=9 idx=002074 GeodesicLength=0.6569188476245404 rxn_smarts="[C:1]([c:2]1[c:3]([H:10])[o:4][c:5]([H:11])[n:6]1)([H:7])([H:8])[H:9]>>[C:1]([C:2]#[C:3][H:10])([H:7])([H:8])[H:9].[O:4]=[C:5]=[N:6][H:11]"
C       -1.74364864      -0.46618463      -0.11219157
C       -0.50217129       0.25910809       0.17470019
C        0.15300569       1.25482880       0.54384312
O        2.53690804       0.97037401      -0.08306876
C        2.13542567      -0.10018239      -0.53374699
N        1.04089309      -0.67290257      -0.75105600
H       -1.83578640      -1.34976604       0.51900501
H       -1.74742832      -0.80788050      -1.14802711
H       -2.61272333       0.17344288       0.03948428
H        0.45726518       1.97434991       1.27397237
H        2.11826031      -1.23518756       0.07708547
11
Frame=10 idx=002074 GeodesicLength=0.7329997470924846 rxn_smarts="[C:1]([c:2]1[c:3]([H:10])[o:4][c:5]([H:11])[n:6]1)([H:7])([H:8])[H:9]>>[C:1]([C:2]#[C:3][H:10])([H:7])([H:8])[H:9].[O:4]=[C:5]=[N:6][H:11]"
C       -1.73637112      -0.46094746      -0.11378910
C       -0.47951274       0.23805433       0.17627890
C        0.17238442       1.23534438       0.56121864
O        2.50605095       1.00044199      -0.14434427
C        2.14281837      -0.09988043      -0.56326653
N        1.05625141      -0.69159101      -0.76176804
H       -1.86590386      -1.32703170       0.53490207
H       -1.73200625      -0.82761817      -1.14118442
H       -2.59108700       0.20436084       0.00579445
H        0.43584542       1.93681214       1.32479137
H        2.09153042      -1.20794491       0.12136692
11
Frame=11 idx=002074 GeodesicLength=0.8094098767317985 rxn_smarts="[C:1]([c:2]1[c:3]([H:10])[o:4][c:5]([H:11])[n:6]1)([H:7])([H:8])[H:9]>>[C:1]([C:2]#[C:3][H:10])([H:7])([H:8])[H:9].[O:4]=[C:5]=[N:6][H:11]"
C       -1.72903970      -0.45511718      -0.11543398
C       -0.45725201       0.21635545       0.17959980
C        0.19155740       1.21479116       0.58072713
O        2.47117836       1.02956949      -0.20569359
C        2.14925000      -0.09895385      -0.59151631
N        1.07207200      -0.71163342      -0.76890655
H       -1.89820170      -1.30061428       0.55110072
H       -1.71584715      -0.84897005      -1.13278222
H       -2.56741049       0.23596912      -0.03137071
H        0.41468286       1.89767307       1.37417746
H        2.06901042      -1.17906952       0.16009825
11
Frame=12 idx=002074 GeodesicLength=0.8861094417795166 rxn_smarts="[C:1]([c:2]1[c:3]([H:10])[o:4][c:5]([H:11])[n:6]1)([H:7])([H:8])[H:9]>>[C:1]([C:2]#[C:3][H:10])([H:7])([H:8])[H:9].[O:4]=[C:5]=[N:6][H:11]"
C       -1.72138029      -0.44884404      -0.11692040
C       -0.43524061       0.19393694       0.18489036
C        0.21055458       1.19342367       0.60197121
O        2.43248733       1.05708177      -0.26550187
C        2.15467300      -0.09716751      -0.61858579
N        1.08833556      -0.73208535      -0.77366771
H       -1.93198050      -1.27069560       0.56720470
H       -1.69917308      -0.87167071      -1.12255523
H       -2.54122058       0.26765356      -0.07126183
H        0.39304569       1.85838589       1.42135363
H        2.04989891      -1.15001863       0.19307293
11
Frame=13 idx=002074 GeodesicLength=0.9630883742584616 rxn_smarts="[C:1]([c:2]1[c:3]([H:10])[o:4][c:5]([H:11])[n:6]1)([H:7])([H:8])[H:9]>>[C:1]([C:2]#[C:3][H:10])([H:7])([H:8])[H:9].[O:4]=[C:5]=[N:6][H:11]"
C       -1.71319543      -0.44220771      -0.11813358
C       -0.41334577       0.17063204       0.19236636
C        0.22949847       1.17123619       0.62485428
O        2.39012818       1.08271747      -0.32302219
C        2.15900051      -0.09433230      -0.64474417
N        1.10500452      -0.75240342      -0.77685530
H       -1.96684222      -1.23731489       0.58283573
H       -1.68216101      -0.89550092      -1.11031619
H       -2.51205870       0.29903833      -0.11341855
H        0.37028142       1.81992889       1.46596298
H        2.03369006      -1.12179368       0.22047063
11
Frame=14 idx=002074 GeodesicLength=1.0403573384784575 rxn_smarts="[C:1]([c:2]1[c:3]([H:10])[o:4][c:5]([H:11])[n:6]1)([H:7])([H:8])[H:9]>>[C:1]([C:2]#[C:3][H:10])([H:7])([H:8])[H:9].[O:4]=[C:5]=[N:6][H:11]"
C       -1.70430765      -0.43525711      -0.11898043
C       -0.39143451       0.14621106       0.20223770
C        0.24858220       1.14804137       0.64947735
O        2.34423626       1.10636005      -0.37773709
C        2.16211551      -0.09029258      -0.67031157
N        1.12201761      -0.77221270      -0.77914155
H       -2.00249342      -1.20043546       0.59764211
H       -1.66498459      -0.92026113      -1.09590359
H       -2.47943765       0.32985689      -0.15746795
H        0.34567524       1.78317564       1.50768640
H        2.02003101      -1.09518603       0.24249860
11
Frame=15 idx=002074 GeodesicLength=1.1179531174270305 rxn_smarts="[C:1]([c:2]1[c:3]([H:10])[o:4][c:5]([H:11])[n:6]1)([H:7])([H:8])[H:9]>>[C:1]([C:2]#[C:3][H:10])([H:7])([H:8])[H:9].[O:4]=[C:5]=[N:6][H:11]"
C       -1.69454480      -0.42801410      -0.11938530
C       -0.36938774       0.12045929       0.21462678
C        0.26804997       1.12353840       0.67605840
O        2.29490282       1.12798000      -0.42925886
C        2.16387056      -0.08492960      -0.69559494
N        1.13929278      -0.79125688      -0.78109734
H       -2.03860686      -1.15997855       0.61128523
H       -1.64785237      -0.94573125      -1.07919627
H       -2.44286649       0.35988187      -0.20302060
H        0.31849611       1.74885089       1.54617121
H        2.00864603      -1.07080008       0.25941171
11
Frame=16 idx=002074 GeodesicLength=1.1959488922517212 rxn_smarts="[C:1]([c:2]1[c:3]([H:10])[o:4][c:5]([H:11])[n:6]1)([H:7])([H:8])[H:9]>>[C:1]([C:2]#[C:3][H:10])([H:7])([H:8])[H:9].[O:4]=[C:5]=[N:6][H:11]"
C       -1.68373831      -0.42047482      -0.11928947
C       -0.34710777       0.09318516       0.22958294
C        0.28817068       1.09733773       0.70491457
O        2.24211744       1.14761903      -0.47728658
C        2.16407015      -0.07813351      -0.72086446
N        1.15672934      -0.80937017      -0.78317978
H       -2.07481283      -1.11581409       0.62344992
H       -1.63099386      -0.97168144      -1.06010752
H       -2.40185591       0.38891390      -0.24969366
H        0.28808506       1.71747196       1.58097208
H        1.99933601      -1.04905374       0.27150196
