15
Frame=0 idx=009110 GeodesicLength=0.0 rxn_smarts="[C:1]1([H:8])([H:9])[C@:2]2([H:10])[O:3][C:4]([H:11])([H:12])[C:5]([H:13])([H:14])[O:6][C@:7]12[H:15]>>[C:1]1([H:8])([H:9])[O:6][C@@:7]1([C@@:2]1([H:10])[O:3][C:4]([H:11])([H:12])[C:5]1([H:13])[H:14])[H:15]"
C       -1.70767457      -0.03768072       1.30990116
C       -0.58108659      -0.22593717      -0.89070960
O       -0.16418308       1.04048827      -1.13052322
C        1.14768251       1.10404764      -0.55283512
C        1.47622856      -0.35871861      -0.39498974
O        0.29024372      -0.61915442       1.20414485
C       -0.84872256      -0.79337591       0.46166664
H       -1.53635386       1.02798826       1.38550741
H       -2.55002786      -0.46164682       1.84522297
H       -1.16505749      -0.61952095      -1.72694498
H        1.12160143       1.61092394       0.41225683
H        1.79074809       1.66517690      -1.23955721
H        1.66289771      -0.87991620      -1.33526208
H        2.23809178      -0.61815238       0.33209244
H       -1.17438776      -1.83452187       0.32002963
15
Frame=1 idx=009110 GeodesicLength=0.06484268364283514 rxn_smarts="[C:1]1([H:8])([H:9])[C@:2]2([H:10])[O:3][C:4]([H:11])([H:12])[C:5]([H:13])([H:14])[O:6][C@:7]12[H:15]>>[C:1]1([H:8])([H:9])[O:6][C@@:7]1([C@@:2]1([H:10])[O:3][C:4]([H:11])([H:12])[C:5]1([H:13])[H:14])[H:15]"
C       -1.69836257      -0.03663659       1.29013933
C       -0.58904579      -0.21897552      -0.87802629
O       -0.17155213       1.05039701      -1.11520006
C        1.14605957       1.10720486      -0.55249921
C        1.46415947      -0.35791603      -0.39046677
O        0.28668671      -0.61872176       1.21572941
C       -0.84156412      -0.81826871       0.46157812
H       -1.51986781       1.02630888       1.38267843
H       -2.55087213      -0.45073486       1.81718390
H       -1.17102015      -0.61025664      -1.71634316
H        1.13395986       1.62104924       0.40947706
H        1.78734931       1.65832532      -1.24855524
H        1.65627741      -0.88046701      -1.32906515
H        2.23336775      -0.61285463       0.33086737
H       -1.16557538      -1.85845356       0.32250227
15
Frame=2 idx=009110 GeodesicLength=0.12964569720993163 rxn_smarts="[C:1]1([H:8])([H:9])[C@:2]2([H:10])[O:3][C:4]([H:11])([H:12])[C:5]([H:13])([H:14])[O:6][C@:7]12[H:15]>>[C:1]1([H:8])([H:9])[O:6][C@@:7]1([C@@:2]1([H:10])[O:3][C:4]([H:11])([H:12])[C:5]1([H:13])[H:14])[H:15]"
C       -1.68865717      -0.03570250       1.27099706
C       -0.59681001      -0.21214259      -0.86538188
O       -0.17860079       1.06012205      -1.10020491
C        1.14448243       1.11030312      -0.55234189
C        1.45223818      -0.35704474      -0.38584676
O        0.28275097      -0.61879865       1.22685192
C       -0.83461619      -0.84201074       0.46119213
H       -1.50417872       1.02443032       1.38044792
H       -2.55108077      -0.44042892       1.78926763
H       -1.17675358      -0.60119587      -1.70575770
H        1.14614333       1.63102448       0.40630640
H        1.78383914       1.65136628      -1.25763716
H        1.64992066      -0.88113337      -1.32261432
H        2.22848485      -0.60750486       0.32992171
H       -1.15716233      -1.88128401       0.32479985
15
Frame=3 idx=009110 GeodesicLength=0.19440664607014707 rxn_smarts="[C:1]1([H:8])([H:9])[C@:2]2([H:10])[O:3][C:4]([H:11])([H:12])[C:5]([H:13])([H:14])[O:6][C@:7]12[H:15]>>[C:1]1([H:8])([H:9])[O:6][C@@:7]1([C@@:2]1([H:10])[O:3][C:4]([H:11])([H:12])[C:5]1([H:13])[H:14])[H:15]"
C       -1.67862157      -0.03485563       1.25246648
C       -0.60436023      -0.20545443      -0.85283979
O       -0.18534087       1.06967128      -1.08553518
C        1.14294073       1.11334269      -0.55234275
C        1.44046436      -0.35610505      -0.38112954
O        0.27843908      -0.61939442       1.23752034
C       -0.82791697      -0.86466602       0.46047370
H       -1.48925510       1.02239578       1.37866697
H       -2.55058188      -0.43070327       1.76171953
H       -1.18223532      -0.59232698      -1.69526559
H        1.15812844       1.64084887       0.40277543
H        1.78022065       1.64431459      -1.26675900
H        1.64385800      -0.88189312      -1.31591215
H        2.22344680      -0.60210147       0.32926472
H       -1.14918610      -1.90307282       0.32689683
15
Frame=4 idx=009110 GeodesicLength=0.2591483544773239 rxn_smarts="[C:1]1([H:8])([H:9])[C@:2]2([H:10])[O:3][C:4]([H:11])([H:12])[C:5]([H:13])([H:14])[O:6][C@:7]12[H:15]>>[C:1]1([H:8])([H:9])[O:6][C@@:7]1([C@@:2]1([H:10])[O:3][C:4]([H:11])([H:12])[C:5]1([H:13])[H:14])[H:15]"
C       -1.66828574      -0.03410509       1.23458055
C       -0.61168527      -0.19891715      -0.84041167
O       -0.19180166       1.07906361      -1.07113261
C        1.14143507       1.11632621      -0.55249820
C        1.42884282      -0.35509351      -0.37632324
O        0.27379818      -0.62049800       1.24776973
C       -0.82146833      -0.88631935       0.45943498
H       -1.47502895       1.02020507       1.37728122
H       -2.54949877      -0.42149336       1.73449191
H       -1.18750359      -0.58360690      -1.68486815
H        1.16995984       1.65053519       0.39888858
H        1.77647418       1.63717005      -1.27594211
H        1.63809056      -0.88273136      -1.30896815
H        2.21828043      -0.59663063       0.32887946
H       -1.14160875      -1.92390478       0.32881770
15
Frame=5 idx=009110 GeodesicLength=0.3238917995989107 rxn_smarts="[C:1]1([H:8])([H:9])[C@:2]2([H:10])[O:3][C:4]([H:11])([H:12])[C:5]([H:13])([H:14])[O:6][C@:7]12[H:15]>>[C:1]1([H:8])([H:9])[O:6][C@@:7]1([C@@:2]1([H:10])[O:3][C:4]([H:11])([H:12])[C:5]1([H:13])[H:14])[H:15]"
C       -1.65768606      -0.03345174       1.21734538
C       -0.61878180      -0.19253444      -0.82811763
O       -0.19801120       1.08831839      -1.05695160
C        1.13996118       1.11925856      -0.55279993
C        1.41737341      -0.35400824      -0.37142843
O        0.26885644      -0.62209817       1.25763021
C       -0.81527172      -0.90704740       0.45807780
H       -1.46142896       1.01787453       1.37623210
H       -2.54789941      -0.41275162       1.70758971
H       -1.19258570      -0.57499992      -1.67458151
H        1.18166881       1.66010015       0.39465211
H        1.77258118       1.62992890      -1.28519577
H        1.63261872      -0.88364060      -1.30178272
H        2.21300297      -0.59108369       0.32876310
H       -1.13439787      -1.94386470       0.33056719
15
Frame=6 idx=009110 GeodesicLength=0.38865112345143077 rxn_smarts="[C:1]1([H:8])([H:9])[C@:2]2([H:10])[O:3][C:4]([H:11])([H:12])[C:5]([H:13])([H:14])[O:6][C@:7]12[H:15]>>[C:1]1([H:8])([H:9])[O:6][C@@:7]1([C@@:2]1([H:10])[O:3][C:4]([H:11])([H:12])[C:5]1([H:13])[H:14])[H:15]"
C       -1.64685785      -0.03291148       1.20077289
C       -0.62565012      -0.18629743      -0.81595861
O       -0.20398930       1.09745720      -1.04293412
C        1.13852360       1.12214170      -0.55325354
C        1.40605243      -0.35284688      -0.36644622
O        0.26365036      -0.62416592       1.26713413
C       -0.80931372      -0.92691650       0.45642039
H       -1.44839907       1.01538616       1.37550608
H       -2.54589906      -0.40443036       1.68093379
H       -1.19752656      -0.56646017      -1.66438976
H        1.19331273       1.66956198       0.39005885
H        1.76852646       1.62257498      -1.29455507
H        1.62742970      -0.88461938      -1.29435288
H        2.20762750      -0.58544845       0.32890585
H       -1.12748711      -1.96302545       0.33215821
15
Frame=7 idx=009110 GeodesicLength=0.4534298661941245 rxn_smarts="[C:1]1([H:8])([H:9])[C@:2]2([H:10])[O:3][C:4]([H:11])([H:12])[C:5]([H:13])([H:14])[O:6][C@:7]12[H:15]>>[C:1]1([H:8])([H:9])[O:6][C@@:7]1([C@@:2]1([H:10])[O:3][C:4]([H:11])([H:12])[C:5]1([H:13])[H:14])[H:15]"
C       -1.63584920      -0.03247841       1.18483771
C       -0.63228772      -0.18020492      -0.80395570
O       -0.20974903       1.10649505      -1.02905392
C        1.13712175       1.12497748      -0.55385251
C        1.39487836      -0.35160835      -0.36137205
O        0.25818633      -0.62668865       1.27630179
C       -0.80360236      -0.94598823       0.45445293
H       -1.43589820       1.01275616       1.37504295
H       -2.54349131      -0.39651105       1.65460812
H       -1.20233481      -0.55796181      -1.65431853
H        1.20490580       1.67893139       0.38510751
H        1.76430388       1.61510241      -1.30402138
H        1.62253275      -0.88565803      -1.28667248
H        2.20215645      -0.57971747       0.32932073
H       -1.12087267      -1.98144558       0.33357483
15
Frame=8 idx=009110 GeodesicLength=0.5182510787170818 rxn_smarts="[C:1]1([H:8])([H:9])[C@:2]2([H:10])[O:3][C:4]([H:11])([H:12])[C:5]([H:13])([H:14])[O:6][C@:7]12[H:15]>>[C:1]1([H:8])([H:9])[O:6][C@@:7]1([C@@:2]1([H:10])[O:3][C:4]([H:11])([H:12])[C:5]1([H:13])[H:14])[H:15]"
C       -1.62469928      -0.03214522       1.16950068
C       -0.63869117      -0.17425356      -0.79212480
O       -0.21530305       1.11544368      -1.01528354
C        1.13575063       1.12776561      -0.55459106
C        1.38385070      -0.35029310      -0.35620394
O        0.25246394      -0.62965488       1.28515626
C       -0.79814048      -0.96432677       0.45215834
H       -1.42387519       1.01001082       1.37478644
H       -2.54067016      -0.38897862       1.62869098
H       -1.20701542      -0.54947665      -1.64439095
H        1.21645435       1.68821362       0.37979764
H        1.75989679       1.60750705      -1.31359158
H        1.61793786      -0.88674723      -1.27873586
H        2.19659368      -0.57388403       0.33002097
H       -1.11455321      -1.99918071       0.33481041
15
Frame=9 idx=009110 GeodesicLength=0.5831156074546789 rxn_smarts="[C:1]1([H:8])([H:9])[C@:2]2([H:10])[O:3][C:4]([H:11])([H:12])[C:5]([H:13])([H:14])[O:6][C@:7]12[H:15]>>[C:1]1([H:8])([H:9])[O:6][C@@:7]1([C@@:2]1([H:10])[O:3][C:4]([H:11])([H:12])[C:5]1([H:13])[H:14])[H:15]"
C       -1.61345750      -0.03192950       1.15474992
C       -0.64486950      -0.16843142      -0.78046089
O       -0.22066400       1.12432707      -1.00156743
C        1.13441864       1.13051122      -0.55547449
C        1.37296655      -0.34889918      -0.35093567
O        0.24650953      -0.63302979       1.29372079
C       -0.79291252      -0.98199021       0.44955266
H       -1.41228498       1.00712549       1.37473723
H       -2.53752204      -0.38179551       1.60312700
H       -1.21160150      -0.54096266      -1.63459457
H        1.22801953       1.69743276       0.37410978
H        1.75529240       1.59977345      -1.32330331
H        1.61362957      -0.88789433      -1.27053422
H        2.19094639      -0.56793902       0.33100739
H       -1.10847057      -2.01629838       0.33586581
15
Frame=10 idx=009110 GeodesicLength=0.6480949013641857 rxn_smarts="[C:1]1([H:8])([H:9])[C@:2]2([H:10])[O:3][C:4]([H:11])([H:12])[C:5]([H:13])([H:14])[O:6][C@:7]12[H:15]>>[C:1]1([H:8])([H:9])[O:6][C@@:7]1([C@@:2]1([H:10])[O:3][C:4]([H:11])([H:12])[C:5]1([H:13])[H:14])[H:15]"
C       -1.60214450      -0.03178987       1.14056650
C       -0.65082637      -0.16273085      -0.76894989
O       -0.22584299       1.13315296      -0.98785781
C        1.13312590       1.13320886      -0.55650569
C        1.36222800      -0.34741700      -0.34556800
O        0.24033484      -0.63681392       1.30206168
C       -0.78792200      -0.99906073       0.44659988
H       -1.40108986       1.00413021       1.37487550
H       -2.53408879      -0.37493822       1.57790279
H       -1.21612191      -0.53239002      -1.62491300
H        1.23964016       1.70658317       0.36803256
H        1.75045907       1.59188061      -1.33318306
H        1.60960924      -0.88908156      -1.26205942
H        2.18522940      -0.56185268       0.33228916
H       -1.10259019      -2.03288096       0.33670880
15
Frame=11 idx=009110 GeodesicLength=0.7129801602055651 rxn_smarts="[C:1]1([H:8])([H:9])[C@:2]2([H:10])[O:3][C:4]([H:11])([H:12])[C:5]([H:13])([H:14])[O:6][C@:7]12[H:15]>>[C:1]1([H:8])([H:9])[O:6][C@@:7]1([C@@:2]1([H:10])[O:3][C:4]([H:11])([H:12])[C:5]1([H:13])[H:14])[H:15]"
C       -1.59072511      -0.03189302       1.12702502
C       -0.65656943      -0.15709378      -0.75760743
O       -0.23084243       1.14198571      -0.97414069
C        1.13189505       1.13586997      -0.55772207
C        1.35158949      -0.34585549      -0.34006602
O        0.23394775      -0.64096633       1.31004519
C       -0.78311944      -1.01540112       0.44348882
H       -1.39033780       1.00083402       1.37532360
H       -2.53046579      -0.36840853       1.55277385
H       -1.22062054      -0.52373133      -1.61530267
H        1.25139349       1.71573119       0.36149714
H        1.74544305       1.58375712      -1.34330112
H        1.60580700      -0.89036934      -1.25324730
H        2.17938248      -0.55564812       0.33388055
H       -1.09677777      -2.04881093       0.33735313
15
Frame=12 idx=009110 GeodesicLength=0.7779771150611103 rxn_smarts="[C:1]1([H:8])([H:9])[C@:2]2([H:10])[O:3][C:4]([H:11])([H:12])[C:5]([H:13])([H:14])[O:6][C@:7]12[H:15]>>[C:1]1([H:8])([H:9])[O:6][C@@:7]1([C@@:2]1([H:10])[O:3][C:4]([H:11])([H:12])[C:5]1([H:13])[H:14])[H:15]"
C       -1.57930495      -0.03206846       1.11398646
C       -0.66209965      -0.15156579      -0.74642911
O       -0.23566748       1.15077970      -0.96037957
C        1.13070285       1.13848197      -0.55908505
C        1.34108998      -0.34420302      -0.33445215
O        0.22734249      -0.64549817       1.31782916
C       -0.77854584      -1.03123672       0.44001574
H       -1.37992192       0.99744824       1.37590783
H       -2.52655954      -0.36217944       1.52808494
H       -1.22505685      -0.51498120      -1.60582808
H        1.26323830       1.72482124       0.35454865
H        1.74017286       1.57545712      -1.35359526
H        1.60229323      -0.89169001      -1.24413605
H        2.17346106      -0.54928289       0.33579195
H       -1.09114454      -2.06428257       0.33774055
15
Frame=13 idx=009110 GeodesicLength=0.8430386149216564 rxn_smarts="[C:1]1([H:8])([H:9])[C@:2]2([H:10])[O:3][C:4]([H:11])([H:12])[C:5]([H:13])([H:14])[O:6][C@:7]12[H:15]>>[C:1]1([H:8])([H:9])[O:6][C@@:7]1([C@@:2]1([H:10])[O:3][C:4]([H:11])([H:12])[C:5]1([H:13])[H:14])[H:15]"
C       -1.56789507      -0.03234558       1.10141704
C       -0.66742330      -0.14613156      -0.73543484
O       -0.24031609       1.15954943      -0.94658355
C        1.12954546       1.14105011      -0.56059470
C        1.33072075      -0.34246570      -0.32872015
O        0.22050970      -0.65039158       1.32537697
C       -0.77419363      -1.04656185       0.43622193
H       -1.36982068       0.99393837       1.37662412
H       -2.52235087      -0.35624273       1.50387376
H       -1.22942085      -0.50613829      -1.59650764
H        1.27516153       1.73386901       0.34717679
H        1.73465434       1.56698067      -1.36404880
H        1.59906901      -0.89305065      -1.23471860
H        2.16745421      -0.54277196       0.33803595
H       -1.08569449      -2.07928768       0.33788171
15
Frame=14 idx=009110 GeodesicLength=0.9081488897025088 rxn_smarts="[C:1]1([H:8])([H:9])[C@:2]2([H:10])[O:3][C:4]([H:11])([H:12])[C:5]([H:13])([H:14])[O:6][C@:7]12[H:15]>>[C:1]1([H:8])([H:9])[O:6][C@@:7]1([C@@:2]1([H:10])[O:3][C:4]([H:11])([H:12])[C:5]1([H:13])[H:14])[H:15]"
C       -1.55651559      -0.03271388       1.08928682
C       -0.67254676      -0.14078413      -0.72463111
O       -0.24478366       1.16829557      -0.93275268
C        1.12842159       1.14357173      -0.56224976
C        1.32047526      -0.34064314      -0.32286835
O        0.21344871      -0.65563608       1.33268790
C       -0.77005786      -1.06139827       0.43210523
H       -1.36002441       0.99031007       1.37744809
H       -2.51782653      -0.35059373       1.48021212
H       -1.23370272      -0.49720808      -1.58735005
H        1.28715977       1.74286992       0.33937656
H        1.72889067       1.55832600      -1.37464713
H        1.59613294      -0.89444330      -1.22498578
H        2.16135395      -0.53611003       0.34061857
H       -1.08042535      -2.09384265       0.33774957
15
Frame=15 idx=009110 GeodesicLength=0.9732929824130829 rxn_smarts="[C:1]1([H:8])([H:9])[C@:2]2([H:10])[O:3][C:4]([H:11])([H:12])[C:5]([H:13])([H:14])[O:6][C@:7]12[H:15]>>[C:1]1([H:8])([H:9])[O:6][C@@:7]1([C@@:2]1([H:10])[O:3][C:4]([H:11])([H:12])[C:5]1([H:13])[H:14])[H:15]"
C       -1.54518197      -0.03316537       1.07756771
C       -0.67747746      -0.13551733      -0.71402386
O       -0.24906717       1.17701870      -0.91888748
C        1.12732920       1.14604450      -0.56404848
C        1.31034889      -0.33873667      -0.31689708
O        0.20615896      -0.66121845       1.33976323
C       -0.76613409      -1.07576651       0.42766705
H       -1.35051785       0.98657103       1.37836017
H       -2.51298249      -0.34522862       1.45715582
H       -1.23789552      -0.48819441      -1.57836420
H        1.29922777       1.75181913       0.33114516
H        1.72288368       1.54949382      -1.38537494
H        1.59348418      -0.89586122      -1.21493329
H        2.15515621      -0.52929499       0.34354423
H       -1.07533235      -2.10796361       0.33732595
15
Frame=16 idx=009110 GeodesicLength=1.0384603956330274 rxn_smarts="[C:1]1([H:8])([H:9])[C@:2]2([H:10])[O:3][C:4]([H:11])([H:12])[C:5]([H:13])([H:14])[O:6][C@:7]12[H:15]>>[C:1]1([H:8])([H:9])[O:6][C@@:7]1([C@@:2]1([H:10])[O:3][C:4]([H:11])([H:12])[C:5]1([H:13])[H:14])[H:15]"
C       -1.53390598      -0.03369150       1.06623315
C       -0.68222343      -0.13032615      -0.70361682
O       -0.25316426       1.18571823      -0.90498864
C        1.12626528       1.14846607      -0.56598846
C        1.30033759      -0.33674790      -0.31080825
O        0.19864192      -0.66712457       1.34660612
C       -0.76241709      -1.08968775       0.42290981
H       -1.34128093       0.98272956       1.37934477
H       -2.50782240      -0.34014014       1.43474612
H       -1.24199466      -0.47910150      -1.56955638
H        1.31135820       1.76071026       0.32248147
H        1.71663423       1.54048636      -1.39621549
H        1.59112128      -0.89729681      -1.20455980
H        2.14885868      -0.52232553       0.34681467
H       -1.07040845      -2.12166861       0.33659772
