12
Frame=0 idx=003161 GeodesicLength=0.0 rxn_smarts="[O:1]=[C:2]1[C:3]([H:7])([H:8])[C:4]([H:9])([H:10])[C:5]([H:11])=[C:6]1[H:12]>>[O:1]([C:2]1=[C:6]=[C:5]([H:11])[C:4]([H:9])([H:10])[C:3]1([H:7])[H:8])[H:12]"
O        2.39728254      -0.13738691      -0.04385068
C        1.13605590      -0.07487960      -0.02116213
C        0.05358596      -1.09056223       0.00038299
C       -1.19668661      -0.18370711       0.02372538
C       -0.63234358       1.22529484       0.00921198
C        0.71507183       1.28368845      -0.01648227
H        0.14033721      -1.73648335       0.87606766
H        0.10668697      -1.73496315      -0.87923722
H       -1.84877553      -0.35924087      -0.83683284
H       -1.81205876      -0.35461445       0.91186602
H       -1.30825465       2.07575309       0.02030044
H        2.24909874       1.08710124      -0.04398933
12
Frame=1 idx=003161 GeodesicLength=0.04001023475609902 rxn_smarts="[O:1]=[C:2]1[C:3]([H:7])([H:8])[C:4]([H:9])([H:10])[C:5]([H:11])=[C:6]1[H:12]>>[O:1]([C:2]1=[C:6]=[C:5]([H:11])[C:4]([H:9])([H:10])[C:3]1([H:7])[H:8])[H:12]"
O        2.39755870      -0.13947940      -0.04262668
C        1.13669450      -0.07856928      -0.02042009
C        0.05132289      -1.09184857       0.00048335
C       -1.19733719      -0.18434242       0.02371008
C       -0.63117393       1.22325140       0.00976422
C        0.71611983       1.28227744      -0.01735521
H        0.13924164      -1.73755299       0.87616581
H        0.10600922      -1.73543494      -0.87959443
H       -1.84968196      -0.35828980      -0.83695047
H       -1.81320845      -0.35405727       0.91171227
H       -1.30525012       2.07518566       0.02065698
H        2.24970487       1.09886016      -0.04554581
12
Frame=2 idx=003161 GeodesicLength=0.08001819654472127 rxn_smarts="[O:1]=[C:2]1[C:3]([H:7])([H:8])[C:4]([H:9])([H:10])[C:5]([H:11])=[C:6]1[H:12]>>[O:1]([C:2]1=[C:6]=[C:5]([H:11])[C:4]([H:9])([H:10])[C:3]1([H:7])[H:8])[H:12]"
O        2.39783663      -0.14166902      -0.04142596
C        1.13734047      -0.08229199      -0.01969016
C        0.04905591      -1.09314692       0.00058212
C       -1.19798136      -0.18497576       0.02369608
C       -0.62998098       1.22120027       0.01030860
C        0.71719061       1.28083882      -0.01823289
H        0.13813103      -1.73863521       0.87626205
H        0.10530867      -1.73592608      -0.87994579
H       -1.85058486      -0.35733135      -0.83706271
H       -1.81434703      -0.35348621       0.91156344
H       -1.30221399       2.07461101       0.02100529
H        2.25024490       1.11081242      -0.04706008
12
Frame=3 idx=003161 GeodesicLength=0.12001992164849831 rxn_smarts="[O:1]=[C:2]1[C:3]([H:7])([H:8])[C:4]([H:9])([H:10])[C:5]([H:11])=[C:6]1[H:12]>>[O:1]([C:2]1=[C:6]=[C:5]([H:11])[C:4]([H:9])([H:10])[C:3]1([H:7])[H:8])[H:12]"
O        2.39811599      -0.14396021      -0.04027296
C        1.13799366      -0.08604883      -0.01898321
C        0.04678472      -1.09445769       0.00067872
C       -1.19861872      -0.18560672       0.02368471
C       -0.62876380       1.21914155       0.01083853
C        0.71828527       1.27937172      -0.01912187
H        0.13700949      -1.73972658       0.87635822
H        0.10458038      -1.73644078      -0.88028960
H       -1.85148715      -0.35636833      -0.83716503
H       -1.81547022      -0.35289764       0.91142413
H       -1.29914581       2.07402885       0.02133837
H        2.25071620       1.12296465      -0.04848999
12
Frame=4 idx=003161 GeodesicLength=0.16000927226913228 rxn_smarts="[O:1]=[C:2]1[C:3]([H:7])([H:8])[C:4]([H:9])([H:10])[C:5]([H:11])=[C:6]1[H:12]>>[O:1]([C:2]1=[C:6]=[C:5]([H:11])[C:4]([H:9])([H:10])[C:3]1([H:7])[H:8])[H:12]"
O        2.39839660      -0.14635711      -0.03918570
C        1.13865388      -0.08984103      -0.01830877
C        0.04450895      -1.09578138       0.00077223
C       -1.19924889      -0.18623491       0.02367736
C       -0.62752141       1.21707527       0.01134782
C        0.71940501       1.27787522      -0.02002726
H        0.13588050      -1.74082463       0.87645519
H        0.10381990      -1.73698232      -0.88062514
H       -1.85239185      -0.35540328      -0.83725287
H       -1.81657367      -0.35228820       0.91129898
H       -1.29604503       2.07343885       0.02164940
H        2.25111602       1.13532352      -0.04980122
12
Frame=5 idx=003161 GeodesicLength=0.199977817474357 rxn_smarts="[O:1]=[C:2]1[C:3]([H:7])([H:8])[C:4]([H:9])([H:10])[C:5]([H:11])=[C:6]1[H:12]>>[O:1]([C:2]1=[C:6]=[C:5]([H:11])[C:4]([H:9])([H:10])[C:3]1([H:7])[H:8])[H:12]"
O        2.39867849      -0.14886331      -0.03817696
C        1.13932100      -0.09367001      -0.01767233
C        0.04222816      -1.09711856       0.00086271
C       -1.19987151      -0.18685990       0.02367469
C       -0.62625267       1.21500150       0.01183323
C        0.72055130       1.27634835      -0.02094640
H        0.13474582      -1.74192790       0.87655432
H        0.10302443      -1.73755321      -0.88095132
H       -1.85329986      -0.35443733      -0.83732436
H       -1.81765539      -0.35165593       0.91119001
H       -1.29291094       2.07284079       0.02193248
H        2.25144118       1.14789553      -0.05097608
12
Frame=6 idx=003161 GeodesicLength=0.23991655061633932 rxn_smarts="[O:1]=[C:2]1[C:3]([H:7])([H:8])[C:4]([H:9])([H:10])[C:5]([H:11])=[C:6]1[H:12]>>[O:1]([C:2]1=[C:6]=[C:5]([H:11])[C:4]([H:9])([H:10])[C:3]1([H:7])[H:8])[H:12]"
O        2.39896154      -0.15148239      -0.03726884
C        1.13999478      -0.09753732      -0.01708477
C        0.03994182      -1.09846989       0.00094938
C       -1.20048622      -0.18748131       0.02367836
C       -0.62495643       1.21292023       0.01228777
C        0.72172555       1.27479003      -0.02188647
H        0.13360949      -1.74303347       0.87665700
H        0.10218869      -1.73815752      -0.88126698
H       -1.85421476      -0.35347341      -0.83737419
H       -1.81871061      -0.35099697       0.91110257
H       -1.28974279       2.07223437       0.02217944
H        2.25168893       1.16068766      -0.05197326
12
Frame=7 idx=003161 GeodesicLength=0.2798086578839151 rxn_smarts="[O:1]=[C:2]1[C:3]([H:7])([H:8])[C:4]([H:9])([H:10])[C:5]([H:11])=[C:6]1[H:12]>>[O:1]([C:2]1=[C:6]=[C:5]([H:11])[C:4]([H:9])([H:10])[C:3]1([H:7])[H:8])[H:12]"
O        2.39924553      -0.15421709      -0.03651926
C        1.14067465      -0.10144463      -0.01657811
C        0.03764935      -1.09983641       0.00102841
C       -1.20109269      -0.18809871       0.02369382
C       -0.62363194       1.21083200       0.01269011
C        0.72292839       1.27319959      -0.02288697
H        0.13248503      -1.74413304       0.87676501
H        0.10129805      -1.73880595      -0.88157062
H       -1.85515054      -0.35252184      -0.83738459
H       -1.81972399      -0.35030018       0.91105436
H       -1.28654012       2.07162005       0.02237209
H        2.25185828       1.17370620      -0.05266425
12
Frame=8 idx=003161 GeodesicLength=0.3198795317983396 rxn_smarts="[O:1]=[C:2]1[C:3]([H:7])([H:8])[C:4]([H:9])([H:10])[C:5]([H:11])=[C:6]1[H:12]>>[O:1]([C:2]1=[C:6]=[C:5]([H:11])[C:4]([H:9])([H:10])[C:3]1([H:7])[H:8])[H:12]"
O        2.39953040      -0.15713614      -0.03585735
C        1.14136770      -0.10538867      -0.01612421
C        0.03535467      -1.10121417       0.00110265
C       -1.20168744      -0.18871105       0.02371566
C       -0.62227548       1.20873577       0.01305789
C        0.72416325       1.27157343      -0.02391011
H        0.13135758      -1.74523240       0.87687476
H        0.10036649      -1.73948552      -0.88186429
H       -1.85608960      -0.35157225      -0.83737169
H       -1.82070530      -0.34957480       0.91102897
H       -1.28330003       2.07099551       0.02253164
H        2.25191776       1.18701027      -0.05318391
12
Frame=9 idx=003161 GeodesicLength=0.3598859762769981 rxn_smarts="[O:1]=[C:2]1[C:3]([H:7])([H:8])[C:4]([H:9])([H:10])[C:5]([H:11])=[C:6]1[H:12]>>[O:1]([C:2]1=[C:6]=[C:5]([H:11])[C:4]([H:9])([H:10])[C:3]1([H:7])[H:8])[H:12]"
O        2.39981569      -0.16018079      -0.03546259
C        1.14206659      -0.10937658      -0.01579994
C        0.03305296      -1.10260872       0.00116324
C       -1.20227255      -0.18931861       0.02376704
C       -0.62088804       1.20663239       0.01336577
C        0.72542894       1.26991248      -0.02502228
H        0.13026577      -1.74631994       0.87698682
H        0.09935159      -1.74022146      -0.88214769
H       -1.85707039      -0.35064234      -0.83728313
H       -1.82162049      -0.34880087       0.91107835
H       -1.28002410       2.07036315       0.02254793
H        2.25189403       1.20056129      -0.05319353
12
Frame=10 idx=003161 GeodesicLength=0.39988546066588276 rxn_smarts="[O:1]=[C:2]1[C:3]([H:7])([H:8])[C:4]([H:9])([H:10])[C:5]([H:11])=[C:6]1[H:12]>>[O:1]([C:2]1=[C:6]=[C:5]([H:11])[C:4]([H:9])([H:10])[C:3]1([H:7])[H:8])[H:12]"
O        2.40010963      -0.16336792      -0.03514447
C        1.14277866      -0.11341161      -0.01551509
C        0.03074584      -1.10402028       0.00122392
C       -1.20285002      -0.18992067       0.02382344
C       -0.61946738       1.20452056       0.01366776
C        0.72673212       1.26821227      -0.02610235
H        0.12916920      -1.74741777       0.87710505
H        0.09829819      -1.74099250      -0.88241973
H       -1.85804984      -0.34969751      -0.83718672
H       -1.82252197      -0.34800505       0.91114048
H       -1.27671137       2.06972214       0.02251170
H        2.25176694       1.21437832      -0.05310399
12
Frame=11 idx=003161 GeodesicLength=0.43982972396746656 rxn_smarts="[O:1]=[C:2]1[C:3]([H:7])([H:8])[C:4]([H:9])([H:10])[C:5]([H:11])=[C:6]1[H:12]>>[O:1]([C:2]1=[C:6]=[C:5]([H:11])[C:4]([H:9])([H:10])[C:3]1([H:7])[H:8])[H:12]"
O        2.40041098      -0.16667756      -0.03431722
C        1.14350000      -0.11749135      -0.01497250
C        0.02843209      -1.10544889       0.00132186
C       -1.20341563      -0.19051898       0.02381398
C       -0.61800857       1.20240021       0.01414484
C        0.72807861       1.26647789      -0.02677822
H        0.12792874      -1.74860212       0.87722109
H        0.09733911      -1.74172410      -0.88268461
H       -1.85887911      -0.34864477      -0.83727448
H       -1.82355010      -0.34728490       0.91102007
H       -1.27334745       2.06907096       0.02268759
H        2.25151134       1.22844360      -0.05418241
12
Frame=12 idx=003161 GeodesicLength=0.4798014211699192 rxn_smarts="[O:1]=[C:2]1[C:3]([H:7])([H:8])[C:4]([H:9])([H:10])[C:5]([H:11])=[C:6]1[H:12]>>[O:1]([C:2]1=[C:6]=[C:5]([H:11])[C:4]([H:9])([H:10])[C:3]1([H:7])[H:8])[H:12]"
O        2.40071220      -0.17015184      -0.03362581
C        1.14423166      -0.12161940      -0.01451304
C        0.02611061      -1.10689528       0.00139796
C       -1.20396521      -0.19111413       0.02383897
C       -0.61650577       1.20026748       0.01456655
C        0.72946508       1.26470005      -0.02757205
H        0.12669998      -1.74980370       0.87731041
H        0.09630742      -1.74248179      -0.88296390
H       -1.85974779      -0.34760546      -0.83727635
H       -1.82450121      -0.34651508       0.91098042
H       -1.26993152       2.06840777       0.02273867
H        2.25112456       1.24281138      -0.05488185
12
Frame=13 idx=003161 GeodesicLength=0.5197555890209861 rxn_smarts="[O:1]=[C:2]1[C:3]([H:7])([H:8])[C:4]([H:9])([H:10])[C:5]([H:11])=[C:6]1[H:12]>>[O:1]([C:2]1=[C:6]=[C:5]([H:11])[C:4]([H:9])([H:10])[C:3]1([H:7])[H:8])[H:12]"
O        2.40102819      -0.17378091      -0.03266755
C        1.14497874      -0.12579862      -0.01391558
C        0.02378444      -1.10836175       0.00147826
C       -1.20450552      -0.19170435       0.02385517
C       -0.61496606       1.19812533       0.01508728
C        0.73089662       1.26288147      -0.02814509
H        0.12539433      -1.75108924       0.87736713
H        0.09530629      -1.74320437      -0.88327726
H       -1.86056011      -0.34650004      -0.83733391
H       -1.82549245      -0.34577005       0.91089271
H       -1.26647072       2.06773799       0.02279743
H        2.25060626       1.25746454      -0.05613858
12
Frame=14 idx=003161 GeodesicLength=0.5596993145527985 rxn_smarts="[O:1]=[C:2]1[C:3]([H:7])([H:8])[C:4]([H:9])([H:10])[C:5]([H:11])=[C:6]1[H:12]>>[O:1]([C:2]1=[C:6]=[C:5]([H:11])[C:4]([H:9])([H:10])[C:3]1([H:7])[H:8])[H:12]"
O        2.40135402      -0.17757087      -0.03153363
C        1.14573910      -0.13003247      -0.01326045
C        0.02145073      -1.10984924       0.00154927
C       -1.20503316      -0.19229016       0.02387638
C       -0.61338297       1.19597130       0.01565510
C        0.73237488       1.26101727      -0.02862160
H        0.12403858      -1.75243919       0.87738708
H        0.09429939      -1.74391375      -0.88362235
H       -1.86134943      -0.34535235      -0.83739781
H       -1.82648023      -0.34502523       0.91080064
H       -1.26295358       2.06705987       0.02283373
H        2.24994269       1.27242483      -0.05766636
12
Frame=15 idx=003161 GeodesicLength=0.5996368824299385 rxn_smarts="[O:1]=[C:2]1[C:3]([H:7])([H:8])[C:4]([H:9])([H:10])[C:5]([H:11])=[C:6]1[H:12]>>[O:1]([C:2]1=[C:6]=[C:5]([H:11])[C:4]([H:9])([H:10])[C:3]1([H:7])[H:8])[H:12]"
O        2.40168683      -0.18153365      -0.03045193
C        1.14651232      -0.13432522      -0.01266743
C        0.01910842      -1.11135956       0.00159550
C       -1.20554666      -0.19287139       0.02393306
C       -0.61175399       1.19380426       0.01618974
C        0.73389941       1.25910231      -0.02917789
H        0.12268270      -1.75382561       0.87737072
H        0.09322923      -1.74464254      -0.88399704
H       -1.86217641      -0.34420475      -0.83738249
H       -1.82739869      -0.34423612       0.91078737
H       -1.25937629       2.06637378       0.02274022
H        2.24913313       1.28771848      -0.05893983
12
Frame=16 idx=003161 GeodesicLength=0.6395713040148432 rxn_smarts="[O:1]=[C:2]1[C:3]([H:7])([H:8])[C:4]([H:9])([H:10])[C:5]([H:11])=[C:6]1[H:12]>>[O:1]([C:2]1=[C:6]=[C:5]([H:11])[C:4]([H:9])([H:10])[C:3]1([H:7])[H:8])[H:12]"
O        2.40203022      -0.18567426      -0.02924296
C        1.14730114      -0.13867875      -0.01202588
C        0.01675832      -1.11289283       0.00163636
C       -1.20604560      -0.19344756       0.02399258
C       -0.61007609       1.19162344       0.01676673
C        0.73547638       1.25713564      -0.02965004
H        0.12127485      -1.75527050       0.87732739
H        0.09214708      -1.74536921      -0.88439311
H       -1.86297789      -0.34301593      -0.83737528
H       -1.82831334      -0.34344386       0.91076676
H       -1.25573188       2.06568105       0.02262635
H        2.24815681       1.30335276      -0.06042890
