16
Frame=0 idx=000493 GeodesicLength=0.0 rxn_smarts="[C:1]([C@@:2]1([H:10])[C:3]([H:11])([H:12])[C@:4]([C:5]([H:14])([H:15])[H:16])([H:13])[O:6]1)([H:7])([H:8])[H:9]>>[C:1]([C@@:2]([C:3]([C:5]([H:14])([H:15])[H:16])([H:11])[H:12])([O+:6]=[C-:4][H:13])[H:10])([H:7])([H:8])[H:9]"
C        2.05293740       0.79124921      -0.00201688
C        0.89016188      -0.01073674      -0.53066383
C       -0.09794519      -0.54038900       0.51307669
C       -1.16886152       0.02407318      -1.17569856
C       -1.97700929      -0.15545815       0.47150569
O       -0.02137052       0.78506463      -1.25839260
H        2.64932162       1.18439360      -0.82630552
H        1.69526767       1.62917335       0.59877723
H        2.69475081       0.16026713       0.61704409
H        1.24326906      -0.83660571      -1.16640291
H       -0.05864233      -1.60477210       0.73238542
H       -0.02612865       0.04721596       1.42639484
H       -0.94906292      -1.01547049      -1.49345153
H       -1.88825777      -0.65336449       1.45235101
H       -2.24672800       0.87947195       0.65890255
H       -2.79170229      -0.68411228      -0.01750571
16
Frame=1 idx=000493 GeodesicLength=0.07009089654370214 rxn_smarts="[C:1]([C@@:2]1([H:10])[C:3]([H:11])([H:12])[C@:4]([C:5]([H:14])([H:15])[H:16])([H:13])[O:6]1)([H:7])([H:8])[H:9]>>[C:1]([C@@:2]([C:3]([C:5]([H:14])([H:15])[H:16])([H:11])[H:12])([O+:6]=[C-:4][H:13])[H:10])([H:7])([H:8])[H:9]"
C        2.03991889       0.80697280       0.00023012
C        0.89408328      -0.01925886      -0.52793365
C       -0.09651441      -0.55736129       0.50827181
C       -1.16052176      -0.00994355      -1.19026405
C       -1.97004821      -0.13947543       0.47997700
O       -0.02250850       0.76128356      -1.27082334
H        2.63407605       1.20418246      -0.82372780
H        1.66476498       1.64304855       0.59284041
H        2.68948954       0.19166852       0.62688284
H        1.26375407      -0.84169051      -1.15822608
H       -0.06156302      -1.62567224       0.70983172
H       -0.00683193       0.00269892       1.43733278
H       -0.94200969      -1.04767339      -1.51291752
H       -1.91001278      -0.66196499       1.44948584
H       -2.19617258       0.90225800       0.68919549
H       -2.81990393      -0.60907255      -0.01015557
16
Frame=2 idx=000493 GeodesicLength=0.14031821378786885 rxn_smarts="[C:1]([C@@:2]1([H:10])[C:3]([H:11])([H:12])[C@:4]([C:5]([H:14])([H:15])[H:16])([H:13])[O:6]1)([H:7])([H:8])[H:9]>>[C:1]([C@@:2]([C:3]([C:5]([H:14])([H:15])[H:16])([H:11])[H:12])([O+:6]=[C-:4][H:13])[H:10])([H:7])([H:8])[H:9]"
C        2.02552924       0.82281707       0.00247181
C        0.89760902      -0.02794991      -0.52514826
C       -0.09496423      -0.57491940       0.50370009
C       -1.15234992      -0.04510688      -1.20428241
C       -1.96208537      -0.12296152       0.48857270
O       -0.02407378       0.73656231      -1.28334927
H        2.61723800       1.22448103      -0.82109723
H        1.63247891       1.65637897       0.58692183
H        2.68287485       0.22370101       0.63660710
H        1.28413198      -0.84662679      -1.14971157
H       -0.06446603      -1.64684797       0.68742005
H        0.01250178      -0.04322670       1.44759474
H       -0.93456856      -1.08061461      -1.53277917
H       -1.93293692      -0.66930099       1.44560037
H       -2.14358188       0.92325013       0.72055126
H       -2.84333709      -0.52963574      -0.00307205
16
Frame=3 idx=000493 GeodesicLength=0.2107261543563061 rxn_smarts="[C:1]([C@@:2]1([H:10])[C:3]([H:11])([H:12])[C@:4]([C:5]([H:14])([H:15])[H:16])([H:13])[O:6]1)([H:7])([H:8])[H:9]>>[C:1]([C@@:2]([C:3]([C:5]([H:14])([H:15])[H:16])([H:11])[H:12])([O+:6]=[C-:4][H:13])[H:10])([H:7])([H:8])[H:9]"
C        2.00975523       0.83870421       0.00469184
C        0.90069633      -0.03677617      -0.52230783
C       -0.09331621      -0.59300347       0.49939964
C       -1.14438436      -0.08131222      -1.21769050
C       -1.95309442      -0.10591979       0.49730090
O       -0.02609498       0.71098735      -1.29588196
H        2.59879684       1.24516252      -0.81844592
H        1.59848737       1.66909902       0.58100611
H        2.67482741       0.25625235       0.64620346
H        1.30429380      -0.85135928      -1.14089349
H       -0.06729760      -1.66822254       0.66526384
H        0.03179625      -0.09030559       1.45709851
H       -0.92677760      -1.11414767      -1.55305821
H       -1.95710266      -0.67519398       1.44060865
H       -2.08921984       0.94222624       0.75304448
H       -2.86136557      -0.44619098       0.00366049
16
Frame=4 idx=000493 GeodesicLength=0.28140487946365933 rxn_smarts="[C:1]([C@@:2]1([H:10])[C:3]([H:11])([H:12])[C@:4]([C:5]([H:14])([H:15])[H:16])([H:13])[O:6]1)([H:7])([H:8])[H:9]>>[C:1]([C@@:2]([C:3]([C:5]([H:14])([H:15])[H:16])([H:11])[H:12])([O+:6]=[C-:4][H:13])[H:10])([H:7])([H:8])[H:9]"
C        1.99263372       0.85455528       0.00686874
C        0.90331825      -0.04569425      -0.51941724
C       -0.09159691      -0.61154115       0.49541477
C       -1.13667443      -0.11842882      -1.23044556
C       -1.94308898      -0.08838085       0.50617800
O       -0.02859749       0.68467615      -1.30834020
H        2.57880323       1.26609528      -0.81582348
H        1.56292781       1.68115428       0.57507442
H        2.66532176       0.28919857       0.65566709
H        1.32413831      -0.85582542      -1.13182330
H       -0.07000490      -1.68971417       0.64348438
H        0.05098114      -0.13826769       1.46580531
H       -0.91869824      -1.14809609      -1.57379348
H       -1.98258904      -0.67942036       1.43446983
H       -2.03343556       0.95896342       0.78673343
H       -2.87343868      -0.35927418       0.00994729
16
Frame=5 idx=000493 GeodesicLength=0.3522848377061676 rxn_smarts="[C:1]([C@@:2]1([H:10])[C:3]([H:11])([H:12])[C@:4]([C:5]([H:14])([H:15])[H:16])([H:13])[O:6]1)([H:7])([H:8])[H:9]>>[C:1]([C@@:2]([C:3]([C:5]([H:14])([H:15])[H:16])([H:11])[H:12])([O+:6]=[C-:4][H:13])[H:10])([H:7])([H:8])[H:9]"
C        1.97412618       0.87027868       0.00898660
C        0.90541296      -0.05467309      -0.51645490
C       -0.08981966      -0.63044188       0.49176582
C       -1.12921087      -0.15632390      -1.24244606
C       -1.93197952      -0.07035771       0.51519828
O       -0.03160997       0.65772886      -1.32056572
H        2.55720913       1.28710258      -0.81323610
H        1.52587612       1.69249757       0.56909555
H        2.65423023       0.32240449       0.66495140
H        1.34351577      -0.85998815      -1.12251711
H       -0.07251754      -1.71122521       0.62217402
H        0.07000827      -0.18676930       1.47360732
H       -0.91034820      -1.18228536      -1.59494318
H       -2.00939783      -0.68185322       1.42696882
H       -1.97648997       0.97327991       0.82166239
H       -2.87900511      -0.26937428       0.01575285
16
Frame=6 idx=000493 GeodesicLength=0.423509091007534 rxn_smarts="[C:1]([C@@:2]1([H:10])[C:3]([H:11])([H:12])[C@:4]([C:5]([H:14])([H:15])[H:16])([H:13])[O:6]1)([H:7])([H:8])[H:9]>>[C:1]([C@@:2]([C:3]([C:5]([H:14])([H:15])[H:16])([H:11])[H:12])([O+:6]=[C-:4][H:13])[H:10])([H:7])([H:8])[H:9]"
C        1.95438355       0.88579372       0.01101138
C        0.90698787      -0.06364567      -0.51343209
C       -0.08801812      -0.64959622       0.48851152
C       -1.12205113      -0.19481088      -1.25369050
C       -1.91987567      -0.05195817       0.52439367
O       -0.03514599       0.63033503      -1.33248537
H        2.53419797       1.30804312      -0.81077156
H        1.48760623       1.70309789       0.56304841
H        2.64164931       0.35570640       0.67405061
H        1.36233769      -0.86377192      -1.11305771
H       -0.07477991      -1.73265201       0.60146654
H        0.08881519      -0.23550934       1.48055840
H       -0.90182820      -1.21647658      -1.61657115
H       -2.03760854      -0.68219196       1.41816800
H       -1.91892220       0.98495708       0.85783099
H       -2.87774804      -0.17732050       0.02096887
16
Frame=7 idx=000493 GeodesicLength=0.4950841152311633 rxn_smarts="[C:1]([C@@:2]1([H:10])[C:3]([H:11])([H:12])[C@:4]([C:5]([H:14])([H:15])[H:16])([H:13])[O:6]1)([H:7])([H:8])[H:9]>>[C:1]([C@@:2]([C:3]([C:5]([H:14])([H:15])[H:16])([H:11])[H:12])([O+:6]=[C-:4][H:13])[H:10])([H:7])([H:8])[H:9]"
C        1.93346160       0.90102873       0.01292021
C        0.90802066      -0.07257085      -0.51033620
C       -0.08620971      -0.66890485       0.48567545
C       -1.11519164      -0.23373563      -1.26413037
C       -1.90677566      -0.03326045       0.53377657
O       -0.03921442       0.60262925      -1.34398082
H        2.50983372       1.32876872      -0.80846267
H        1.44828059       1.71294485       0.55689556
H        2.62756585       0.38897625       0.68293541
H        1.38049263      -0.86713997      -1.10348147
H       -0.07673228      -1.75390408       0.58143702
H        0.10737718      -0.28419111       1.48664749
H       -0.89320032      -1.25047352      -1.63865726
H       -2.06721966      -0.68024096       1.40795314
H       -1.86111232       0.99384085       0.89524095
H       -2.86937621      -0.08376724       0.02556699
16
Frame=8 idx=000493 GeodesicLength=0.567119093665364 rxn_smarts="[C:1]([C@@:2]1([H:10])[C:3]([H:11])([H:12])[C@:4]([C:5]([H:14])([H:15])[H:16])([H:13])[O:6]1)([H:7])([H:8])[H:9]>>[C:1]([C@@:2]([C:3]([C:5]([H:14])([H:15])[H:16])([H:11])[H:12])([O+:6]=[C-:4][H:13])[H:10])([H:7])([H:8])[H:9]"
C        1.91149824       0.91592695       0.01468920
C        0.90853358      -0.08139969      -0.50717447
C       -0.08441246      -0.68827047       0.48329342
C       -1.10865675      -0.27293670      -1.27378241
C       -1.89277492      -0.01437395       0.54337635
O       -0.04381796       0.57476239      -1.35500125
H        2.48428729       1.34916281      -0.80637035
H        1.40811352       1.72204051       0.55061582
H        2.61208215       0.42209095       0.69160404
H        1.39793893      -0.87005055      -1.09385766
H       -0.07831550      -1.77490099       0.56216929
H        0.12568609      -0.33256207       1.49193859
H       -0.88455528      -1.28407201      -1.66123453
H       -2.09825058      -0.67575527       1.39632028
H       -1.80355281       0.99980210       0.93386091
H       -2.85380353       0.01053599       0.02955278
16
Frame=9 idx=000493 GeodesicLength=0.6394865926900405 rxn_smarts="[C:1]([C@@:2]1([H:10])[C:3]([H:11])([H:12])[C@:4]([C:5]([H:14])([H:15])[H:16])([H:13])[O:6]1)([H:7])([H:8])[H:9]>>[C:1]([C@@:2]([C:3]([C:5]([H:14])([H:15])[H:16])([H:11])[H:12])([O+:6]=[C-:4][H:13])[H:10])([H:7])([H:8])[H:9]"
C        1.88848166       0.93043532       0.01631540
C        0.90847676      -0.09011116      -0.50391116
C       -0.08263068      -0.70759842       0.48134498
C       -1.10237702      -0.31229375      -1.28256448
C       -1.87779127       0.00461154       0.55317659
O       -0.04894887       0.54682173      -1.36538293
H        2.45753364       1.36909374      -0.80445705
H        1.36720269       1.73039058       0.54418643
H        2.59510651       0.45495816       0.69999622
H        1.41452291      -0.87250150      -1.08418076
H       -0.07948716      -1.79556196       0.54367373
H        0.14375671      -0.38034339       1.49635274
H       -0.87594419      -1.31712182      -1.68419692
H       -2.13056554      -0.66858990       1.38300502
H       -1.74649350       1.00275844       0.97359988
H       -2.83084265       0.10505239       0.03304232
16
Frame=10 idx=000493 GeodesicLength=0.7123627634103906 rxn_smarts="[C:1]([C@@:2]1([H:10])[C:3]([H:11])([H:12])[C@:4]([C:5]([H:14])([H:15])[H:16])([H:13])[O:6]1)([H:7])([H:8])[H:9]>>[C:1]([C@@:2]([C:3]([C:5]([H:14])([H:15])[H:16])([H:11])[H:12])([O+:6]=[C-:4][H:13])[H:10])([H:7])([H:8])[H:9]"
C        1.86463269       0.94452133       0.01777783
C        0.90792572      -0.09865075      -0.50057531
C       -0.08088227      -0.72680498       0.47987029
C       -1.09639006      -0.35164758      -1.29057411
C       -1.86204511       0.02354597       0.56322154
O       -0.05458992       0.51896960      -1.37515926
H        2.42984761       1.38850568      -0.80280431
H        1.32579567       1.73800799       0.53761102
H        2.57686642       0.48745987       0.70813622
H        1.43029321      -0.87444823      -1.07454825
H       -0.08019803      -1.81582990       0.52600555
H        0.16159681      -0.42739022       1.50005108
H       -0.86748168      -1.34941877      -1.70763482
H       -2.16415345      -0.65838535       1.36819531
H       -1.69052526       1.00266024       1.01433936
H       -2.80069233       0.19890510       0.03608787
16
Frame=11 idx=000493 GeodesicLength=0.7857522307256077 rxn_smarts="[C:1]([C@@:2]1([H:10])[C:3]([H:11])([H:12])[C@:4]([C:5]([H:14])([H:15])[H:16])([H:13])[O:6]1)([H:7])([H:8])[H:9]>>[C:1]([C@@:2]([C:3]([C:5]([H:14])([H:15])[H:16])([H:11])[H:12])([O+:6]=[C-:4][H:13])[H:10])([H:7])([H:8])[H:9]"
C        1.84000060       0.95817315       0.01907876
C        0.90688907      -0.10700262      -0.49715750
C       -0.07917135      -0.74583820       0.47885239
C       -1.09065310      -0.39091352      -1.29782116
C       -1.84556717       0.04232687       0.57351399
O       -0.06071194       0.49126762      -1.38428844
H        2.40128850       1.40735775      -0.80139558
H        1.28397034       1.74491446       0.53087798
H        2.55738141       0.51955697       0.71601789
H        1.44521685      -0.87588979      -1.06497342
H       -0.08042521      -1.83567312       0.50914674
H        0.17924123      -0.47358428       1.50304769
H       -0.85925205      -1.38085133      -1.73150530
H       -2.19887374      -0.64490665       1.35180048
H       -1.63592478       0.99950103       1.05595348
H       -2.76340867       0.29156167       0.03885200
16
Frame=12 idx=000493 GeodesicLength=0.8597466925969605 rxn_smarts="[C:1]([C@@:2]1([H:10])[C:3]([H:11])([H:12])[C@:4]([C:5]([H:14])([H:15])[H:16])([H:13])[O:6]1)([H:7])([H:8])[H:9]>>[C:1]([C@@:2]([C:3]([C:5]([H:14])([H:15])[H:16])([H:11])[H:12])([O+:6]=[C-:4][H:13])[H:10])([H:7])([H:8])[H:9]"
C        1.81467128       0.97139165       0.02022374
C        0.90541463      -0.11515218      -0.49366801
C       -0.07749816      -0.76467145       0.47828500
C       -1.08514678      -0.43001577      -1.30437240
C       -1.82846633       0.06085671       0.58406518
O       -0.06728101       0.46377373      -1.39280305
H        2.37197130       1.42565052      -0.80023373
H        1.24178771       1.75112727       0.52399200
H        2.53674097       0.55121928       0.72366859
H        1.45934810      -0.87682227      -1.05549170
H       -0.08014054      -1.85508953       0.49308467
H        0.19673300      -0.51888226       1.50540972
H       -0.85134465      -1.41131685      -1.75582152
H       -2.23458108      -0.62785705       1.33385509
H       -1.58300565       0.99332309       1.09827385
H       -2.71920281       0.38246511       0.04153258
16
Frame=13 idx=000493 GeodesicLength=0.9343510768474951 rxn_smarts="[C:1]([C@@:2]1([H:10])[C:3]([H:11])([H:12])[C@:4]([C:5]([H:14])([H:15])[H:16])([H:13])[O:6]1)([H:7])([H:8])[H:9]>>[C:1]([C@@:2]([C:3]([C:5]([H:14])([H:15])[H:16])([H:11])[H:12])([O+:6]=[C-:4][H:13])[H:10])([H:7])([H:8])[H:9]"
C        1.78857528       0.98418659       0.02124883
C        0.90347006      -0.12311450      -0.49008490
C       -0.07585295      -0.78327795       0.47810483
C       -1.07978352      -0.46895593      -1.31022236
C       -1.81066632       0.07907679       0.59484237
O       -0.07425605       0.43644718      -1.40064558
H        2.34180084       1.44337548      -0.79921958
H        1.19920019       1.75665222       0.51698115
H        2.51483850       0.58248072       0.73108066
H        1.47260584      -0.87727360      -1.04607967
H       -0.07933765      -1.87406190       0.47773359
H        0.21411079      -0.56318747       1.50706937
H       -0.84384466      -1.44081243      -1.78048617
H       -2.27098806      -0.60701333       1.31409529
H       -1.53183082       0.98418418       1.14114673
H       -2.66804147       0.47129395       0.04443544
16
Frame=14 idx=000493 GeodesicLength=1.0097511807653243 rxn_smarts="[C:1]([C@@:2]1([H:10])[C:3]([H:11])([H:12])[C@:4]([C:5]([H:14])([H:15])[H:16])([H:13])[O:6]1)([H:7])([H:8])[H:9]>>[C:1]([C@@:2]([C:3]([C:5]([H:14])([H:15])[H:16])([H:11])[H:12])([O+:6]=[C-:4][H:13])[H:10])([H:7])([H:8])[H:9]"
C        1.76181262       0.99657378       0.02216141
C        0.90114318      -0.13087670      -0.48643828
C       -0.07423719      -0.80167374       0.47831617
C       -1.07455881      -0.50768432      -1.31549403
C       -1.79235750       0.09691374       0.60585612
O       -0.08159321       0.40933588      -1.40793171
H        2.31092048       1.46059821      -0.79837571
H        1.15621463       1.76148390       0.50986585
H        2.49181103       0.61331874       0.73831116
H        1.48514860      -0.87722609      -1.03678446
H       -0.07799068      -1.89263082       0.46308216
H        0.23140661      -0.60657249       1.50814656
H       -0.83682692      -1.46925650      -1.80556675
H       -2.30789800      -0.58197390       1.29273000
H       -1.48270033       0.97219655       1.18434718
H       -2.61029452       0.55747376       0.04777432
16
Frame=15 idx=000493 GeodesicLength=1.086096464792142 rxn_smarts="[C:1]([C@@:2]1([H:10])[C:3]([H:11])([H:12])[C@:4]([C:5]([H:14])([H:15])[H:16])([H:13])[O:6]1)([H:7])([H:8])[H:9]>>[C:1]([C@@:2]([C:3]([C:5]([H:14])([H:15])[H:16])([H:11])[H:12])([O+:6]=[C-:4][H:13])[H:10])([H:7])([H:8])[H:9]"
C        1.73432441       1.00858261       0.02299449
C        0.89844356      -0.13845556      -0.48272348
C       -0.07264330      -0.81988484       0.47887269
C       -1.06941744      -0.54623781      -1.32023055
C       -1.77353792       0.11434095       0.61707286
O       -0.08924967       0.38238046      -1.41469212
H        2.27925847       1.47738339      -0.79763206
H        1.11271552       1.76560531       0.50266905
H        2.46759899       0.64379679       0.74539154
H        1.49701127      -0.87668485      -1.02758491
H       -0.07609543      -1.91082949       0.44905894
H        0.24865824      -0.64906994       1.50862598
H       -0.83037563      -1.49667219      -1.83101617
H       -2.34500637      -0.55241489       1.26963964
H       -1.43564405       0.95744476       1.22770815
H       -2.54604065       0.64071531       0.05184594
16
Frame=16 idx=000493 GeodesicLength=1.1636349508152806 rxn_smarts="[C:1]([C@@:2]1([H:10])[C:3]([H:11])([H:12])[C@:4]([C:5]([H:14])([H:15])[H:16])([H:13])[O:6]1)([H:7])([H:8])[H:9]>>[C:1]([C@@:2]([C:3]([C:5]([H:14])([H:15])[H:16])([H:11])[H:12])([O+:6]=[C-:4][H:13])[H:10])([H:7])([H:8])[H:9]"
C        1.70604472       1.02025068       0.02378121
C        0.89538900      -0.14586988      -0.47894404
C       -0.07106455      -0.83795591       0.47973958
C       -1.06431576      -0.58467320      -1.32449976
C       -1.75422115       0.13135773       0.62845574
O       -0.09718742       0.35551492      -1.42099236
H        2.24673497       1.49382278      -0.79693345
H        1.06856028       1.76899396       0.49542137
H        2.44214646       0.67398759       0.75236978
H        1.50825731      -0.87565275      -1.01846716
H       -0.07364519      -1.92871516       0.43560880
H        0.26589804      -0.69074124       1.50851992
H       -0.82457529      -1.52310790      -1.85681617
H       -2.38197676      -0.51797451       1.24472643
H       -1.39068558       0.94001628       1.27108689
H       -2.47535907       0.72074660       0.05694321
