15
Frame=0 idx=007162 GeodesicLength=0.0 rxn_smarts="[C:1]([C@@:2]1([H:11])[C:3]([H:12])([H:13])[N:4]1[C:5]([C:6]#[N:7])([H:14])[H:15])([H:8])([H:9])[H:10]>>[C:1]([N+:4]1([C:5]([C:6]#[N:7])([H:14])[H:15])[C-:2]([H:11])[C:3]1([H:12])[H:13])([H:8])([H:9])[H:10]"
C       -1.37418537      -0.38765784       0.75130691
C       -0.97710931       0.82820717      -0.75826743
C        0.04185897       1.70302742      -0.17319044
N        0.18301110       0.37598080       0.38079161
C        1.28845827      -0.40195860      -0.14735924
C        1.04574248      -1.84871011      -0.11364676
N        0.89930024      -2.98558346      -0.10989591
H       -1.91983684       0.31993062       1.36125672
H       -0.87606488      -1.12659470       1.38766277
H       -2.04506092      -0.92214956       0.08302024
H       -0.62281376       0.34310123      -1.67549164
H        0.89780288       1.96563991      -0.78847892
H       -0.23425567       2.47781385       0.53773759
H        1.51188048      -0.13642549      -1.18909843
H        2.18127238      -0.20462120       0.45365294
15
Frame=1 idx=007162 GeodesicLength=0.049134807048899956 rxn_smarts="[C:1]([C@@:2]1([H:11])[C:3]([H:12])([H:13])[N:4]1[C:5]([C:6]#[N:7])([H:14])[H:15])([H:8])([H:9])[H:10]>>[C:1]([N+:4]1([C:5]([C:6]#[N:7])([H:14])[H:15])[C-:2]([H:11])[C:3]1([H:12])[H:13])([H:8])([H:9])[H:10]"
C       -1.37958102      -0.38020298       0.75698778
C       -0.96924560       0.81279129      -0.75993759
C        0.03977002       1.70107304      -0.17587343
N        0.18342129       0.37081208       0.37066459
C        1.29510240      -0.40300581      -0.14864091
C        1.05220933      -1.84985005      -0.12667357
N        0.90356624      -2.98639512      -0.13284357
H       -1.91704929       0.33853612       1.36161233
H       -0.89022736      -1.11815654       1.40122821
H       -2.05909611      -0.92177895       0.10274330
H       -0.61712704       0.33315719      -1.68030747
H        0.89587336       1.97206710      -0.78750860
H       -0.24610563       2.46814952       0.53938680
H        1.52873822      -0.12919712      -1.18579146
H        2.17975121      -0.20799977       0.46495359
15
Frame=2 idx=007162 GeodesicLength=0.0982756824663876 rxn_smarts="[C:1]([C@@:2]1([H:11])[C:3]([H:12])([H:13])[N:4]1[C:5]([C:6]#[N:7])([H:14])[H:15])([H:8])([H:9])[H:10]>>[C:1]([N+:4]1([C:5]([C:6]#[N:7])([H:14])[H:15])[C-:2]([H:11])[C:3]1([H:12])[H:13])([H:8])([H:9])[H:10]"
C       -1.38495817      -0.37268207       0.76253408
C       -0.96143014       0.79736927      -0.76146292
C        0.03762348       1.69889015      -0.17846112
N        0.18387858       0.36545913       0.36069645
C        1.30174458      -0.40410171      -0.14990210
C        1.05898012      -1.85099890      -0.13995631
N        0.90824649      -2.98714115      -0.15593022
H       -1.91439279       0.35706839       1.36151350
H       -0.90464277      -1.10919845       1.41516041
H       -2.07303374      -0.92106183       0.12250393
H       -0.61159049       0.32321701      -1.68498497
H        0.89371221       1.97830807      -0.78653455
H       -0.25768092       2.45831234       0.54097081
H        1.54544771      -0.12188929      -1.18227845
H        2.17809584      -0.21155095       0.47613144
15
Frame=3 idx=007162 GeodesicLength=0.14740138569930616 rxn_smarts="[C:1]([C@@:2]1([H:11])[C:3]([H:12])([H:13])[N:4]1[C:5]([C:6]#[N:7])([H:14])[H:15])([H:8])([H:9])[H:10]>>[C:1]([N+:4]1([C:5]([C:6]#[N:7])([H:14])[H:15])[C-:2]([H:11])[C:3]1([H:12])[H:13])([H:8])([H:9])[H:10]"
C       -1.39032674      -0.36510792       0.76792609
C       -0.95367044       0.78197235      -0.76282527
C        0.03543859       1.69648536      -0.18093080
N        0.18437877       0.35991804       0.35089093
C        1.30836782      -0.40525393      -0.15116797
C        1.06605061      -1.85215961      -0.15350308
N        0.91340502      -2.98784029      -0.17903636
H       -1.91190283       0.37550085       1.36094151
H       -0.91932563      -1.09970042       1.42945108
H       -2.08685339      -0.92001779       0.14225465
H       -0.60622932       0.31332721      -1.68951919
H        0.89133379       1.98436187      -0.78554461
H       -0.26894104       2.44831357       0.54253413
H        1.56195743      -0.11452115      -1.17859488
H        2.17631737      -0.21527814       0.48712375
15
Frame=4 idx=007162 GeodesicLength=0.19648893425599112 rxn_smarts="[C:1]([C@@:2]1([H:11])[C:3]([H:12])([H:13])[N:4]1[C:5]([C:6]#[N:7])([H:14])[H:15])([H:8])([H:9])[H:10]>>[C:1]([N+:4]1([C:5]([C:6]#[N:7])([H:14])[H:15])[C-:2]([H:11])[C:3]1([H:12])[H:13])([H:8])([H:9])[H:10]"
C       -1.39569603      -0.35749432       0.77314369
C       -0.94597379       0.76663245      -0.76400884
C        0.03323438       1.69386660      -0.18325874
N        0.18491762       0.35418586       0.34125008
C        1.31495578      -0.40646920      -0.15246587
C        1.07341508      -1.85333480      -0.16732226
N        0.91910221      -2.98851589      -0.20203361
H       -1.90961249       0.39380659       1.35988059
H       -0.93428920      -1.08964513       1.44408756
H       -2.10053704      -0.91866727       0.16194803
H       -0.60106831       0.30353638      -1.69390722
H        0.88875366       1.99022992      -0.78452376
H       -0.27984808       2.43816349       0.54412399
H        1.57821672      -0.10711168      -1.17478038
H        2.17442949      -0.21918301       0.49786674
15
Frame=5 idx=007162 GeodesicLength=0.2455125223172443 rxn_smarts="[C:1]([C@@:2]1([H:11])[C:3]([H:12])([H:13])[N:4]1[C:5]([C:6]#[N:7])([H:14])[H:15])([H:8])([H:9])[H:10]>>[C:1]([N+:4]1([C:5]([C:6]#[N:7])([H:14])[H:15])[C-:2]([H:11])[C:3]1([H:12])[H:13])([H:8])([H:9])[H:10]"
C       -1.40107325      -0.34985684       0.77816696
C       -0.93834801       0.75138132      -0.76500064
C        0.03102892       1.69104310      -0.18542071
N        0.18548958       0.34826129       0.33177527
C        1.32149290      -0.40775274      -0.15382408
C        1.08106975      -1.85452777      -0.18141988
N        0.92539081      -2.98919619      -0.22478907
H       -1.90754961       0.41195910       1.35831620
H       -0.94954473      -1.07901740       1.45905043
H       -2.11406903      -0.91703126       0.18153871
H       -0.59613277       0.29389401      -1.69814866
H        0.88598851       1.99591633      -0.78345596
H       -0.29036671       2.42787101       0.54579057
H        1.59417606      -0.09967847      -1.17087745
H        2.17244760      -0.22326549       0.50829832
15
Frame=6 idx=007162 GeodesicLength=0.2944424607030283 rxn_smarts="[C:1]([C@@:2]1([H:11])[C:3]([H:12])([H:13])[N:4]1[C:5]([C:6]#[N:7])([H:14])[H:15])([H:8])([H:9])[H:10]>>[C:1]([N+:4]1([C:5]([C:6]#[N:7])([H:14])[H:15])[C-:2]([H:11])[C:3]1([H:12])[H:13])([H:8])([H:9])[H:10]"
C       -1.40646856      -0.34221236       0.78297628
C       -0.93080566       0.73625848      -0.76579153
C        0.02883896       1.68802714      -0.18738862
N        0.18608503       0.34214424       0.32246695
C        1.32796502      -0.40911114      -0.15527676
C        1.08901742      -1.85574884      -0.19580310
N        0.93233840      -2.98992649      -0.24714069
H       -1.90573653       0.42993018       1.35623729
H       -0.96510869      -1.06780395       1.47430558
H       -2.12744521      -0.91512501       0.20098209
H       -0.59145381       0.28446270      -1.70225092
H        0.88305885       2.00142911      -0.78232286
H       -0.30046281       2.41744201       0.54759503
H        1.60978425      -0.09223818      -1.16694194
H        2.17039332      -0.22752789       0.51835318
15
Frame=7 idx=007162 GeodesicLength=0.343324290854035 rxn_smarts="[C:1]([C@@:2]1([H:11])[C:3]([H:12])([H:13])[N:4]1[C:5]([C:6]#[N:7])([H:14])[H:15])([H:8])([H:9])[H:10]>>[C:1]([N+:4]1([C:5]([C:6]#[N:7])([H:14])[H:15])[C-:2]([H:11])[C:3]1([H:12])[H:13])([H:8])([H:9])[H:10]"
C       -1.41189528      -0.33453835       0.78761249
C       -0.92333282       0.72125213      -0.76637186
C        0.02668140       1.68480738      -0.18914779
N        0.18671568       0.33581206       0.31332034
C        1.33435120      -0.41056777      -0.15683238
C        1.09719244      -1.85695323      -0.21054195
N        0.94000909      -2.99067280      -0.26910201
H       -1.90418499       0.44773649       1.35365921
H       -0.98105925      -1.05592011       1.48987147
H       -2.14060387      -0.91302464       0.22025752
H       -0.58701317       0.27523019      -1.70619306
H        0.87996744       2.00674769      -0.78107833
H       -0.31013482       2.40687866       0.54951283
H        1.62504112      -0.08481998      -1.16296471
H        2.16826584      -0.23196771       0.52799821
15
Frame=8 idx=007162 GeodesicLength=0.39209653398393834 rxn_smarts="[C:1]([C@@:2]1([H:11])[C:3]([H:12])([H:13])[N:4]1[C:5]([C:6]#[N:7])([H:14])[H:15])([H:8])([H:9])[H:10]>>[C:1]([N+:4]1([C:5]([C:6]#[N:7])([H:14])[H:15])[C-:2]([H:11])[C:3]1([H:12])[H:13])([H:8])([H:9])[H:10]"
C       -1.41733972      -0.32686595       0.79205702
C       -0.91594906       0.70636125      -0.76675462
C        0.02454539       1.68139524      -0.19071677
N        0.18736468       0.32929968       0.30435324
C        1.34067030      -0.41209773      -0.15847405
C        1.10565886      -1.85817560      -0.22559004
N        0.94831518      -2.99148275      -0.29072701
H       -1.90291362       0.46536509       1.35055593
H       -0.99730552      -1.04336742       1.50572640
H       -2.15358263      -0.91070775       0.23940384
H       -0.58283778       0.26618473      -1.70998177
H        0.87672105       2.01188486      -0.77977330
H       -0.31938441       2.39619325       0.55157161
H        1.63996372      -0.07737863      -1.15894536
H        2.16607354      -0.23660827       0.53729486
15
Frame=9 idx=007162 GeodesicLength=0.4408011575307195 rxn_smarts="[C:1]([C@@:2]1([H:11])[C:3]([H:12])([H:13])[N:4]1[C:5]([C:6]#[N:7])([H:14])[H:15])([H:8])([H:9])[H:10]>>[C:1]([N+:4]1([C:5]([C:6]#[N:7])([H:14])[H:15])[C-:2]([H:11])[C:3]1([H:12])[H:13])([H:8])([H:9])[H:10]"
C       -1.42279288      -0.31919202       0.79633996
C       -0.90863624       0.69153207      -0.76694174
C        0.02242794       1.67778390      -0.19212447
N        0.18805082       0.32260853       0.29557143
C        1.34694210      -0.41369577      -0.16017219
C        1.11440592      -1.85937840      -0.24097693
N        0.95716558      -2.99230602      -0.31220299
H       -1.90194308       0.48282878       1.34693939
H       -1.01384559      -1.03010874       1.52193014
H       -2.16637891      -0.90819282       0.25846841
H       -0.57888592       0.25723809      -1.71359560
H        0.87330760       2.01683079      -0.77842905
H       -0.32825521       2.38540912       0.55371392
H        1.65461872      -0.06988926      -1.15482462
H        2.16381914      -0.24146824       0.54630434
15
Frame=10 idx=007162 GeodesicLength=0.48945175529227536 rxn_smarts="[C:1]([C@@:2]1([H:11])[C:3]([H:12])([H:13])[N:4]1[C:5]([C:6]#[N:7])([H:14])[H:15])([H:8])([H:9])[H:10]>>[C:1]([N+:4]1([C:5]([C:6]#[N:7])([H:14])[H:15])[C-:2]([H:11])[C:3]1([H:12])[H:13])([H:8])([H:9])[H:10]"
C       -1.42824779      -0.31151492       0.80048963
C       -0.90139360       0.67671999      -0.76693708
C        0.02032344       1.67396599      -0.19339742
N        0.18877551       0.31574376       0.28699341
C        1.35318141      -0.41535795      -0.16188692
C        1.12345987      -1.86054234      -0.25669715
N        0.96647490      -2.99309829      -0.33374390
H       -1.90129008       0.50015118       1.34278451
H       -1.03066226      -1.01607853       1.53853183
H       -2.17898278      -0.90551294       0.27750615
H       -0.57514873       0.24830909      -1.71702235
H        0.86972578       2.02157480      -0.77708243
H       -0.33677507       2.37454182       0.55590567
H        1.66905819      -0.06232490      -1.15054210
H        2.16150123      -0.24657677       0.55509815
15
Frame=11 idx=007162 GeodesicLength=0.5380280775567574 rxn_smarts="[C:1]([C@@:2]1([H:11])[C:3]([H:12])([H:13])[N:4]1[C:5]([C:6]#[N:7])([H:14])[H:15])([H:8])([H:9])[H:10]>>[C:1]([N+:4]1([C:5]([C:6]#[N:7])([H:14])[H:15])[C-:2]([H:11])[C:3]1([H:12])[H:13])([H:8])([H:9])[H:10]"
C       -1.43371087      -0.30383983       0.80451663
C       -0.89422817       0.66194816      -0.76673801
C        0.01824053       1.66993777      -0.19450902
N        0.18952359       0.30869731       0.27861409
C        1.35936468      -0.41709733      -0.16364507
C        1.13280508      -1.86167896      -0.27275836
N        0.97632432      -2.99389140      -0.35523135
H       -1.90093360       0.51732988       1.33810622
H       -1.04778652      -1.00124094       1.55544715
H       -2.19138207      -0.90268023       0.29648458
H       -0.57164430       0.23945163      -1.72026380
H        0.86598179       2.02611166      -0.77569712
H       -0.34491774       2.36356957       0.55818103
H        1.68324299      -0.05470798      -1.14613477
H        2.15912029      -0.25190932       0.56362779
15
Frame=12 idx=007162 GeodesicLength=0.5865489506538331 rxn_smarts="[C:1]([C@@:2]1([H:11])[C:3]([H:12])([H:13])[N:4]1[C:5]([C:6]#[N:7])([H:14])[H:15])([H:8])([H:9])[H:10]>>[C:1]([N+:4]1([C:5]([C:6]#[N:7])([H:14])[H:15])[C-:2]([H:11])[C:3]1([H:12])[H:13])([H:8])([H:9])[H:10]"
C       -1.43918021      -0.29616849       0.80843733
C       -0.88713280       0.64717964      -0.76634004
C        0.01617911       1.66569753      -0.19548370
N        0.19031004       0.30147738       0.27044908
C        1.36551438      -0.41890628      -0.16541727
C        1.14246057      -1.86276356      -0.28915980
N        0.98664211      -2.99464977      -0.37683033
H       -1.90090733       0.53436397       1.33289417
H       -1.06520695      -0.98556145       1.57271667
H       -2.20358918      -0.89969902       0.31544855
H       -0.56835635       0.23059092      -1.72329762
H        0.86207223       2.03043616      -0.77430810
H       -0.35271336       2.35251886       0.56050498
H        1.69721795      -0.04701813      -1.14155703
H        2.15668979      -0.25749775       0.57194310
15
Frame=13 idx=007162 GeodesicLength=0.6350380272879788 rxn_smarts="[C:1]([C@@:2]1([H:11])[C:3]([H:12])([H:13])[N:4]1[C:5]([C:6]#[N:7])([H:14])[H:15])([H:8])([H:9])[H:10]>>[C:1]([N+:4]1([C:5]([C:6]#[N:7])([H:14])[H:15])[C-:2]([H:11])[C:3]1([H:12])[H:13])([H:8])([H:9])[H:10]"
C       -1.44464857      -0.28849290       0.81228803
C       -0.88010285       0.63236627      -0.76574423
C        0.01412943       1.66123190      -0.19635055
N        0.19113571       0.29408617       0.26251418
C        1.37164183      -0.42078408      -0.16716295
C        1.15244009      -1.86377807      -0.30590614
N        0.99739051      -2.99533256      -0.39875865
H       -1.90121460       0.55128243       1.32714002
H       -1.08291571      -0.96897625       1.59035835
H       -2.21561011      -0.89657061       0.33446423
H       -0.56526663       0.22164492      -1.72610519
H        0.85798467       2.03452916      -0.77295104
H       -0.36019130       2.34139801       0.56283055
H        1.71103537      -0.03923120      -1.13674050
H        2.15419215      -0.26337318       0.58012387
15
Frame=14 idx=007162 GeodesicLength=0.6835152027326206 rxn_smarts="[C:1]([C@@:2]1([H:11])[C:3]([H:12])([H:13])[N:4]1[C:5]([C:6]#[N:7])([H:14])[H:15])([H:8])([H:9])[H:10]>>[C:1]([N+:4]1([C:5]([C:6]#[N:7])([H:14])[H:15])[C-:2]([H:11])[C:3]1([H:12])[H:13])([H:8])([H:9])[H:10]"
C       -1.45010954      -0.28080419       0.81610959
C       -0.87313480       0.61745897      -0.76494766
C        0.01208372       1.65652887      -0.19714224
N        0.19200336       0.28652870       0.25482989
C        1.37775807      -0.42273019      -0.16883655
C        1.16275237      -1.86470208      -0.32300316
N        1.00852144      -2.99588935      -0.42125782
H       -1.90187425       0.56811190       1.32082100
H       -1.10090179      -0.95140156       1.60840335
H       -2.22742974      -0.89331866       0.35359692
H       -0.56236300       0.21252223      -1.72866307
H        0.85370926       2.03837038      -0.77166735
H       -0.36737377       2.33021889       0.56510770
H        1.72474992      -0.03132002      -1.13160772
H        2.15160877      -0.26957391       0.58825712
15
Frame=15 idx=007162 GeodesicLength=0.732006613477773 rxn_smarts="[C:1]([C@@:2]1([H:11])[C:3]([H:12])([H:13])[N:4]1[C:5]([C:6]#[N:7])([H:14])[H:15])([H:8])([H:9])[H:10]>>[C:1]([N+:4]1([C:5]([C:6]#[N:7])([H:14])[H:15])[C-:2]([H:11])[C:3]1([H:12])[H:13])([H:8])([H:9])[H:10]"
C       -1.45556200      -0.27309160       0.81993885
C       -0.86622623       0.60241240      -0.76394438
C        0.01003516       1.65157522      -0.19788840
N        0.19291441       0.27880562       0.24741530
C        1.38387304      -0.42474576      -0.17039746
C        1.17340844      -1.86551480      -0.34045773
N        1.02002433      -2.99627421      -0.44454760
H       -1.90289844       0.58487726       1.31392120
H       -1.11916583      -0.93276471       1.62686818
H       -2.23905504      -0.88994224       0.37291164
H       -0.55963329       0.20313610      -1.73094513
H        0.84923625       2.04193642      -0.77049796
H       -0.37427875       2.31899156       0.56729224
H        1.73840716      -0.02326199      -1.12608655
H        2.14892081      -0.27613926       0.59641780
15
Frame=16 idx=007162 GeodesicLength=0.7805372578576004 rxn_smarts="[C:1]([C@@:2]1([H:11])[C:3]([H:12])([H:13])[N:4]1[C:5]([C:6]#[N:7])([H:14])[H:15])([H:8])([H:9])[H:10]>>[C:1]([N+:4]1([C:5]([C:6]#[N:7])([H:14])[H:15])[C-:2]([H:11])[C:3]1([H:12])[H:13])([H:8])([H:9])[H:10]"
C       -1.46100241      -0.26534404       0.82380892
C       -0.85937425       0.58718063      -0.76272426
C        0.00797532       1.64635445      -0.19861562
N        0.19387064       0.27091408       0.24028967
C        1.38999587      -0.42683447      -0.17180616
C        1.18442506      -1.86619401      -0.35827603
N        1.03188322      -2.99643124      -0.46883833
H       -1.90429618       0.60160030       1.30641981
H       -1.13770371      -0.91298714       1.64576117
H       -2.25048781      -0.88643375       0.39247098
H       -0.55706513       0.19340201      -1.73292328
H        0.84455061       2.04520192      -0.76948305
H       -0.38092843       2.30772099       0.56934337
H        1.75204942      -0.01503748      -1.12010094
H        2.14610779      -0.28311224       0.60467375
