12
Frame=0 idx=005240 GeodesicLength=0.0 rxn_smarts="[C:1]([c:2]1[c:3]([H:10])[n:4]([H:11])[n:5][c:6]1[H:12])([H:7])([H:8])[H:9]>>[C:1]([C:2](=[C:6]=[N:5][N:4]([C:3][H:10])[H:11])[H:12])([H:7])([H:8])[H:9]"
C       -2.15478156       0.07172045       0.18881255
C       -0.82276271       0.32649150       0.77679945
C        1.52230121      -1.36687891      -0.48245798
N        2.11438291      -0.23037624      -0.36343945
N        1.47469280       0.99944538      -0.08181044
C        0.27469954       0.80896052       0.27010505
H       -2.37243218       0.64476358      -0.71420373
H       -2.10413252      -0.98489091      -0.09490170
H       -2.95823037       0.17857642       0.91493466
H        2.30774307      -2.10784852      -0.69365341
H        3.10499955      -0.04955109      -0.47431124
H       -0.38647973       1.70958778       0.75412621
12
Frame=1 idx=005240 GeodesicLength=0.08362334004832246 rxn_smarts="[C:1]([c:2]1[c:3]([H:10])[n:4]([H:11])[n:5][c:6]1[H:12])([H:7])([H:8])[H:9]>>[C:1]([C:2](=[C:6]=[N:5][N:4]([C:3][H:10])[H:11])[H:12])([H:7])([H:8])[H:9]"
C       -2.14197623       0.06005789       0.18338929
C       -0.79000072       0.30712261       0.73098435
C        1.49807987      -1.35378323      -0.42475857
N        2.11378225      -0.22250297      -0.36047213
N        1.49088012       1.01781081      -0.09685785
C        0.27319933       0.84829264       0.20315999
H       -2.40826748       0.67510576      -0.67802425
H       -2.09503478      -0.97946837      -0.15708742
H       -2.91514912       0.12268373       0.94694636
H        2.25563222      -2.11399975      -0.66503061
H        3.10842295      -0.06435820      -0.46578660
H       -0.38956840       1.70303909       0.78353744
12
Frame=2 idx=005240 GeodesicLength=0.16918690584258694 rxn_smarts="[C:1]([c:2]1[c:3]([H:10])[n:4]([H:11])[n:5][c:6]1[H:12])([H:7])([H:8])[H:9]>>[C:1]([C:2](=[C:6]=[N:5][N:4]([C:3][H:10])[H:11])[H:12])([H:7])([H:8])[H:9]"
C       -2.12547370       0.04770410       0.17636838
C       -0.75876167       0.29151820       0.69142270
C        1.46995115      -1.33711918      -0.37136712
N        2.10861290      -0.21388432      -0.36374625
N        1.50236605       1.03588797      -0.11742100
C        0.27460992       0.88543988       0.15341975
H       -2.43290445       0.69887057      -0.64380578
H       -2.08218411      -0.97342675      -0.21522022
H       -2.87180813       0.06781739       0.96873810
H        2.19871879      -2.11910434      -0.63196781
H        3.10715338      -0.07817918      -0.45982019
H       -0.39028013       1.69447566       0.81339946
12
Frame=3 idx=005240 GeodesicLength=0.256670560125447 rxn_smarts="[C:1]([c:2]1[c:3]([H:10])[n:4]([H:11])[n:5][c:6]1[H:12])([H:7])([H:8])[H:9]>>[C:1]([C:2](=[C:6]=[N:5][N:4]([C:3][H:10])[H:11])[H:12])([H:7])([H:8])[H:9]"
C       -2.10558349       0.03383671       0.16757040
C       -0.72966228       0.28181112       0.65942415
C        1.44358608      -1.31875303      -0.30500945
N        2.10271560      -0.20632847      -0.36004592
N        1.51337882       1.05278511      -0.13340655
C        0.27855277       0.92078031       0.11777192
H       -2.44686908       0.71114472      -0.61729485
H       -2.06349492      -0.97051091      -0.26447297
H       -2.83046888       0.01742527       0.97999682
H        2.12770465      -2.11987464      -0.61659062
H        3.10233198      -0.09130082      -0.46594096
H       -0.39219124       1.68898461       0.83799804
12
Frame=4 idx=005240 GeodesicLength=0.3441997139126775 rxn_smarts="[C:1]([c:2]1[c:3]([H:10])[n:4]([H:11])[n:5][c:6]1[H:12])([H:7])([H:8])[H:9]>>[C:1]([C:2](=[C:6]=[N:5][N:4]([C:3][H:10])[H:11])[H:12])([H:7])([H:8])[H:9]"
C       -2.08635305       0.02156413       0.15883420
C       -0.70150997       0.27073338       0.62849425
C        1.41221267      -1.29665566      -0.26878169
N        2.09397997      -0.19816876      -0.36754035
N        1.52125423       1.06896746      -0.15582445
C        0.28259625       0.95341123       0.08834448
H       -2.45974623       0.72681646      -0.58571506
H       -2.04841555      -0.96258902      -0.31685800
H       -2.78875042      -0.03429048       0.98934929
H        2.06982687      -2.12314532      -0.56930124
H        3.09589283      -0.10412223      -0.46917902
H       -0.39098760       1.67747881       0.86817760
12
Frame=5 idx=005240 GeodesicLength=0.432617166291336 rxn_smarts="[C:1]([c:2]1[c:3]([H:10])[n:4]([H:11])[n:5][c:6]1[H:12])([H:7])([H:8])[H:9]>>[C:1]([C:2](=[C:6]=[N:5][N:4]([C:3][H:10])[H:11])[H:12])([H:7])([H:8])[H:9]"
C       -2.06559432       0.00845777       0.14962881
C       -0.67498540       0.26412235       0.60270923
C        1.38371450      -1.27425256      -0.22236676
N        2.08568081      -0.19124493      -0.36848517
N        1.52949916       1.08378487      -0.17417873
C        0.28780995       0.98453046       0.06572096
H       -2.46710543       0.73392816      -0.56004853
H       -2.02997647      -0.95756861      -0.36127316
H       -2.74890120      -0.08142755       0.99327047
H        2.00336820      -2.12260136      -0.53993563
H        3.08803998      -0.11730843      -0.47756044
H       -0.39154976       1.66957982       0.89251895
12
Frame=6 idx=005240 GeodesicLength=0.5211437054987985 rxn_smarts="[C:1]([c:2]1[c:3]([H:10])[n:4]([H:11])[n:5][c:6]1[H:12])([H:7])([H:8])[H:9]>>[C:1]([C:2](=[C:6]=[N:5][N:4]([C:3][H:10])[H:11])[H:12])([H:7])([H:8])[H:9]"
C       -2.04563205      -0.00353724       0.14045588
C       -0.64971248       0.25772048       0.57816881
C        1.35417571      -1.25105853      -0.18820595
N        2.07662614      -0.18466836      -0.37254262
N        1.53625107       1.09731060      -0.19484925
C        0.29297103       1.01347167       0.04663305
H       -2.47380561       0.74149579      -0.53238372
H       -2.01394572      -0.94977934      -0.40569379
H       -2.70961517      -0.12800115       0.99535750
H        1.94415235      -2.12179887      -0.49955175
H        3.07946236      -0.13034619      -0.48517346
H       -0.39092762       1.65919114       0.91778530
12
Frame=7 idx=005240 GeodesicLength=0.6099225518814101 rxn_smarts="[C:1]([c:2]1[c:3]([H:10])[n:4]([H:11])[n:5][c:6]1[H:12])([H:7])([H:8])[H:9]>>[C:1]([C:2](=[C:6]=[N:5][N:4]([C:3][H:10])[H:11])[H:12])([H:7])([H:8])[H:9]"
C       -2.02590072      -0.01508287       0.13143156
C       -0.62561634       0.25272338       0.55565287
C        1.32509643      -1.22771025      -0.15819604
N        2.06757584      -0.17869490      -0.37611509
N        1.54228393       1.10956687      -0.21588661
C        0.29829696       1.04070759       0.03048149
H       -2.47907351       0.74679618      -0.50518072
H       -1.99864313      -0.94139356      -0.44739948
H       -2.67115791      -0.17265808       0.99546501
H        1.88690156      -2.11955505      -0.45956615
H        3.07051825      -0.14351617      -0.49204495
H       -0.39028136       1.64881687       0.94135811
12
Frame=8 idx=005240 GeodesicLength=0.6986769924831697 rxn_smarts="[C:1]([c:2]1[c:3]([H:10])[n:4]([H:11])[n:5][c:6]1[H:12])([H:7])([H:8])[H:9]>>[C:1]([C:2](=[C:6]=[N:5][N:4]([C:3][H:10])[H:11])[H:12])([H:7])([H:8])[H:9]"
C       -2.00682105      -0.02581834       0.12220526
C       -0.60278484       0.24839992       0.53455842
C        1.29695277      -1.20449511      -0.13132004
N        2.05838644      -0.17325814      -0.38027694
N        1.54754675       1.12053625      -0.23706432
C        0.30367104       1.06619995       0.01702869
H       -2.48360375       0.75148592      -0.47743556
H       -1.98483429      -0.93120115      -0.48838070
H       -2.63360106      -0.21635729       0.99346676
H        1.83361299      -2.11643230      -0.41639055
H        3.06088720      -0.15654905      -0.50097320
H       -0.38941220       1.63748935       0.96458218
12
Frame=9 idx=005240 GeodesicLength=0.7878273097382738 rxn_smarts="[C:1]([c:2]1[c:3]([H:10])[n:4]([H:11])[n:5][c:6]1[H:12])([H:7])([H:8])[H:9]>>[C:1]([C:2](=[C:6]=[N:5][N:4]([C:3][H:10])[H:11])[H:12])([H:7])([H:8])[H:9]"
C       -1.98730464      -0.03683048       0.11306897
C       -0.58081286       0.24593306       0.51615735
C        1.27147734      -1.18119612      -0.09971368
N        2.04990986      -0.16831225      -0.38111517
N        1.55296220       1.13044786      -0.25644483
C        0.30952293       1.09040647       0.00585942
H       -2.48584722       0.75188497      -0.45303388
H       -1.96989486      -0.92294845      -0.52466375
H       -2.59719253      -0.25683643       0.98965978
H        1.77598544      -2.11091283      -0.38320319
H        3.05095966      -0.16986372      -0.51131631
H       -0.38976530       1.62822792       0.98474530
12
Frame=10 idx=005240 GeodesicLength=0.8769870425971147 rxn_smarts="[C:1]([c:2]1[c:3]([H:10])[n:4]([H:11])[n:5][c:6]1[H:12])([H:7])([H:8])[H:9]>>[C:1]([C:2](=[C:6]=[N:5][N:4]([C:3][H:10])[H:11])[H:12])([H:7])([H:8])[H:9]"
C       -1.96828718      -0.04727550       0.10400152
C       -0.55978917       0.24406835       0.49901185
C        1.24682404      -1.15804393      -0.07096404
N        2.04162850      -0.16373129      -0.38180946
N        1.55774979       1.13927701      -0.27612950
C        0.31540109       1.11323671      -0.00372991
H       -2.48747937       0.75127468      -0.42878023
H       -1.95605566      -0.91395734      -0.55941858
H       -2.56156750      -0.29584979       0.98465053
H        1.72091427      -2.10447705      -0.34960089
H        3.04086831      -0.18324050      -0.52143184
H       -0.39020711       1.61871866       1.00420056
12
Frame=11 idx=005240 GeodesicLength=0.966205304084967 rxn_smarts="[C:1]([c:2]1[c:3]([H:10])[n:4]([H:11])[n:5][c:6]1[H:12])([H:7])([H:8])[H:9]>>[C:1]([C:2](=[C:6]=[N:5][N:4]([C:3][H:10])[H:11])[H:12])([H:7])([H:8])[H:9]"
C       -1.94970342      -0.05722591       0.09513110
C       -0.53958695       0.24281634       0.48305834
C        1.22266103      -1.13517987      -0.04565425
N        2.03360040      -0.15947308      -0.38219299
N        1.56193543       1.14709410      -0.29625627
C        0.32131306       1.13486985      -0.01209031
H       -2.48852964       0.74952318      -0.40480789
H       -1.94319877      -0.90452755      -0.59237141
H       -2.52663889      -0.33327159       0.97876206
H        1.66815694      -2.09715222      -0.31614406
H        3.03075303      -0.19665088      -0.53029533
H       -0.39076220       1.60917763       1.02286101
12
Frame=12 idx=005240 GeodesicLength=1.0554202841870293 rxn_smarts="[C:1]([c:2]1[c:3]([H:10])[n:4]([H:11])[n:5][c:6]1[H:12])([H:7])([H:8])[H:9]>>[C:1]([C:2](=[C:6]=[N:5][N:4]([C:3][H:10])[H:11])[H:12])([H:7])([H:8])[H:9]"
C       -1.93158529      -0.06664986       0.08623689
C       -0.52020559       0.24197396       0.46819911
C        1.19946290      -1.11263457      -0.02210671
N        2.02581810      -0.15547819      -0.38230457
N        1.56558027       1.15394669      -0.31643954
C        0.32729736       1.15535439      -0.01910522
H       -2.48897578       0.74690402      -0.38129649
H       -1.93129715      -0.89456485      -0.62397053
H       -2.49255897      -0.36921136       0.97177523
H        1.61756683      -2.08895440      -0.28246085
H        3.02038921      -0.21003554      -0.53970719
H       -0.39149189       1.59934971       1.04117988
12
Frame=13 idx=005240 GeodesicLength=1.1447367698617201 rxn_smarts="[C:1]([c:2]1[c:3]([H:10])[n:4]([H:11])[n:5][c:6]1[H:12])([H:7])([H:8])[H:9]>>[C:1]([C:2](=[C:6]=[N:5][N:4]([C:3][H:10])[H:11])[H:12])([H:7])([H:8])[H:9]"
C       -1.91379992      -0.07569002       0.07765522
C       -0.50148446       0.24172152       0.45445553
C        1.17661794      -1.09053087      -0.00159607
N        2.01844158      -0.15169220      -0.38164823
N        1.56864868       1.15986382      -0.33716810
C        0.33334148       1.17487202      -0.02533393
H       -2.48885400       0.74305851      -0.35838227
H       -1.92011210      -0.88466899      -0.65348458
H       -2.45912387      -0.40340590       0.96433030
H        1.56856655      -2.07996702      -0.25026699
H        3.01020115      -0.22335948      -0.54718463
H       -0.39244303       1.58979859       1.05862375
12
Frame=14 idx=005240 GeodesicLength=1.2340319599472183 rxn_smarts="[C:1]([c:2]1[c:3]([H:10])[n:4]([H:11])[n:5][c:6]1[H:12])([H:7])([H:8])[H:9]>>[C:1]([C:2](=[C:6]=[N:5][N:4]([C:3][H:10])[H:11])[H:12])([H:7])([H:8])[H:9]"
C       -1.89646112      -0.08424908       0.06905889
C       -0.48347116       0.24175710       0.44162868
C        1.15478943      -1.06880023       0.01785208
N        2.01143924      -0.14805156      -0.38043130
N        1.57113570       1.16488074      -0.35813627
C        0.33946966       1.19340773      -0.03054098
H       -2.48821410       0.73849510      -0.33605740
H       -1.90979313      -0.87445712      -0.68172113
H       -2.42651870      -0.43614306       0.95604311
H        1.52134156      -2.07023137      -0.21843521
H        2.99987381      -0.23658564      -0.55510189
H       -0.39359119       1.57997739       1.07584142
12
Frame=15 idx=005240 GeodesicLength=1.323331775861027 rxn_smarts="[C:1]([c:2]1[c:3]([H:10])[n:4]([H:11])[n:5][c:6]1[H:12])([H:7])([H:8])[H:9]>>[C:1]([C:2](=[C:6]=[N:5][N:4]([C:3][H:10])[H:11])[H:12])([H:7])([H:8])[H:9]"
C       -1.87952199      -0.09238258       0.06059881
C       -0.46608057       0.24212647       0.42967832
C        1.13368195      -1.04751372       0.03569935
N        2.00491408      -0.14449536      -0.37835685
N        1.57298677       1.16899283      -0.37964057
C        0.34567938       1.21106415      -0.03501807
H       -2.48710785       0.73314677      -0.31433801
H       -1.90025328      -0.86417659      -0.70843359
H       -2.39464718      -0.46735263       0.94724565
H        1.47566602      -2.05983659      -0.18769765
H        2.98961992      -0.24966676      -0.56238450
H       -0.39493725       1.57009401       1.09264711
12
Frame=16 idx=005240 GeodesicLength=1.412505121469295 rxn_smarts="[C:1]([c:2]1[c:3]([H:10])[n:4]([H:11])[n:5][c:6]1[H:12])([H:7])([H:8])[H:9]>>[C:1]([C:2](=[C:6]=[N:5][N:4]([C:3][H:10])[H:11])[H:12])([H:7])([H:8])[H:9]"
C       -1.86309121      -0.09999477       0.05197952
C       -0.44934252       0.24256921       0.41836830
C        1.11386826      -1.02653876       0.05350356
N        1.99884596      -0.14095748      -0.37563646
N        1.57414281       1.17221769      -0.40156245
C        0.35199248       1.22783377      -0.03856611
H       -2.48561201       0.72744964      -0.29310770
H       -1.89167324      -0.85337688      -0.73436817
H       -2.36362884      -0.49735831       0.93755116
H        1.43179952      -2.04877860      -0.15685112
H        2.97910239      -0.26263988      -0.57089101
H       -0.39640359       1.55957437       1.10958048
