8
Frame=0 idx=005765 GeodesicLength=0.0 rxn_smarts="[o:1]1[c:2]([H:6])[c:3]([H:7])[n:4][c:5]1[H:8]>>[O:1]1[C:2]([H:6])([H:7])[C-:3]=[N+:4]=[C:5]1[H:8]"
O        0.40220097       0.98673510      -0.00666909
C       -0.84112870       0.41527146       0.17667805
C       -0.76396861      -0.98870350       0.31259859
N        0.63348396      -1.23208563       0.08602204
C        1.20295443      -0.09484634      -0.03100021
H       -1.64600447       1.10123200       0.39875763
H       -1.24538545      -0.29206316      -0.77128842
H        2.25784788       0.10446010      -0.16509858
8
Frame=1 idx=005765 GeodesicLength=0.040849731571449804 rxn_smarts="[o:1]1[c:2]([H:6])[c:3]([H:7])[n:4][c:5]1[H:8]>>[O:1]1[C:2]([H:6])([H:7])[C-:3]=[N+:4]=[C:5]1[H:8]"
O        0.40518964       0.98731214      -0.00878348
C       -0.84165945       0.41745295       0.16843957
C       -0.76004070      -0.98525420       0.30870602
N        0.63421941      -1.23127776       0.08806136
C        1.20524127      -0.09298160      -0.02531622
H       -1.64157605       1.10259953       0.40961204
H       -1.26158135      -0.30189633      -0.77855033
H        2.26020723       0.10404526      -0.16216896
8
Frame=2 idx=005765 GeodesicLength=0.08171610991915222 rxn_smarts="[o:1]1[c:2]([H:6])[c:3]([H:7])[n:4][c:5]1[H:8]>>[O:1]1[C:2]([H:6])([H:7])[C-:3]=[N+:4]=[C:5]1[H:8]"
O        0.40819308       0.98791561      -0.01182150
C       -0.84210920       0.41974518       0.15994543
C       -0.75599922      -0.98165833       0.30481923
N        0.63492585      -1.23041521       0.08936271
C        1.20747020      -0.09108929      -0.02069405
H       -1.63657264       1.10390117       0.42082678
H       -1.27877147      -0.31219476      -0.78513241
H        2.26286339       0.10379564      -0.15730619
8
Frame=3 idx=005765 GeodesicLength=0.12259567285045866 rxn_smarts="[o:1]1[c:2]([H:6])[c:3]([H:7])[n:4][c:5]1[H:8]>>[O:1]1[C:2]([H:6])([H:7])[C-:3]=[N+:4]=[C:5]1[H:8]"
O        0.41118287       0.98852446      -0.01631697
C       -0.84247173       0.42214642       0.15118327
C       -0.75178291      -0.97790303       0.30102011
N        0.63559671      -1.22951154       0.08954385
C        1.20961367      -0.08918808      -0.01774968
H       -1.63081622       1.10517386       0.43255602
H       -1.29729785      -0.32305568      -0.79072670
H        2.26597545       0.10381358      -0.14950990
8
Frame=4 idx=005765 GeodesicLength=0.1635454335081663 rxn_smarts="[o:1]1[c:2]([H:6])[c:3]([H:7])[n:4][c:5]1[H:8]>>[O:1]1[C:2]([H:6])([H:7])[C-:3]=[N+:4]=[C:5]1[H:8]"
O        0.41416172       0.98911330      -0.02234774
C       -0.84273998       0.42467116       0.14213607
C       -0.74737756      -0.97398704       0.29728420
N        0.63624200      -1.22858462       0.08851675
C        1.21168268      -0.08730629      -0.01652265
H       -1.62424502       1.10641430       0.44478113
H       -1.31724356      -0.33448051      -0.79522251
H        2.26951972       0.10415972      -0.13862524
8
Frame=5 idx=005765 GeodesicLength=0.20444098290368576 rxn_smarts="[o:1]1[c:2]([H:6])[c:3]([H:7])[n:4][c:5]1[H:8]>>[O:1]1[C:2]([H:6])([H:7])[C-:3]=[N+:4]=[C:5]1[H:8]"
O        0.41727833       0.98980616      -0.02723501
C       -0.84304684       0.42724728       0.13287791
C       -0.74314808      -0.97003206       0.29298165
N        0.63688878      -1.22755298       0.08802980
C        1.21387845      -0.08527157      -0.01362431
H       -1.61752601       1.10742237       0.45646220
H       -1.33699001      -0.34597011      -0.79977049
H        2.27266537       0.10435091      -0.12972176
8
Frame=6 idx=005765 GeodesicLength=0.2453907290559142 rxn_smarts="[o:1]1[c:2]([H:6])[c:3]([H:7])[n:4][c:5]1[H:8]>>[O:1]1[C:2]([H:6])([H:7])[C-:3]=[N+:4]=[C:5]1[H:8]"
O        0.42052109       0.99058706      -0.03117049
C       -0.84336116       0.42990569       0.12341241
C       -0.73906224      -0.96602836       0.28816746
N        0.63752341      -1.22644780       0.08793770
C        1.21615811      -0.08311825      -0.00922264
H       -1.61066954       1.10819198       0.46763852
H       -1.35673255      -0.35753861      -0.80428694
H        2.27562288       0.10444829      -0.12247602
8
Frame=7 idx=005765 GeodesicLength=0.2864115181988886 rxn_smarts="[o:1]1[c:2]([H:6])[c:3]([H:7])[n:4][c:5]1[H:8]>>[O:1]1[C:2]([H:6])([H:7])[C-:3]=[N+:4]=[C:5]1[H:8]"
O        0.42382880       0.99139403      -0.03556874
C       -0.84364032       0.43266407       0.11374574
C       -0.73493026      -0.96193468       0.28309590
N        0.63815171      -1.22528836       0.08727035
C        1.21845495      -0.08090713      -0.00507291
H       -1.60326643       1.10882258       0.47877220
H       -1.37729840      -0.36943616      -0.80805493
H        2.27869996       0.10468565      -0.11418761
8
Frame=8 idx=005765 GeodesicLength=0.3275011937201201 rxn_smarts="[o:1]1[c:2]([H:6])[c:3]([H:7])[n:4][c:5]1[H:8]>>[O:1]1[C:2]([H:6])([H:7])[C-:3]=[N+:4]=[C:5]1[H:8]"
O        0.42712280       0.99215906      -0.04176452
C       -0.84381226       0.43550287       0.10385358
C       -0.73057016      -0.95772428       0.27795941
N        0.63878912      -1.22410970       0.08507274
C        1.22070117      -0.07870319      -0.00280536
H       -1.59489200       1.10945011       0.49028121
H       -1.39947848      -0.38189572      -0.81032495
H        2.28213980       0.10532084      -0.10227213
8
Frame=9 idx=005765 GeodesicLength=0.368492521666115 rxn_smarts="[o:1]1[c:2]([H:6])[c:3]([H:7])[n:4][c:5]1[H:8]>>[O:1]1[C:2]([H:6])([H:7])[C-:3]=[N+:4]=[C:5]1[H:8]"
O        0.43045999       0.99291207      -0.04910494
C       -0.84392315       0.43837750       0.09371678
C       -0.72609759      -0.95346161       0.27255263
N        0.63943579      -1.22291739       0.08175881
C        1.22298924      -0.07643510      -0.00148437
H       -1.58572840       1.11000713       0.50184858
H       -1.42291153      -0.39473176      -0.81126490
H        2.28577565       0.10624916      -0.08802258
8
Frame=10 idx=005765 GeodesicLength=0.409490790269928 rxn_smarts="[o:1]1[c:2]([H:6])[c:3]([H:7])[n:4][c:5]1[H:8]>>[O:1]1[C:2]([H:6])([H:7])[C-:3]=[N+:4]=[C:5]1[H:8]"
O        0.43382884       0.99358340      -0.05782796
C       -0.84391072       0.44136411       0.08326425
C       -0.72134831      -0.94906363       0.26694674
N        0.64015579      -1.22167854       0.07692687
C        1.22528526      -0.07419740      -0.00133269
H       -1.57566439       1.11046425       0.51344328
H       -1.44782495      -0.40799553      -0.81057338
H        2.28947848       0.10752335      -0.07084711
8
Frame=11 idx=005765 GeodesicLength=0.4505508292422868 rxn_smarts="[o:1]1[c:2]([H:6])[c:3]([H:7])[n:4][c:5]1[H:8]>>[O:1]1[C:2]([H:6])([H:7])[C-:3]=[N+:4]=[C:5]1[H:8]"
O        0.43726458       0.99422064      -0.06752657
C       -0.84379210       0.44438625       0.07261254
C       -0.71644284      -0.94464977       0.26090916
N        0.64094412      -1.22042027       0.07102384
C        1.22763989      -0.07190881      -0.00186200
H       -1.56479472       1.11084764       0.52490054
H       -1.47385848      -0.42155653      -0.80844413
H        2.29303955       0.10908086      -0.05161338
8
Frame=12 idx=005765 GeodesicLength=0.491654923860084 rxn_smarts="[o:1]1[c:2]([H:6])[c:3]([H:7])[n:4][c:5]1[H:8]>>[O:1]1[C:2]([H:6])([H:7])[C-:3]=[N+:4]=[C:5]1[H:8]"
O        0.44081006       0.99484790      -0.07764615
C       -0.84357203       0.44744450       0.06178822
C       -0.71144293      -0.94023773       0.25431245
N        0.64181046      -1.21911820       0.06437609
C        1.23008048      -0.06954495      -0.00246072
H       -1.55331402       1.11110745       0.53596213
H       -1.50069853      -0.43530801      -0.80503551
H        2.29632651       0.11080904      -0.03129650
8
Frame=13 idx=005765 GeodesicLength=0.5327616524897683 rxn_smarts="[o:1]1[c:2]([H:6])[c:3]([H:7])[n:4][c:5]1[H:8]>>[O:1]1[C:2]([H:6])([H:7])[C-:3]=[N+:4]=[C:5]1[H:8]"
O        0.44451213       0.99548636      -0.08773651
C       -0.84328665       0.45054019       0.05080770
C       -0.70641316      -0.93584030       0.24705742
N        0.64276870      -1.21775623       0.05726141
C        1.23263489      -0.06709435      -0.00264832
H       -1.54142864       1.11120478       0.54642727
H       -1.52810904      -0.44915511      -0.80047963
H        2.29932176       0.11261467      -0.01068935
8
Frame=14 idx=005765 GeodesicLength=0.5739111806826219 rxn_smarts="[o:1]1[c:2]([H:6])[c:3]([H:7])[n:4][c:5]1[H:8]>>[O:1]1[C:2]([H:6])([H:7])[C-:3]=[N+:4]=[C:5]1[H:8]"
O        0.44838154       0.99614654      -0.09768674
C       -0.84290895       0.45369049       0.03966807
C       -0.70134600      -0.93146093       0.23909889
N        0.64383043      -1.21633017       0.04972131
C        1.23528382      -0.06456789      -0.00242610
H       -1.52920559       1.11113433       0.55623257
H       -1.55604520      -0.46308527      -0.79473677
H        2.30200994       0.11447290       0.01012877
8
Frame=15 idx=005765 GeodesicLength=0.6150754875395569 rxn_smarts="[o:1]1[c:2]([H:6])[c:3]([H:7])[n:4][c:5]1[H:8]>>[O:1]1[C:2]([H:6])([H:7])[C-:3]=[N+:4]=[C:5]1[H:8]"
O        0.45243984       0.99684829      -0.10724939
C       -0.84244900       0.45690241       0.02836578
C       -0.69627435      -0.92710485       0.23037204
N        0.64500203      -1.21483214       0.04191187
C        1.23802134      -0.06196738      -0.00159995
H       -1.51678708       1.11087426       0.56527299
H       -1.58438437      -0.47704861      -0.78784929
H        2.30443159       0.11632801       0.03077595
8
Frame=16 idx=005765 GeodesicLength=0.6562542653902209 rxn_smarts="[o:1]1[c:2]([H:6])[c:3]([H:7])[n:4][c:5]1[H:8]>>[O:1]1[C:2]([H:6])([H:7])[C-:3]=[N+:4]=[C:5]1[H:8]"
O        0.45670540       0.99761807      -0.11614179
C       -0.84189889       0.46019133       0.01689554
C       -0.69123483      -0.92277654       0.22080977
N        0.64628195      -1.21325189       0.03402898
C        1.24082261      -0.05929029       0.00010431
H       -1.50433645       1.11039675       0.57344531
H       -1.61298165      -0.49099868      -0.77990638
H        2.30664187       0.11811125       0.05076427
