11
Frame=0 idx=005350 GeodesicLength=0.0 rxn_smarts="[C:1]([C:2](=[O:3])[C:4]([C:5]#[N:6])([H:10])[H:11])([H:7])([H:8])[H:9]>>[C:1]([C:2](=[O:3])[N:6]=[C:5]=[C:4]([H:10])[H:11])([H:7])([H:8])[H:9]"
C       -1.30772475       0.41066866      -0.40542549
C       -0.41460177       0.14537576       0.75154234
O       -0.54927162      -0.16284648       1.86308209
C        1.37744052      -0.90957315      -0.18084606
C        1.39417336       0.41161328       0.15050218
N        1.04958008       1.49840646       0.48271928
H       -1.94645098      -0.46245875      -0.53696402
H       -0.75347618       0.61693972      -1.31246614
H       -1.92591469       1.27078739      -0.14458293
H        1.38797816      -1.18577166      -1.22619000
H        1.68826787      -1.63314122       0.55862871
11
Frame=1 idx=005350 GeodesicLength=0.058837066818647143 rxn_smarts="[C:1]([C:2](=[O:3])[C:4]([C:5]#[N:6])([H:10])[H:11])([H:7])([H:8])[H:9]>>[C:1]([C:2](=[O:3])[N:6]=[C:5]=[C:4]([H:10])[H:11])([H:7])([H:8])[H:9]"
C       -1.31907132       0.41387458      -0.40427121
C       -0.41666926       0.12824818       0.74207879
O       -0.56686004      -0.19560649       1.84978744
C        1.38926792      -0.90709462      -0.17438539
C        1.40941094       0.41887722       0.14154439
N        1.04484463       1.49531520       0.48470006
H       -1.99195163      -0.43544224      -0.51895999
H       -0.77099050       0.59270454      -1.32144543
H       -1.90171950       1.29997124      -0.14845282
H        1.40205752      -1.19162601      -1.21768430
H        1.72168126      -1.61922159       0.56708846
11
Frame=2 idx=005350 GeodesicLength=0.11677694630872881 rxn_smarts="[C:1]([C:2](=[O:3])[C:4]([C:5]#[N:6])([H:10])[H:11])([H:7])([H:8])[H:9]>>[C:1]([C:2](=[O:3])[N:6]=[C:5]=[C:4]([H:10])[H:11])([H:7])([H:8])[H:9]"
C       -1.33005637       0.41691047      -0.40298565
C       -0.41877296       0.11166556       0.73277436
O       -0.58448190      -0.22814532       1.83612752
C        1.40051940      -0.90427175      -0.16787140
C        1.42486468       0.42633291       0.13261948
N        1.04066865       1.49202158       0.48664598
H       -2.03492750      -0.40802847      -0.50060320
H       -0.78918910       0.56885240      -1.32986431
H       -1.87729308       1.32695117      -0.15293523
H        1.41540914      -1.19708115      -1.20907779
H        1.75325905      -1.60520740       0.57517023
11
Frame=3 idx=005350 GeodesicLength=0.17390624514218922 rxn_smarts="[C:1]([C:2](=[O:3])[C:4]([C:5]#[N:6])([H:10])[H:11])([H:7])([H:8])[H:9]>>[C:1]([C:2](=[O:3])[N:6]=[C:5]=[C:4]([H:10])[H:11])([H:7])([H:8])[H:9]"
C       -1.34066734       0.41977399      -0.40156413
C       -0.42090259       0.09564342       0.72368001
O       -0.60211366      -0.26041704       1.82214129
C        1.41118838      -0.90109392      -0.16131424
C        1.44056954       0.43397169       0.12377406
N        1.03707024       1.48854912       0.48851393
H       -2.07539138      -0.38037301      -0.48196500
H       -0.80801488       0.54544881      -1.33771667
H       -1.85277345       1.35178772      -0.15803616
H        1.42803169      -1.20209549      -1.20039053
H        1.78300346      -1.59119529       0.58287744
11
Frame=4 idx=005350 GeodesicLength=0.23028015124544296 rxn_smarts="[C:1]([C:2](=[O:3])[C:4]([C:5]#[N:6])([H:10])[H:11])([H:7])([H:8])[H:9]>>[C:1]([C:2](=[O:3])[N:6]=[C:5]=[C:4]([H:10])[H:11])([H:7])([H:8])[H:9]"
C       -1.35089163       0.42246179      -0.40000208
C       -0.42304258       0.08019344       0.71484736
O       -0.61972879      -0.29237706       1.80786973
C        1.42126875      -0.89755278      -0.15472305
C        1.45655896       0.44177673       0.11506200
N        1.03406078       1.48491915       0.49025149
H       -2.11335312      -0.35262447      -0.46311768
H       -0.82741115       0.52255795      -1.34499685
H       -1.82829515       1.37454513      -0.16376223
H        1.43991762      -1.20662266      -1.19164285
H        1.81091630      -1.57727722       0.59021415
11
Frame=5 idx=005350 GeodesicLength=0.2858661744425668 rxn_smarts="[C:1]([C:2](=[O:3])[C:4]([C:5]#[N:6])([H:10])[H:11])([H:7])([H:8])[H:9]>>[C:1]([C:2](=[O:3])[N:6]=[C:5]=[C:4]([H:10])[H:11])([H:7])([H:8])[H:9]"
C       -1.36074842       0.42502739      -0.39833087
C       -0.42515455       0.06532727       0.70625442
O       -0.63729497      -0.32399185       1.79329650
C        1.43079018      -0.89367939      -0.14807907
C        1.47285428       0.44968085       0.10645514
N        1.03155755       1.48107529       0.49172028
H       -2.14885326      -0.32495929      -0.44426491
H       -0.84726140       0.50026665      -1.35168068
H       -1.80406781       1.39541685      -0.16984670
H        1.45108424      -1.21070130      -1.18279583
H        1.83709416      -1.56346246       0.59727171
11
Frame=6 idx=005350 GeodesicLength=0.3410493629473857 rxn_smarts="[C:1]([C:2](=[O:3])[C:4]([C:5]#[N:6])([H:10])[H:11])([H:7])([H:8])[H:9]>>[C:1]([C:2](=[O:3])[N:6]=[C:5]=[C:4]([H:10])[H:11])([H:7])([H:8])[H:9]"
C       -1.37029831       0.42743664      -0.39650821
C       -0.42734778       0.05094618       0.69791303
O       -0.65491113      -0.35539538       1.77839542
C        1.43983089      -0.88942646      -0.14139807
C        1.48947469       0.45779387       0.09802980
N        1.02964557       1.47710117       0.49303591
H       -2.18230809      -0.29721947      -0.42520474
H       -0.86765500       0.47835331      -1.35785094
H       -1.77984299       1.41450757      -0.17652182
H        1.46167115      -1.21431650      -1.17389520
H        1.86174100      -1.54978094       0.60400482
11
Frame=7 idx=005350 GeodesicLength=0.39580973381687934 rxn_smarts="[C:1]([C:2](=[O:3])[C:4]([C:5]#[N:6])([H:10])[H:11])([H:7])([H:8])[H:9]>>[C:1]([C:2](=[O:3])[N:6]=[C:5]=[C:4]([H:10])[H:11])([H:7])([H:8])[H:9]"
C       -1.37957741       0.42973203      -0.39456472
C       -0.42958790       0.03692075       0.68980725
O       -0.67252831      -0.38674178       1.76311182
C        1.44847006      -0.88480621      -0.13465708
C        1.50637923       0.46606204       0.08978996
N        1.02816599       1.47300173       0.49417576
H       -2.21396127      -0.26925185      -0.40584641
H       -0.88863502       0.45667079      -1.36352547
H       -1.75559339       1.43208435      -0.18385778
H        1.47181165      -1.21743366      -1.16491748
H        1.88505636      -1.53623821       0.61048415
11
Frame=8 idx=005350 GeodesicLength=0.4502915604986894 rxn_smarts="[C:1]([C:2](=[O:3])[C:4]([C:5]#[N:6])([H:10])[H:11])([H:7])([H:8])[H:9]>>[C:1]([C:2](=[O:3])[N:6]=[C:5]=[C:4]([H:10])[H:11])([H:7])([H:8])[H:9]"
C       -1.38862881       0.43192789      -0.39249181
C       -0.43189970       0.02319648       0.68189446
O       -0.69019808      -0.41816348       1.74734144
C        1.45676589      -0.87979841      -0.12784979
C        1.52359627       0.47449842       0.08173071
N        1.02710047       1.46875132       0.49513529
H       -2.24404619      -0.24091762      -0.38612290
H       -0.91023114       0.43508062      -1.36869209
H       -1.73123472       1.44825102      -0.19186465
H        1.48158935      -1.22006168      -1.15584227
H        1.90718666      -1.52276456       0.61676161
11
Frame=9 idx=005350 GeodesicLength=0.5044640574226033 rxn_smarts="[C:1]([C:2](=[O:3])[C:4]([C:5]#[N:6])([H:10])[H:11])([H:7])([H:8])[H:9]>>[C:1]([C:2](=[O:3])[N:6]=[C:5]=[C:4]([H:10])[H:11])([H:7])([H:8])[H:9]"
C       -1.39744716       0.43402124      -0.39028192
C       -0.43427258       0.00981815       0.67423732
O       -0.70790228      -0.44958923       1.73112320
C        1.46471238      -0.87441446      -0.12098872
C        1.54115717       0.48305882       0.07395169
N        1.02646006       1.46440021       0.49583723
H       -2.27249305      -0.21234720      -0.36608525
H       -0.93240704       0.41364388      -1.37332477
H       -1.70690983       1.46302955      -0.20056057
H        1.49102926      -1.22215019      -1.14670450
H        1.92807306      -1.50947077       0.62279629
11
Frame=10 idx=005350 GeodesicLength=0.5583111519375844 rxn_smarts="[C:1]([C:2](=[O:3])[C:4]([C:5]#[N:6])([H:10])[H:11])([H:7])([H:8])[H:9]>>[C:1]([C:2](=[O:3])[N:6]=[C:5]=[C:4]([H:10])[H:11])([H:7])([H:8])[H:9]"
C       -1.40598357       0.43599112      -0.38795608
C       -0.43671835      -0.00318998       0.66686204
O       -0.72562106      -0.48093067       1.71451359
C        1.47223624      -0.86863714      -0.11407447
C        1.55906852       0.49177172       0.06654699
N        1.02625519       1.45997502       0.49617144
H       -2.29922442      -0.18371036      -0.34583542
H       -0.95508943       0.39241785      -1.37744721
H       -1.68262283       1.47638577      -0.20983527
H        1.50003161      -1.22362528      -1.13753448
H        1.94766812      -1.49644804       0.62858887
11
Frame=11 idx=005350 GeodesicLength=0.6119049989567178 rxn_smarts="[C:1]([C:2](=[O:3])[C:4]([C:5]#[N:6])([H:10])[H:11])([H:7])([H:8])[H:9]>>[C:1]([C:2](=[O:3])[N:6]=[C:5]=[C:4]([H:10])[H:11])([H:7])([H:8])[H:9]"
C       -1.41429650       0.43786905      -0.38549370
C       -0.43921266      -0.01585361       0.65977343
O       -0.74335986      -0.51228593       1.69741218
C        1.47942201      -0.86248973      -0.10710430
C        1.57739942       0.50059448       0.05955163
N        1.02643666       1.45549292       0.49611907
H       -2.32440340      -0.15488244      -0.32532820
H       -0.97833102       0.37133880      -1.38100456
H       -1.65845845       1.48842644      -0.21977250
H        1.50870584      -1.22450944      -1.12834015
H        1.96609795      -1.48370053       0.63418710
11
Frame=12 idx=005350 GeodesicLength=0.6653273392794099 rxn_smarts="[C:1]([C:2](=[O:3])[C:4]([C:5]#[N:6])([H:10])[H:11])([H:7])([H:8])[H:9]>>[C:1]([C:2](=[O:3])[N:6]=[C:5]=[C:4]([H:10])[H:11])([H:7])([H:8])[H:9]"
C       -1.42240609       0.43965307      -0.38290637
C       -0.44179243      -0.02824894       0.65295224
O       -0.76115194      -0.54380033       1.67974503
C        1.48630191      -0.85594558      -0.10006536
C        1.59610548       0.50955001       0.05299974
N        1.02698167       1.45097555       0.49570596
H       -2.34818247      -0.12570645      -0.30441808
H       -1.00220976       0.35024667      -1.38402299
H       -1.63423622       1.49923425      -0.23047918
H        1.51711180      -1.22476326      -1.11911340
H        1.98347804      -1.47119499       0.63960241
11
Frame=13 idx=005350 GeodesicLength=0.7186258622950112 rxn_smarts="[C:1]([C:2](=[O:3])[C:4]([C:5]#[N:6])([H:10])[H:11])([H:7])([H:8])[H:9]>>[C:1]([C:2](=[O:3])[N:6]=[C:5]=[C:4]([H:10])[H:11])([H:7])([H:8])[H:9]"
C       -1.43032436       0.44135002      -0.38019053
C       -0.44445820      -0.04040844       0.64639406
O       -0.77900168      -0.57558672       1.66140702
C        1.49289380      -0.84899471      -0.09295063
C        1.61521663       0.51863414       0.04696518
N        1.02784458       1.44644819       0.49490048
H       -2.37066274      -0.09602709      -0.28302189
H       -1.02678105       0.32899885      -1.38645881
H       -1.60989979       1.50884851      -0.24203783
H        1.52530300      -1.22433847      -1.10985770
H        1.99986982      -1.45892429       0.64485064
11
Frame=14 idx=005350 GeodesicLength=0.7717335484934655 rxn_smarts="[C:1]([C:2](=[O:3])[C:4]([C:5]#[N:6])([H:10])[H:11])([H:7])([H:8])[H:9]>>[C:1]([C:2](=[O:3])[N:6]=[C:5]=[C:4]([H:10])[H:11])([H:7])([H:8])[H:9]"
C       -1.43803367       0.44295279      -0.37735002
C       -0.44719972      -0.05227595       0.64015162
O       -0.79688909      -0.60756057       1.64241002
C        1.49917494      -0.84164938      -0.08576552
C        1.63474283       0.52782090       0.04155681
N        1.02903051       1.44196737       0.49362491
H       -2.39171901      -0.06599461      -0.26119633
H       -1.05200549       0.30768455      -1.38828480
H       -1.58555563       1.51724518      -0.25444352
H        1.53322608      -1.22319830      -1.10060529
H        2.01522824      -1.44699198       0.64990212
11
Frame=15 idx=005350 GeodesicLength=0.8247511776970954 rxn_smarts="[C:1]([C:2](=[O:3])[C:4]([C:5]#[N:6])([H:10])[H:11])([H:7])([H:8])[H:9]>>[C:1]([C:2](=[O:3])[N:6]=[C:5]=[C:4]([H:10])[H:11])([H:7])([H:8])[H:9]"
C       -1.44556845       0.44447469      -0.37438425
C       -0.45003010      -0.06389426       0.63422096
O       -0.81483699      -0.63980493       1.62265741
C        1.50518675      -0.83390316      -0.07849606
C        1.65472091       0.53710679       0.03682486
N        1.03052121       1.43752728       0.49185893
H       -2.41144825      -0.03546797      -0.23887653
H       -1.07797218       0.28622013      -1.38947801
H       -1.56115938       1.52443832      -0.26775953
H        1.54093390      -1.22131838      -1.09136221
H        2.02965257      -1.43537851       0.65479443
11
Frame=16 idx=005350 GeodesicLength=0.8776685429877914 rxn_smarts="[C:1]([C:2](=[O:3])[C:4]([C:5]#[N:6])([H:10])[H:11])([H:7])([H:8])[H:9]>>[C:1]([C:2](=[O:3])[N:6]=[C:5]=[C:4]([H:10])[H:11])([H:7])([H:8])[H:9]"
C       -1.45290713       0.44590060      -0.37129137
C       -0.45294826      -0.07529582       0.62860062
O       -0.83285282      -0.67243369       1.60201177
C        1.51091455      -0.82573427      -0.07113726
C        1.67512947       0.54650614       0.03287047
N        1.03227248       1.43318382       0.48959028
H       -2.42985122      -0.00427899      -0.21593589
H       -1.10474563       0.26443632      -1.38996333
H       -1.53659577       1.53041743      -0.28212340
H        1.54843442      -1.21862131      -1.08213371
H        2.04314990      -1.42408023       0.65951183
