12
Frame=0 idx=008065 GeodesicLength=0.0 rxn_smarts="[N:1]#[C:2][C@@:3]1([H:8])[C:4]([H:9])([H:10])[N:5]=[C:6]([H:11])[N:7]1[H:12]>>[N-:1]=[C:2]=[C:3]([N:7]([C:6](=[N+:5]=[C:4]([H:9])[H:10])[H:11])[H:12])[H:8]"
N        3.29935052      -0.35508861       0.92156779
C        2.28043796      -0.21133122       0.39860960
C        1.01997172      -0.04012838      -0.21644174
C       -1.36716856      -1.15576288      -0.55298545
N       -1.80753205      -0.16238277       0.14876796
C       -1.11047894       0.93151968       0.37357697
N        0.22158923       0.95069132       0.32043887
H        0.96778448      -0.22735244      -1.27233133
H       -0.77857153      -1.04334720      -1.45034939
H       -1.80028633      -2.13474172      -0.36844008
H       -1.59530949       1.80097029       0.79654654
H        0.67021303       1.64695398       0.90104021
12
Frame=1 idx=008065 GeodesicLength=0.05101846120103513 rxn_smarts="[N:1]#[C:2][C@@:3]1([H:8])[C:4]([H:9])([H:10])[N:5]=[C:6]([H:11])[N:7]1[H:12]>>[N-:1]=[C:2]=[C:3]([N:7]([C:6](=[N+:5]=[C:4]([H:9])[H:10])[H:11])[H:12])[H:8]"
N        3.28633573      -0.35821211       0.91940799
C        2.25860323      -0.23436358       0.40908695
C        1.00541946      -0.04598083      -0.21938356
C       -1.34002137      -1.15313070      -0.54398891
N       -1.80775014      -0.15674261       0.14366956
C       -1.11346844       0.93754592       0.37329961
N        0.21931166       0.96255550       0.30612343
H        0.96795732      -0.22869532      -1.27710471
H       -0.78803156      -1.03432824      -1.46428077
H       -1.76377684      -2.13542179      -0.35521040
H       -1.59702469       1.80073489       0.81032113
H        0.67244565       1.64603886       0.89805967
12
Frame=2 idx=008065 GeodesicLength=0.1020596186559419 rxn_smarts="[N:1]#[C:2][C@@:3]1([H:8])[C:4]([H:9])([H:10])[N:5]=[C:6]([H:11])[N:7]1[H:12]>>[N-:1]=[C:2]=[C:3]([N:7]([C:6](=[N+:5]=[C:4]([H:9])[H:10])[H:11])[H:12])[H:8]"
N        3.27196189      -0.36411260       0.91825762
C        2.23757127      -0.25483206       0.41844331
C        0.99129894      -0.05093448      -0.22255247
C       -1.31381422      -1.14973009      -0.53613747
N       -1.80769147      -0.15168843       0.13899845
C       -1.11636739       0.94308870       0.37339187
N        0.21699275       0.97394224       0.29249315
H        0.96810998      -0.22971027      -1.28176244
H       -0.79681786      -1.02670207      -1.47674335
H       -1.72720046      -2.13549588      -0.34233434
H       -1.59855919       1.79968933       0.82464085
H        0.67451576       1.64648562       0.89330483
12
Frame=3 idx=008065 GeodesicLength=0.15315942423402532 rxn_smarts="[N:1]#[C:2][C@@:3]1([H:8])[C:4]([H:9])([H:10])[N:5]=[C:6]([H:11])[N:7]1[H:12]>>[N-:1]=[C:2]=[C:3]([N:7]([C:6](=[N+:5]=[C:4]([H:9])[H:10])[H:11])[H:12])[H:8]"
N        3.25647394      -0.37219945       0.91836092
C        2.21724296      -0.27316569       0.42677466
C        0.97757462      -0.05514559      -0.22600749
C       -1.28851173      -1.14570057      -0.52930175
N       -1.80735143      -0.14727408       0.13500119
C       -1.11914933       0.94811028       0.37400719
N        0.21463409       0.98492576       0.27932171
H        0.96824219      -0.23054917      -1.28640339
H       -0.80520863      -1.02006721      -1.48807770
H       -1.69061855      -2.13507250      -0.32991320
H       -1.59987067       1.79797156       0.83934615
H        0.67654255       1.64816665       0.88689170
12
Frame=4 idx=008065 GeodesicLength=0.20435934555166257 rxn_smarts="[N:1]#[C:2][C@@:3]1([H:8])[C:4]([H:9])([H:10])[N:5]=[C:6]([H:11])[N:7]1[H:12]>>[N-:1]=[C:2]=[C:3]([N:7]([C:6](=[N+:5]=[C:4]([H:9])[H:10])[H:11])[H:12])[H:8]"
N        3.24007380      -0.38177091       0.91969062
C        2.19736962      -0.28985643       0.43436600
C        0.96420589      -0.05870154      -0.22980853
C       -1.26406039      -1.14111304      -0.52338687
N       -1.80681823      -0.14326372       0.13136132
C       -1.12182805       0.95279756       0.37479437
N        0.21222348       0.99560381       0.26631436
H        0.96841872      -0.23136938      -1.29108623
H       -0.81323943      -1.01443620      -1.49847097
H       -1.65413378      -2.13408665      -0.31778116
H       -1.60076442       1.79536000       0.85501029
H        0.67855278       1.65083651       0.87899680
12
Frame=5 idx=008065 GeodesicLength=0.25560254392921306 rxn_smarts="[N:1]#[C:2][C@@:3]1([H:8])[C:4]([H:9])([H:10])[N:5]=[C:6]([H:11])[N:7]1[H:12]>>[N-:1]=[C:2]=[C:3]([N:7]([C:6](=[N+:5]=[C:4]([H:9])[H:10])[H:11])[H:12])[H:8]"
N        3.22329108      -0.39195473       0.92176930
C        2.17796502      -0.30523649       0.44140521
C        0.95117649      -0.06185325      -0.23375610
C       -1.24047734      -1.13608062      -0.51827242
N       -1.80614798      -0.13964208       0.12815711
C       -1.12437379       0.95711483       0.37584502
N        0.20979405       1.00585678       0.25362504
H        0.96864690      -0.23230907      -1.29565386
H       -0.82099260      -1.00964012      -1.50801719
H       -1.61820132      -2.13254296      -0.30623526
H       -1.60125300       1.79218506       0.87097542
H        0.68057249       1.65410265       0.87015775
12
Frame=6 idx=008065 GeodesicLength=0.3069301734628297 rxn_smarts="[N:1]#[C:2][C@@:3]1([H:8])[C:4]([H:9])([H:10])[N:5]=[C:6]([H:11])[N:7]1[H:12]>>[N-:1]=[C:2]=[C:3]([N:7]([C:6](=[N+:5]=[C:4]([H:9])[H:10])[H:11])[H:12])[H:8]"
N        3.20606590      -0.40262464       0.92470208
C        2.15888140      -0.31952322       0.44801802
C        0.93846817      -0.06459161      -0.23792778
C       -1.21768965      -1.13065910      -0.51388701
N       -1.80534768      -0.13635404       0.12534643
C       -1.12679174       0.96112715       0.37707098
N        0.20733246       1.01579366       0.24105165
H        0.96895804      -0.23339910      -1.30018664
H       -0.82853284      -1.00557237      -1.51685254
H       -1.58271775      -2.13047997      -0.29517193
H       -1.60124859       1.78833679       0.88750303
H        0.68262227       1.65794646       0.86033371
12
Frame=7 idx=008065 GeodesicLength=0.35828582798378816 rxn_smarts="[N:1]#[C:2][C@@:3]1([H:8])[C:4]([H:9])([H:10])[N:5]=[C:6]([H:11])[N:7]1[H:12]>>[N-:1]=[C:2]=[C:3]([N:7]([C:6](=[N+:5]=[C:4]([H:9])[H:10])[H:11])[H:12])[H:8]"
N        3.18880687      -0.41322640       0.92801362
C        2.14014661      -0.33289118       0.45436803
C        0.92606361      -0.06709240      -0.24213648
C       -1.19570213      -1.12491742      -0.51014974
N       -1.80450622      -0.13329129       0.12277850
C       -1.12908478       0.96486064       0.37843317
N        0.20485511       1.02532336       0.22873706
H        0.96936438      -0.23472701      -1.30452439
H       -0.83582712      -1.00222794      -1.52501442
H       -1.54803059      -2.12787451      -0.28471258
H       -1.60076504       1.78398655       0.90426745
H        0.68467929       1.66207762       0.84993979
12
Frame=8 idx=008065 GeodesicLength=0.40970808797770597 rxn_smarts="[N:1]#[C:2][C@@:3]1([H:8])[C:4]([H:9])([H:10])[N:5]=[C:6]([H:11])[N:7]1[H:12]>>[N-:1]=[C:2]=[C:3]([N:7]([C:6](=[N+:5]=[C:4]([H:9])[H:10])[H:11])[H:12])[H:8]"
N        3.17141494      -0.42381392       0.93179979
C        2.12167511      -0.34545539       0.46048405
C        0.91395184      -0.06931941      -0.24645324
C       -1.17443934      -1.11890425      -0.50699539
N       -1.80360092      -0.13046610       0.12051033
C       -1.13124989       0.96832765       0.37995164
N        0.20235190       1.03452935       0.21657920
H        0.96986566      -0.23625179      -1.30874645
H       -0.84293956      -0.99948580      -1.53259101
H       -1.51399139      -2.12479861      -0.27478392
H       -1.59979074       1.77914305       0.92127464
H        0.68675239       1.66649519       0.83897038
12
Frame=9 idx=008065 GeodesicLength=0.4612436225469508 rxn_smarts="[N:1]#[C:2][C@@:3]1([H:8])[C:4]([H:9])([H:10])[N:5]=[C:6]([H:11])[N:7]1[H:12]>>[N-:1]=[C:2]=[C:3]([N:7]([C:6](=[N+:5]=[C:4]([H:9])[H:10])[H:11])[H:12])[H:8]"
N        3.15373584      -0.43439805       0.93624373
C        2.10334864      -0.35729285       0.46643741
C        0.90211852      -0.07124383      -0.25095770
C       -1.15384371      -1.11264402      -0.50439471
N       -1.80264068      -0.12780529       0.11843961
C       -1.13329490       0.97160512       0.38152739
N        0.19980291       1.04351901       0.20437480
H        0.97049509      -0.23801439      -1.31292608
H       -0.84988287      -0.99732796      -1.53967238
H       -1.48050075      -2.12127017      -0.26527899
H       -1.59818547       1.77358388       0.93896751
H        0.68884739       1.67128855       0.82723941
12
Frame=10 idx=008065 GeodesicLength=0.5129507291516949 rxn_smarts="[N:1]#[C:2][C@@:3]1([H:8])[C:4]([H:9])([H:10])[N:5]=[C:6]([H:11])[N:7]1[H:12]>>[N-:1]=[C:2]=[C:3]([N:7]([C:6](=[N+:5]=[C:4]([H:9])[H:10])[H:11])[H:12])[H:8]"
N        3.13564900      -0.44502729       0.94146418
C        2.08508105      -0.36849774       0.47224830
C        0.89055485      -0.07283795      -0.25571531
C       -1.13385311      -1.10616611      -0.50230728
N       -1.80158932      -0.12534826       0.11667982
C       -1.13521053       0.97468569       0.38322060
N        0.19719044       1.05235400       0.19203731
H        0.97125193      -0.23998919      -1.31713227
H       -0.85673885      -0.99562088      -1.54632639
H       -1.44739446      -2.11734843      -0.25617446
H       -1.59591462       1.76731952       0.95731747
H        0.69097361       1.67647664       0.81468803
12
Frame=11 idx=008065 GeodesicLength=0.564861752754092 rxn_smarts="[N:1]#[C:2][C@@:3]1([H:8])[C:4]([H:9])([H:10])[N:5]=[C:6]([H:11])[N:7]1[H:12]>>[N-:1]=[C:2]=[C:3]([N:7]([C:6](=[N+:5]=[C:4]([H:9])[H:10])[H:11])[H:12])[H:8]"
N        3.11695066      -0.45569658       0.94768221
C        2.06673272      -0.37905724       0.47799752
C        0.87923977      -0.07405577      -0.26080232
C       -1.11442764      -1.09946103      -0.50072314
N       -1.80049774      -0.12293381       0.11491815
C       -1.13700548       0.97766217       0.38486542
N        0.19448428       1.06113049       0.17932290
H        0.97217470      -0.24222650      -1.32140901
H       -0.86344534      -0.99448386      -1.55259871
H       -1.41465888      -2.11295443      -0.24731118
H       -1.59268050       1.75987821       0.97704737
H        0.69313345       1.68219836       0.80101079
12
Frame=12 idx=008065 GeodesicLength=0.6169465559401809 rxn_smarts="[N:1]#[C:2][C@@:3]1([H:8])[C:4]([H:9])([H:10])[N:5]=[C:6]([H:11])[N:7]1[H:12]>>[N-:1]=[C:2]=[C:3]([N:7]([C:6](=[N+:5]=[C:4]([H:9])[H:10])[H:11])[H:12])[H:8]"
N        3.09790201      -0.46625563       0.95456819
C        2.04842558      -0.38905550       0.48362545
C        0.86817809      -0.07498998      -0.26610608
C       -1.09554855      -1.09260204      -0.49956417
N       -1.79933937      -0.12068639       0.11343664
C       -1.13866369       0.98044730       0.38666799
N        0.19170287       1.06975286       0.16651046
H        0.97321139      -0.24464445      -1.32569620
H       -0.87008294      -0.99374031      -1.55849046
H       -1.38237669      -2.10820389      -0.23886439
H       -1.58871136       1.75179119       0.99721578
H        0.69530265       1.68818685       0.78669678
12
Frame=13 idx=008065 GeodesicLength=0.6691526012716091 rxn_smarts="[N:1]#[C:2][C@@:3]1([H:8])[C:4]([H:9])([H:10])[N:5]=[C:6]([H:11])[N:7]1[H:12]>>[N-:1]=[C:2]=[C:3]([N:7]([C:6](=[N+:5]=[C:4]([H:9])[H:10])[H:11])[H:12])[H:8]"
N        3.07867886      -0.47649056       0.96191657
C        2.03021070      -0.39850183       0.48917347
C        0.85735503      -0.07572790      -0.27152344
C       -1.07722740      -1.08560850      -0.49880027
N       -1.79817293      -0.11852364       0.11208905
C       -1.14018937       0.98305967       0.38858546
N        0.18885530       1.07817024       0.15367381
H        0.97435809      -0.24727154      -1.32989898
H       -0.87660767      -0.99342157      -1.56400690
H       -1.35073544      -2.10307546      -0.23085635
H       -1.58398604       1.74307278       1.01773203
H        0.69746086       1.69431830       0.77191554
12
Frame=14 idx=008065 GeodesicLength=0.7214271057223826 rxn_smarts="[N:1]#[C:2][C@@:3]1([H:8])[C:4]([H:9])([H:10])[N:5]=[C:6]([H:11])[N:7]1[H:12]>>[N-:1]=[C:2]=[C:3]([N:7]([C:6](=[N+:5]=[C:4]([H:9])[H:10])[H:11])[H:12])[H:8]"
N        3.05944409      -0.48626365       0.96955829
C        2.01216882      -0.40741639       0.49463537
C        0.84676384      -0.07634741      -0.27696707
C       -1.05946492      -1.07851358      -0.49839490
N       -1.79700950      -0.11646203       0.11092125
C       -1.14157205       0.98546593       0.39067514
N        0.18595697       1.08632723       0.14092483
H        0.97559508      -0.25010351      -1.33394811
H       -0.88303945      -0.99345551      -1.56915581
H       -1.31985347      -2.09761131      -0.22337551
H       -1.57859105       1.73391179       1.03826381
H        0.69960164       1.70046846       0.75686271
12
Frame=15 idx=008065 GeodesicLength=0.7737204316113396 rxn_smarts="[N:1]#[C:2][C@@:3]1([H:8])[C:4]([H:9])([H:10])[N:5]=[C:6]([H:11])[N:7]1[H:12]>>[N-:1]=[C:2]=[C:3]([N:7]([C:6](=[N+:5]=[C:4]([H:9])[H:10])[H:11])[H:12])[H:8]"
N        3.04033735      -0.49546170       0.97735267
C        1.99436378      -0.41581422       0.50001983
C        0.83639474      -0.07691487      -0.28236293
C       -1.04226361      -1.07134193      -0.49832275
N       -1.79587573      -0.11447891       0.10990112
C       -1.14281087       0.98766193       0.39294472
N        0.18302008       1.09418812       0.12833688
H        0.97691196      -0.25314575      -1.33778434
H       -0.88937031      -0.99381363      -1.57395350
H       -1.28983942      -2.09184047      -0.21645714
H       -1.57258325       1.72441244       1.05864473
H        0.70171526       1.70654899       0.74168072
12
Frame=16 idx=008065 GeodesicLength=0.8259886651072057 rxn_smarts="[N:1]#[C:2][C@@:3]1([H:8])[C:4]([H:9])([H:10])[N:5]=[C:6]([H:11])[N:7]1[H:12]>>[N-:1]=[C:2]=[C:3]([N:7]([C:6](=[N+:5]=[C:4]([H:9])[H:10])[H:11])[H:12])[H:8]"
N        3.02148410      -0.50402666       0.98516481
C        1.97685485      -0.42372070       0.50532455
C        0.82624041      -0.07747903      -0.28765178
C       -1.02561612      -1.06411819      -0.49855481
N       -1.79478323      -0.11257514       0.10903812
C       -1.14390610       0.98963840       0.39540593
N        0.18005813       1.10172397       0.11598898
H        0.97829383      -0.25638159      -1.34136420
H       -0.89560409      -0.99444978      -1.57841194
H       -1.26075263      -2.08580468      -0.21012624
H       -1.56606138       1.71471991       1.07866332
H        0.70379223       1.71247350       0.72652325
