13
Frame=0 idx=001310 GeodesicLength=0.0 rxn_smarts="[C:1]1([H:7])([H:8])[O:2][C:3]([H:9])([H:10])[C@@:4]2([H:11])[N:5]([H:12])[C@@:6]12[H:13]>>[C-:1](=[O+:2][C:3]([C@@:4]1([H:11])[N:5]([H:12])[C:6]1([H:8])[H:13])([H:9])[H:10])[H:7]"
C       -1.14732941      -1.22967687       0.09885488
O        0.08470194      -1.46065904      -0.39887058
C        1.08744403      -0.67620716       0.23672870
C        0.59681150       0.75022927       0.13001793
N        0.02804614       1.20005823      -1.13274360
C       -0.85448966       0.86454514      -0.04386444
H       -1.11506737      -1.08913797       1.19385803
H       -1.59909577      -0.13132776      -0.37132826
H        1.18911921      -0.95833530       1.29194143
H        2.03139574      -0.85119596      -0.28140219
H        1.13640206       1.50418405       0.69279334
H        0.04337680       0.45198689      -1.82208603
H       -1.48131522       1.62553643       0.40610081
13
Frame=1 idx=001310 GeodesicLength=0.0488132843452062 rxn_smarts="[C:1]1([H:7])([H:8])[O:2][C:3]([H:9])([H:10])[C@@:4]2([H:11])[N:5]([H:12])[C@@:6]12[H:13]>>[C-:1](=[O+:2][C:3]([C@@:4]1([H:11])[N:5]([H:12])[C:6]1([H:8])[H:13])([H:9])[H:10])[H:7]"
C       -1.14698805      -1.22996895       0.10276371
O        0.08478715      -1.46178941      -0.39524879
C        1.08823909      -0.67411284       0.23700858
C        0.59820634       0.75231585       0.12947282
N        0.02951783       1.20165955      -1.13311416
C       -0.85420131       0.86353135      -0.04418419
H       -1.11869006      -1.10413023       1.19983953
H       -1.61371375      -0.12983228      -0.38221095
H        1.19167381      -0.95561791       1.29217485
H        2.03094180      -0.85021286      -0.28295987
H        1.13885893       1.50577350       0.69178702
H        0.04644621       0.45341146      -1.82204039
H       -1.47507797       1.62897277       0.40671183
13
Frame=2 idx=001310 GeodesicLength=0.09762734503337948 rxn_smarts="[C:1]1([H:7])([H:8])[O:2][C:3]([H:9])([H:10])[C@@:4]2([H:11])[N:5]([H:12])[C@@:6]12[H:13]>>[C-:1](=[O+:2][C:3]([C@@:4]1([H:11])[N:5]([H:12])[C:6]1([H:8])[H:13])([H:9])[H:10])[H:7]"
C       -1.14667953      -1.23012658       0.10680061
O        0.08481634      -1.46288637      -0.39154680
C        1.08902037      -0.67199917       0.23730054
C        0.59963029       0.75443988       0.12891563
N        0.03101443       1.20327459      -1.13350356
C       -0.85389126       0.86255517      -0.04451820
H       -1.12226006      -1.11954076       1.20579873
H       -1.62833864      -0.12822178      -0.39315825
H        1.19422793      -0.95285096       1.29242408
H        2.03044738      -0.84926119      -0.28452357
H        1.14135459       1.50739900       0.69075649
H        0.04951154       0.45483403      -1.82199386
H       -1.46885339       1.63238415       0.40724817
13
Frame=3 idx=001310 GeodesicLength=0.14644202555622846 rxn_smarts="[C:1]1([H:7])([H:8])[O:2][C:3]([H:9])([H:10])[C@@:4]2([H:11])[N:5]([H:12])[C@@:6]12[H:13]>>[C-:1](=[O+:2][C:3]([C@@:4]1([H:11])[N:5]([H:12])[C:6]1([H:8])[H:13])([H:9])[H:10])[H:7]"
C       -1.14640069      -1.23015210       0.11097395
O        0.08478990      -1.46394813      -0.38776386
C        1.08978795      -0.66986537       0.23760620
C        0.60108395       0.75660183       0.12834537
N        0.03253574       1.20490220      -1.13391299
C       -0.85355838       0.86161964      -0.04486542
H       -1.12577898      -1.13538002       1.21172342
H       -1.64297517      -0.12649343      -0.40417054
H        1.19678103      -0.95003271       1.29269093
H        2.02991270      -0.84834103      -0.28609043
H        1.14389167       1.50906150       0.68969819
H        0.05257012       0.45625211      -1.82194634
H       -1.46263984       1.63577551       0.40771154
13
Frame=4 idx=001310 GeodesicLength=0.19525718780163245 rxn_smarts="[C:1]1([H:7])([H:8])[O:2][C:3]([H:9])([H:10])[C@@:4]2([H:11])[N:5]([H:12])[C@@:6]12[H:13]>>[C-:1](=[O+:2][C:3]([C@@:4]1([H:11])[N:5]([H:12])[C:6]1([H:8])[H:13])([H:9])[H:10])[H:7]"
C       -1.14614827      -1.23004758       0.11529267
O        0.08470821      -1.46497287      -0.38389898
C        1.09054196      -0.66771065       0.23792722
C        0.60256799       0.75880220       0.12776101
N        0.03408149       1.20654115      -1.13434365
C       -0.85320156       0.86072770      -0.04522467
H       -1.12924876      -1.15165880       1.21760059
H       -1.65762821      -0.12464430      -0.41524818
H        1.19933273      -0.94716125       1.29297732
H        2.02933796      -0.84745250      -0.28765767
H        1.14647283       1.51076203       0.68860850
H        0.05561921       0.45766306      -1.82189770
H       -1.45643557       1.63915181       0.40810354
13
Frame=5 idx=001310 GeodesicLength=0.24407272151901663 rxn_smarts="[C:1]1([H:7])([H:8])[O:2][C:3]([H:9])([H:10])[C@@:4]2([H:11])[N:5]([H:12])[C@@:6]12[H:13]>>[C-:1](=[O+:2][C:3]([C@@:4]1([H:11])[N:5]([H:12])[C:6]1([H:8])[H:13])([H:9])[H:10])[H:7]"
C       -1.14591890      -1.22981473       0.11976627
O        0.08457155      -1.46595875      -0.37995087
C        1.09128261      -0.66553414       0.23826535
C        0.60408314       0.76104155       0.12716153
N        0.03565132       1.20819010      -1.13479674
C       -0.85281971       0.85988214      -0.04559469
H       -1.13267159      -1.16838828       1.22341647
H       -1.67230282      -0.12267147      -0.42639162
H        1.20188286      -0.94423457       1.29328519
H        2.02872334      -0.84659569      -0.28922258
H        1.14910073       1.51250170       0.68748370
H        0.05865611       0.45906409      -1.82184773
H       -1.45023864       1.64251805       0.40842572
13
Frame=6 idx=001310 GeodesicLength=0.29288852159969053 rxn_smarts="[C:1]1([H:7])([H:8])[O:2][C:3]([H:9])([H:10])[C@@:4]2([H:11])[N:5]([H:12])[C@@:6]12[H:13]>>[C-:1](=[O+:2][C:3]([C@@:4]1([H:11])[N:5]([H:12])[C:6]1([H:8])[H:13])([H:9])[H:10])[H:7]"
C       -1.14570907      -1.22945501       0.12440486
O        0.08438016      -1.46690387      -0.37591797
C        1.09201021      -0.66333493       0.23862238
C        0.60563025       0.76332047       0.12654584
N        0.03724478       1.20984762      -1.13527346
C       -0.85241169       0.85908561      -0.04597407
H       -1.13605004      -1.18557993       1.22915634
H       -1.68700420      -0.12057189      -0.43760125
H        1.20443143      -0.94125048       1.29361657
H        2.02806902      -0.84577079      -0.29078248
H        1.15177812       1.51428176       0.68631991
H        0.06167803       0.46045228      -1.82179621
H       -1.44404700       1.64587916       0.40867954
13
Frame=7 idx=001310 GeodesicLength=0.34170450575402034 rxn_smarts="[C:1]1([H:7])([H:8])[O:2][C:3]([H:9])([H:10])[C@@:4]2([H:11])[N:5]([H:12])[C@@:6]12[H:13]>>[C-:1](=[O+:2][C:3]([C@@:4]1([H:11])[N:5]([H:12])[C:6]1([H:8])[H:13])([H:9])[H:10])[H:7]"
C       -1.14551512      -1.22896955       0.12921918
O        0.08413422      -1.46780632      -0.37179840
C        1.09272512      -0.66111205       0.23900017
C        0.60721020       0.76563961       0.12591281
N        0.03886133       1.21151217      -1.13577501
C       -0.85197641       0.85834066      -0.04636130
H       -1.13938705      -1.20324558       1.23480445
H       -1.70173767      -0.11834251      -0.44887752
H        1.20697864      -0.93820664       1.29397359
H        2.02737517      -0.84497793      -0.29233473
H        1.15450783       1.51610354       0.68511310
H        0.06468211       0.46182449      -1.82174282
H       -1.43785836       1.64924012       0.40886648
13
Frame=8 idx=001310 GeodesicLength=0.3905206045805385 rxn_smarts="[C:1]1([H:7])([H:8])[O:2][C:3]([H:9])([H:10])[C@@:4]2([H:11])[N:5]([H:12])[C@@:6]12[H:13]>>[C-:1](=[O+:2][C:3]([C@@:4]1([H:11])[N:5]([H:12])[C:6]1([H:8])[H:13])([H:9])[H:10])[H:7]"
C       -1.14533322      -1.22835923       0.13422072
O        0.08383390      -1.46866414      -0.36758992
C        1.09342787      -0.65886446       0.23940066
C        0.60882396       0.76799964       0.12526127
N        0.04050030       1.21318206      -1.13630263
C       -0.85151273       0.85764973      -0.04675475
H       -1.14268605      -1.22139729       1.24034397
H       -1.71650874      -0.11598020      -0.46022088
H        1.20952500      -0.93510054       1.29435843
H        2.02664199      -0.84421728      -0.29387679
H        1.15729268       1.51796848       0.68385914
H        0.06766540       0.46317739      -1.82168720
H       -1.43167034       1.65260584       0.40898798
13
Frame=9 idx=001310 GeodesicLength=0.43933708416417394 rxn_smarts="[C:1]1([H:7])([H:8])[O:2][C:3]([H:9])([H:10])[C@@:4]2([H:11])[N:5]([H:12])[C@@:6]12[H:13]>>[C-:1](=[O+:2][C:3]([C@@:4]1([H:11])[N:5]([H:12])[C:6]1([H:8])[H:13])([H:9])[H:10])[H:7]"
C       -1.14515937      -1.22762463       0.13942172
O        0.08347922      -1.46947539      -0.36328995
C        1.09411901      -0.65659107       0.23982590
C        0.61047262       0.77040137       0.12459003
N        0.04216094       1.21485557      -1.13685763
C       -0.85101953       0.85701515      -0.04715260
H       -1.14595097      -1.24004776       1.24575690
H       -1.73132303      -0.11348183      -0.47163183
H        1.21207119      -0.93192946       1.29477348
H        2.02586962      -0.84348907      -0.29540610
H        1.16013577       1.51987830       0.68255360
H        0.07062486       0.46450750      -1.82162903
H       -1.42548035       1.65598132       0.40904553
13
Frame=10 idx=001310 GeodesicLength=0.4881621829926157 rxn_smarts="[C:1]1([H:7])([H:8])[O:2][C:3]([H:9])([H:10])[C@@:4]2([H:11])[N:5]([H:12])[C@@:6]12[H:13]>>[C-:1](=[O+:2][C:3]([C@@:4]1([H:11])[N:5]([H:12])[C:6]1([H:8])[H:13])([H:9])[H:10])[H:7]"
C       -1.14498956      -1.22676868       0.14483580
O        0.08307006      -1.47024091      -0.35889625
C        1.09479915      -0.65429167       0.24027830
C        0.61215742       0.77284735       0.12389797
N        0.04384273       1.21653318      -1.13744358
C       -0.85049555       0.85644064      -0.04755289
H       -1.14918658      -1.25921295       1.25102665
H       -1.74618624      -0.11084502      -0.48311151
H        1.21461798      -0.92869195       1.29522351
H        2.02505819      -0.84279462      -0.29692115
H        1.16304026       1.52183819       0.68119313
H        0.07355767       0.46581196      -1.82157151
H       -1.41928552       1.65937447       0.40904154
13
Frame=11 idx=001310 GeodesicLength=0.5369723375673253 rxn_smarts="[C:1]1([H:7])([H:8])[O:2][C:3]([H:9])([H:10])[C@@:4]2([H:11])[N:5]([H:12])[C@@:6]12[H:13]>>[C-:1](=[O+:2][C:3]([C@@:4]1([H:11])[N:5]([H:12])[C:6]1([H:8])[H:13])([H:9])[H:10])[H:7]"
C       -1.14481815      -1.22578512       0.15047549
O        0.08260746      -1.47095110      -0.35440358
C        1.09546982      -0.65196275       0.24075896
C        0.61387908       0.77533317       0.12318379
N        0.04554338       1.21820600      -1.13805493
C       -0.84994010       0.85592385      -0.04795334
H       -1.15239677      -1.27889275       1.25612403
H       -1.76110422      -0.10806450      -0.49465759
H        1.21716832      -0.92538195       1.29570393
H        2.02420822      -0.84213123      -0.29841747
H        1.16600796       1.52383973       0.67977114
H        0.07645923       0.46708441      -1.82150364
H       -1.41308422       1.66278225       0.40897321
13
Frame=12 idx=001310 GeodesicLength=0.5857892259990545 rxn_smarts="[C:1]1([H:7])([H:8])[O:2][C:3]([H:9])([H:10])[C@@:4]2([H:11])[N:5]([H:12])[C@@:6]12[H:13]>>[C-:1](=[O+:2][C:3]([C@@:4]1([H:11])[N:5]([H:12])[C:6]1([H:8])[H:13])([H:9])[H:10])[H:7]"
C       -1.14464270      -1.22467612       0.15635968
O        0.08208842      -1.47160861      -0.34980871
C        1.09613091      -0.64960416       0.24126983
C        0.61563930       0.77786442       0.12244669
N        0.04726442       1.21987693      -1.13869826
C       -0.84935157       0.85547063      -0.04835210
H       -1.15558651      -1.29911977       1.26103575
H       -1.77608419      -0.10513801      -0.50627204
H        1.21972429      -0.92199683       1.29622144
H        2.02331847      -0.84150214      -0.29989644
H        1.16904180       1.52589272       0.67828698
H        0.07933012       0.46832232      -1.82143278
H       -1.40687277       1.66621861       0.40883996
13
Frame=13 idx=001310 GeodesicLength=0.6346058364215765 rxn_smarts="[C:1]1([H:7])([H:8])[O:2][C:3]([H:9])([H:10])[C@@:4]2([H:11])[N:5]([H:12])[C@@:6]12[H:13]>>[C-:1](=[O+:2][C:3]([C@@:4]1([H:11])[N:5]([H:12])[C:6]1([H:8])[H:13])([H:9])[H:10])[H:7]"
C       -1.14445599      -1.22344225       0.16250135
O        0.08151550      -1.47221093      -0.34510761
C        1.09678447      -0.64721480       0.24181459
C        0.61743945       0.78044044       0.12168480
N        0.04900214       1.22154233      -1.13937372
C       -0.84872887       0.85508178      -0.04874615
H       -1.15876405      -1.31989590       1.26573246
H       -1.79113112      -0.10206236      -0.51795490
H        1.22228714      -0.91853433       1.29677914
H        2.02239033      -0.84090663      -0.30135292
H        1.17214650       1.52799766       0.67673204
H        0.08216261       0.46952068      -1.82135637
H       -1.40064811       1.66968432       0.40864730
13
Frame=14 idx=001310 GeodesicLength=0.6834237231407222 rxn_smarts="[C:1]1([H:7])([H:8])[O:2][C:3]([H:9])([H:10])[C@@:4]2([H:11])[N:5]([H:12])[C@@:6]12[H:13]>>[C-:1](=[O+:2][C:3]([C@@:4]1([H:11])[N:5]([H:12])[C:6]1([H:8])[H:13])([H:9])[H:10])[H:7]"
C       -1.14425289      -1.22208400       0.16891789
O        0.08088861      -1.47275669      -0.34029568
C        1.09743186      -0.64479323       0.24239539
C        0.61928112       0.78306256       0.12089674
N        0.05075573       1.22319987      -1.14008292
C       -0.84807071       0.85475889      -0.04913247
H       -1.16193785      -1.34123342       1.27018877
H       -1.80625116      -0.09883504      -0.52970598
H        1.22485923      -0.91499085       1.29737981
H        2.02142424      -0.84034470      -0.30278574
H        1.17532533       1.53015763       0.67510145
H        0.08495364       0.47067467      -1.82127419
H       -1.39440716       1.67318430       0.40839693
13
Frame=15 idx=001310 GeodesicLength=0.7322411441310501 rxn_smarts="[C:1]1([H:7])([H:8])[O:2][C:3]([H:9])([H:10])[C@@:4]2([H:11])[N:5]([H:12])[C@@:6]12[H:13]>>[C-:1](=[O+:2][C:3]([C@@:4]1([H:11])[N:5]([H:12])[C:6]1([H:8])[H:13])([H:9])[H:10])[H:7]"
C       -1.14402710      -1.22059979       0.17562746
O        0.08020811      -1.47324303      -0.33536712
C        1.09807490      -0.64233769       0.24301483
C        0.62116589       0.78573129       0.12008107
N        0.05252313       1.22484594      -1.14082654
C       -0.84737589       0.85450305      -0.04950790
H       -1.16511699      -1.36314386       1.27437515
H       -1.82145065      -0.09545273      -0.54152509
H        1.22744423      -0.91136213       1.29802580
H        2.02042055      -0.83981638      -0.30419263
H        1.17858186       1.53237417       0.67338914
H        0.08769871       0.47177874      -1.82118424
H       -1.38814674       1.67672243       0.40809007
13
Frame=16 idx=001310 GeodesicLength=0.7810581031134861 rxn_smarts="[C:1]1([H:7])([H:8])[O:2][C:3]([H:9])([H:10])[C@@:4]2([H:11])[N:5]([H:12])[C@@:6]12[H:13]>>[C-:1](=[O+:2][C:3]([C@@:4]1([H:11])[N:5]([H:12])[C:6]1([H:8])[H:13])([H:9])[H:10])[H:7]"
C       -1.14377205      -1.21898832       0.18264977
O        0.07947419      -1.47366758      -0.33031557
C        1.09871552      -0.63984640       0.24367571
C        0.62309549       0.78844758       0.11923623
N        0.05430225       1.22647708      -1.14160570
C       -0.84664307       0.85431543      -0.04986885
H       -1.16831189      -1.38563995       1.27826001
H       -1.83673607      -0.09191235      -0.55341190
H        1.23004609      -0.90764356       1.29872006
H        2.01937961      -0.83932185      -0.30557157
H        1.18192006       1.53464991       0.67158858
H        0.09039322       0.47282700      -1.82108507
H       -1.38186336       1.68030301       0.40772830
