16
Frame=0 idx=005569 GeodesicLength=0.0 rxn_smarts="[C:1]([C:2]([C:3]1([H:12])[C:4]([H:13])([H:14])[O:5][C:6]1([H:15])[H:16])([H:10])[H:11])([H:7])([H:8])[H:9]>>[C:1]([C:2]([C@:3]([C:4]([O:5][H:16])([H:13])[H:14])([C:6][H:15])[H:12])([H:10])[H:11])([H:7])([H:8])[H:9]"
C        2.06136824       0.52198731       0.17226289
C        0.93419508      -0.13109135      -0.61652657
C       -0.28820334      -0.39270912       0.25126654
C       -1.56708953      -0.81421538      -0.46797743
O       -2.51158470       0.08168897       0.17834230
C       -0.94391822       0.87082237       0.79357773
H        2.38382863      -0.11359244       1.00090704
H        1.73159729       1.47735550       0.58948252
H        2.93037937       0.71748317      -0.45742097
H        1.27917620      -1.07246150      -1.05673960
H        0.63895415       0.52204130      -1.44361422
H       -0.03359247      -1.11806616       1.03217292
H       -1.89412264      -1.83598790      -0.28541711
H       -1.54570030      -0.63151833      -1.54658013
H       -1.08999876       0.87371299       1.87593868
H       -2.08528900       1.04455056      -0.01967457
16
Frame=1 idx=005569 GeodesicLength=0.05646829831222806 rxn_smarts="[C:1]([C:2]([C:3]1([H:12])[C:4]([H:13])([H:14])[O:5][C:6]1([H:15])[H:16])([H:10])[H:11])([H:7])([H:8])[H:9]>>[C:1]([C:2]([C@:3]([C:4]([O:5][H:16])([H:13])[H:14])([C:6][H:15])[H:12])([H:10])[H:11])([H:7])([H:8])[H:9]"
C        2.06083335       0.52341755       0.17089726
C        0.93150331      -0.12724857      -0.61674202
C       -0.28680780      -0.39713974       0.25406309
C       -1.56625669      -0.81843067      -0.46371418
O       -2.50153566       0.09922778       0.16406720
C       -0.94829348       0.86144025       0.80222928
H        2.38802533      -0.11627283       0.99450487
H        1.73069567       1.47562722       0.59490160
H        2.92678495       0.72411734      -0.46137577
H        1.27667584      -1.06528415      -1.06398990
H        0.63206002       0.52995165      -1.43920882
H       -0.02689279      -1.12321439       1.03236401
H       -1.90429749      -1.83350793      -0.26378983
H       -1.54112513      -0.65526480      -1.54540109
H       -1.10664130       0.85270708       1.88295827
H       -2.06472813       1.06987420      -0.04176397
16
Frame=2 idx=005569 GeodesicLength=0.11301668912229072 rxn_smarts="[C:1]([C:2]([C:3]1([H:12])[C:4]([H:13])([H:14])[O:5][C:6]1([H:15])[H:16])([H:10])[H:11])([H:7])([H:8])[H:9]>>[C:1]([C:2]([C@:3]([C:4]([O:5][H:16])([H:13])[H:14])([C:6][H:15])[H:12])([H:10])[H:11])([H:7])([H:8])[H:9]"
C        2.06019720       0.52491521       0.16950439
C        0.92878977      -0.12353298      -0.61692037
C       -0.28543951      -0.40156549       0.25682930
C       -1.56547218      -0.82258244      -0.45954059
O       -2.49112283       0.11627914       0.14973669
C       -0.95284374       0.85208689       0.81056294
H        2.39210670      -0.11870970       0.98814146
H        1.72965512       1.47397331       0.60012038
H        2.92308510       0.73078243      -0.46530797
H        1.27413679      -1.05827216      -1.07100085
H        0.62518479       0.53754014      -1.43487144
H       -0.02029670      -1.12826056       1.03259334
H       -1.91447842      -1.83059096      -0.24260751
H       -1.53674395      -0.67871100      -1.54390948
H       -1.12362668       0.83172322       1.88937323
H       -2.04313146       1.09492495      -0.06270350
16
Frame=3 idx=005569 GeodesicLength=0.169658366694938 rxn_smarts="[C:1]([C:2]([C:3]1([H:12])[C:4]([H:13])([H:14])[O:5][C:6]1([H:15])[H:16])([H:10])[H:11])([H:7])([H:8])[H:9]>>[C:1]([C:2]([C@:3]([C:4]([O:5][H:16])([H:13])[H:14])([C:6][H:15])[H:12])([H:10])[H:11])([H:7])([H:8])[H:9]"
C        2.05946347       0.52647959       0.16808295
C        0.92605341      -0.11993573      -0.61706603
C       -0.28409635      -0.40598654       0.25956557
C       -1.56473360      -0.82668661      -0.45544606
O       -2.48034489       0.13287569       0.13533769
C       -0.95756642       0.84275481       0.81858818
H        2.39608959      -0.12092091       0.98179864
H        1.72848075       1.47238374       0.60516361
H        2.91927410       0.73749675      -0.46922555
H        1.27155573      -1.05140992      -1.07779925
H        0.61832330       0.54482943      -1.43059744
H       -0.01379530      -1.13320369       1.03285934
H       -1.92467267      -1.82725242      -0.22181136
H       -1.53254476      -0.70191188      -1.54211934
H       -1.14099123       0.81073703       1.89517272
H       -2.02049513       1.11975068      -0.08250366
16
Frame=4 idx=005569 GeodesicLength=0.22649046446092036 rxn_smarts="[C:1]([C:2]([C:3]1([H:12])[C:4]([H:13])([H:14])[O:5][C:6]1([H:15])[H:16])([H:10])[H:11])([H:7])([H:8])[H:9]>>[C:1]([C:2]([C@:3]([C:4]([O:5][H:16])([H:13])[H:14])([C:6][H:15])[H:12])([H:10])[H:11])([H:7])([H:8])[H:9]"
C        2.05863388       0.52811036       0.16662959
C        0.92329668      -0.11645670      -0.61718385
C       -0.28277686      -0.41040363       0.26227398
C       -1.56403859      -0.83075879      -0.45142211
O       -2.46920193       0.14902338       0.12085186
C       -0.96246216       0.83344714       0.82630744
H        2.39999497      -0.12292375       0.97545592
H        1.72716898       1.47084826       0.61005638
H        2.91533909       0.74429287      -0.47314322
H        1.26893673      -1.04469785      -1.08440017
H        0.61147591       0.55182623      -1.42639186
H       -0.00738210      -1.13804279       1.03316990
H       -1.93489402      -1.82350378      -0.20137279
H       -1.52851148      -0.72491079      -1.54002950
H       -1.15876433       0.78973182       1.90035265
H       -1.99681477       1.14441802      -0.10115423
16
Frame=5 idx=005569 GeodesicLength=0.2831873663525352 rxn_smarts="[C:1]([C:2]([C:3]1([H:12])[C:4]([H:13])([H:14])[O:5][C:6]1([H:15])[H:16])([H:10])[H:11])([H:7])([H:8])[H:9]>>[C:1]([C:2]([C@:3]([C:4]([O:5][H:16])([H:13])[H:14])([C:6][H:15])[H:12])([H:10])[H:11])([H:7])([H:8])[H:9]"
C        2.05772892       0.52979371       0.16514461
C        0.92051718      -0.11307527      -0.61727180
C       -0.28147723      -0.41480721       0.26496457
C       -1.56338596      -0.83479127      -0.44744752
O       -2.45767115       0.16478867       0.10626449
C       -0.96750888       0.82416878       0.83376696
H        2.40387371      -0.12477894       0.96906404
H        1.72575330       1.46932819       0.61486121
H        2.91127936       0.75119396      -0.47707684
H        1.26626568      -1.03810147      -1.09084084
H        0.60463018       0.55858146      -1.42222835
H       -0.00104498      -1.14277454       1.03352893
H       -1.94513821      -1.81932339      -0.18121083
H       -1.52462186      -0.74776745      -1.53764787
H       -1.17696895       0.76869756       1.90493966
H       -1.97223110       1.16886719      -0.11881043
16
Frame=6 idx=005569 GeodesicLength=0.3401930688007249 rxn_smarts="[C:1]([C:2]([C:3]1([H:12])[C:4]([H:13])([H:14])[O:5][C:6]1([H:15])[H:16])([H:10])[H:11])([H:7])([H:8])[H:9]>>[C:1]([C:2]([C@:3]([C:4]([O:5][H:16])([H:13])[H:14])([C:6][H:15])[H:12])([H:10])[H:11])([H:7])([H:8])[H:9]"
C        2.05672879       0.53153386       0.16363014
C        0.91772270      -0.10982718      -0.61733432
C       -0.28020350      -0.41919356       0.26762206
C       -1.56276255      -0.83881323      -0.44355846
O       -2.44579512       0.18002503       0.09167680
C       -0.97274134       0.81493752       0.84086045
H        2.40768209      -0.12643900       0.96266937
H        1.72419741       1.46784812       0.61952261
H        2.90708792       0.75817197      -0.48100818
H        1.26355922      -1.03168408      -1.09706778
H        0.59781632       0.56501889      -1.41815408
H        0.00519616      -1.14735496       1.03396042
H       -1.95534460      -1.81479991      -0.16147711
H       -1.52089970      -0.77037273      -1.53499709
H       -1.19554667       0.74773768       1.90881316
H       -1.94669713       1.19321158      -0.13515800
16
Frame=7 idx=005569 GeodesicLength=0.3973205474984644 rxn_smarts="[C:1]([C:2]([C:3]1([H:12])[C:4]([H:13])([H:14])[O:5][C:6]1([H:15])[H:16])([H:10])[H:11])([H:7])([H:8])[H:9]>>[C:1]([C:2]([C@:3]([C:4]([O:5][H:16])([H:13])[H:14])([C:6][H:15])[H:12])([H:10])[H:11])([H:7])([H:8])[H:9]"
C        2.05565275       0.53332204       0.16208209
C        0.91491680      -0.10669886      -0.61737482
C       -0.27895560      -0.42355813       0.27025289
C       -1.56216890      -0.84282648      -0.43974116
O       -2.43356728       0.19477865       0.07704769
C       -0.97815320       0.80576277       0.84762192
H        2.41146570      -0.12795370       0.95622703
H        1.72252422       1.46637893       0.62409465
H        2.90276534       0.76526555      -0.48495792
H        1.26081693      -1.02542767      -1.10311224
H        0.59103148       0.57117912      -1.41415646
H        0.01134620      -1.15178834       1.03446939
H       -1.96552506      -1.80991905      -0.14210116
H       -1.51732764      -0.79279584      -1.53207956
H       -1.21453737       0.72684912       1.91199992
H       -1.92028433       1.21743190      -0.15027226
16
Frame=8 idx=005569 GeodesicLength=0.4545077420223041 rxn_smarts="[C:1]([C:2]([C:3]1([H:12])[C:4]([H:13])([H:14])[O:5][C:6]1([H:15])[H:16])([H:10])[H:11])([H:7])([H:8])[H:9]>>[C:1]([C:2]([C@:3]([C:4]([O:5][H:16])([H:13])[H:14])([C:6][H:15])[H:12])([H:10])[H:11])([H:7])([H:8])[H:9]"
C        2.05453768       0.53515551       0.16049912
C        0.91211809      -0.10369688      -0.61739710
C       -0.27773850      -0.42789790       0.27286203
C       -1.56161725      -0.84684909      -0.43600252
O       -2.42102001       0.20903390       0.06235946
C       -0.98377072       0.79666949       0.85399813
H        2.41528587      -0.12934687       0.94973031
H        1.72076463       1.46490650       0.62859219
H        2.89834681       0.77250175      -0.48893919
H        1.25805781      -1.01934425      -1.10897137
H        0.58429582       0.57705812      -1.41026514
H        0.01739860      -1.15605701       1.03509851
H       -1.97567245      -1.80468767      -0.12308724
H       -1.51391781      -0.81507621      -1.52893913
H       -1.23398529       0.70606659       1.91441898
H       -1.89308327       1.24156400      -0.16395704
16
Frame=9 idx=005569 GeodesicLength=0.5119128810482328 rxn_smarts="[C:1]([C:2]([C:3]1([H:12])[C:4]([H:13])([H:14])[O:5][C:6]1([H:15])[H:16])([H:10])[H:11])([H:7])([H:8])[H:9]>>[C:1]([C:2]([C@:3]([C:4]([O:5][H:16])([H:13])[H:14])([C:6][H:15])[H:12])([H:10])[H:11])([H:7])([H:8])[H:9]"
C        2.05328880       0.53702750       0.15888046
C        0.90925745      -0.10076679      -0.61738974
C       -0.27652730      -0.43220815       0.27546518
C       -1.56106124      -0.85087528      -0.43225513
O       -2.40803043       0.22300750       0.04755707
C       -0.98949980       0.78757547       0.86020058
H        2.41909959      -0.13069203       0.94302226
H        1.71885460       1.46335242       0.63317307
H        2.89364044       0.77995734      -0.49296624
H        1.25518871      -1.01333518      -1.11474100
H        0.57751070       0.58275068      -1.40635297
H        0.02341327      -1.16018250       1.03576015
H       -1.98585185      -1.79908913      -0.10421911
H       -1.51051976      -0.83735477      -1.52545221
H       -1.25385794       0.68520427       1.91628979
H       -1.86490525       1.26562864      -0.17697216
16
Frame=10 idx=005569 GeodesicLength=0.5694759809118627 rxn_smarts="[C:1]([C:2]([C:3]1([H:12])[C:4]([H:13])([H:14])[O:5][C:6]1([H:15])[H:16])([H:10])[H:11])([H:7])([H:8])[H:9]>>[C:1]([C:2]([C@:3]([C:4]([O:5][H:16])([H:13])[H:14])([C:6][H:15])[H:12])([H:10])[H:11])([H:7])([H:8])[H:9]"
C        2.05201656       0.53893842       0.15721919
C        0.90641447      -0.09794495      -0.61737491
C       -0.27534542      -0.43649027       0.27805852
C       -1.56054944      -0.85492793      -0.42856246
O       -2.39473816       0.23652486       0.03270460
C       -0.99544498       0.77855205       0.86605834
H        2.42298878      -0.13196177       0.93621452
H        1.71687039       1.46176483       0.63772755
H        2.88884008       0.78758797      -0.49704650
H        1.25232143      -1.00747809      -1.12036423
H        0.57077676       0.58820941      -1.40254829
H        0.02934443      -1.16414792       1.03656159
H       -1.99602336      -1.79317983      -0.08563980
H       -1.50725303      -0.85953870      -1.52173328
H       -1.27420498       0.66442881       1.91742678
H       -1.83601354       1.28966312      -0.18870160
16
Frame=11 idx=005569 GeodesicLength=0.6268739870706067 rxn_smarts="[C:1]([C:2]([C:3]1([H:12])[C:4]([H:13])([H:14])[O:5][C:6]1([H:15])[H:16])([H:10])[H:11])([H:7])([H:8])[H:9]>>[C:1]([C:2]([C@:3]([C:4]([O:5][H:16])([H:13])[H:14])([C:6][H:15])[H:12])([H:10])[H:11])([H:7])([H:8])[H:9]"
C        2.05067380       0.54087291       0.15553322
C        0.90353477      -0.09522576      -0.61732477
C       -0.27418499      -0.44071995       0.28063179
C       -1.56004450      -0.85898216      -0.42492981
O       -2.38104295       0.24960041       0.01782662
C       -1.00152085       0.76961071       0.87158692
H        2.42689578      -0.13315578       0.92927113
H        1.71482373       1.46010783       0.64229261
H        2.88385458       0.79536397      -0.50113299
H        1.24934318      -1.00174387      -1.12583194
H        0.56404589       0.59342392      -1.39876901
H        0.03518938      -1.16790360       1.03744714
H       -2.00609210      -1.78692849      -0.06737363
H       -1.50409060      -0.88164124      -1.51777399
H       -1.29488731       0.64377805       1.91780029
H       -1.80649780       1.31354306      -0.19925358
16
Frame=12 idx=005569 GeodesicLength=0.6845533052184204 rxn_smarts="[C:1]([C:2]([C:3]1([H:12])[C:4]([H:13])([H:14])[O:5][C:6]1([H:15])[H:16])([H:10])[H:11])([H:7])([H:8])[H:9]>>[C:1]([C:2]([C@:3]([C:4]([O:5][H:16])([H:13])[H:14])([C:6][H:15])[H:12])([H:10])[H:11])([H:7])([H:8])[H:9]"
C        2.04927790       0.54283621       0.15380432
C        0.90066513      -0.09262720      -0.61727521
C       -0.27305481      -0.44490626       0.28317950
C       -1.55955474      -0.86308247      -0.42136491
O       -2.36707113       0.26212010       0.00298044
C       -1.00780509       0.76076926       0.87672797
H        2.43081034      -0.13425027       0.92224978
H        1.71268469       1.45843087       0.64679316
H        2.87875274       0.80324880      -0.50525076
H        1.24635904      -0.99619229      -1.13114555
H        0.55737140       0.59838267      -1.39510680
H        0.04093892      -1.17145606       1.03847196
H       -2.01608009      -1.78044317      -0.04950534
H       -1.50104041      -0.90357979      -1.51358576
H       -1.31594512       0.62334552       1.91741345
H       -1.77630877       1.33740406      -0.20838624
16
Frame=13 idx=005569 GeodesicLength=0.7423977633412026 rxn_smarts="[C:1]([C:2]([C:3]1([H:12])[C:4]([H:13])([H:14])[O:5][C:6]1([H:15])[H:16])([H:10])[H:11])([H:7])([H:8])[H:9]>>[C:1]([C:2]([C@:3]([C:4]([O:5][H:16])([H:13])[H:14])([C:6][H:15])[H:12])([H:10])[H:11])([H:7])([H:8])[H:9]"
C        2.04782748       0.54481955       0.15203896
C        0.89779981      -0.09015324      -0.61722071
C       -0.27195623      -0.44903787       0.28569587
C       -1.55907185      -0.86722311      -0.41788268
O       -2.35282766       0.27405072      -0.01176977
C       -1.01427503       0.75204463       0.88146224
H        2.43470054      -0.13522906       0.91517920
H        1.71047243       1.45674198       0.65119979
H        2.87354427       0.81118930      -0.50937673
H        1.24334879      -0.99082983      -1.13628904
H        0.55075660       0.60307448      -1.39155400
H        0.04658224      -1.17478211       1.03963160
H       -2.02592560      -1.77375613      -0.03209425
H       -1.49811032      -0.92531251      -1.50919523
H       -1.33727919       0.60319384       1.91624264
H       -1.74558629       1.36120935      -0.21606787
16
Frame=14 idx=005569 GeodesicLength=0.8003761712733513 rxn_smarts="[C:1]([C:2]([C:3]1([H:12])[C:4]([H:13])([H:14])[O:5][C:6]1([H:15])[H:16])([H:10])[H:11])([H:7])([H:8])[H:9]>>[C:1]([C:2]([C@:3]([C:4]([O:5][H:16])([H:13])[H:14])([C:6][H:15])[H:12])([H:10])[H:11])([H:7])([H:8])[H:9]"
C        2.04632074       0.54681694       0.15023899
C        0.89493635      -0.08780253      -0.61716216
C       -0.27088999      -0.45310833       0.28817795
C       -1.55858803      -0.87140597      -0.41448719
O       -2.33834971       0.28538186      -0.02637618
C       -1.02091215       0.74344371       0.88579063
H        2.43853868      -0.13608149       0.90808319
H        1.70819658       1.45505318       0.65548688
H        2.86824066       0.81914018      -0.51349978
H        1.24030731      -0.98565924      -1.14126033
H        0.54420197       0.60750201      -1.38810807
H        0.05211561      -1.17787112       1.04092304
H       -2.03559527      -1.76691626      -0.01517078
H       -1.49529009      -0.94680363      -1.50462444
H       -1.35881714       0.58336037       1.91431418
H       -1.71441551       1.38495031      -0.22232593
16
Frame=15 idx=005569 GeodesicLength=0.8584512588149206 rxn_smarts="[C:1]([C:2]([C:3]1([H:12])[C:4]([H:13])([H:14])[O:5][C:6]1([H:15])[H:16])([H:10])[H:11])([H:7])([H:8])[H:9]>>[C:1]([C:2]([C@:3]([C:4]([O:5][H:16])([H:13])[H:14])([C:6][H:15])[H:12])([H:10])[H:11])([H:7])([H:8])[H:9]"
C        2.04476367       0.54882352       0.14840502
C        0.89207833      -0.08557462      -0.61710243
C       -0.26985936      -0.45711303       0.29062326
C       -1.55810276      -0.87563253      -0.41118541
O       -2.32367565       0.29609381      -0.04079303
C       -1.02771105       0.73497855       0.88970618
H        2.44230496      -0.13679791       0.90099228
H        1.70586880       1.45338149       0.65962316
H        2.86286777       0.82705814      -0.51761271
H        1.23724029      -0.98068675      -1.14605556
H        0.53771383       0.61166940      -1.38477487
H        0.05753247      -1.18071677       1.04235065
H       -2.04505997      -1.75997031       0.00123031
H       -1.49258327      -0.96801847      -1.49989873
H       -1.38049641       0.56389144       1.91164229
H       -1.68288165       1.40861403      -0.22715041
16
Frame=16 idx=005569 GeodesicLength=0.9165972564388141 rxn_smarts="[C:1]([C:2]([C:3]1([H:12])[C:4]([H:13])([H:14])[O:5][C:6]1([H:15])[H:16])([H:10])[H:11])([H:7])([H:8])[H:9]>>[C:1]([C:2]([C@:3]([C:4]([O:5][H:16])([H:13])[H:14])([C:6][H:15])[H:12])([H:10])[H:11])([H:7])([H:8])[H:9]"
C        2.04316092       0.55083589       0.14653673
C        0.88922929      -0.08346838      -0.61704562
C       -0.26886762      -0.46104915       0.29302948
C       -1.55761620      -0.87990533      -0.40798276
O       -2.30884647       0.30617424      -0.05498501
C       -1.03466742       0.72665919       0.89320434
H        2.44598066      -0.13736926       0.89393592
H        1.70349668       1.45174510       0.66357911
H        2.85744984       0.83490468      -0.52171149
H        1.23415596      -0.97591764      -1.15067342
H        0.53129668       0.61558248      -1.38156111
H        0.06282756      -1.18331588       1.04391831
H       -2.05429869      -1.75296378       0.01708402
H       -1.48999062      -0.98892984      -1.49504251
H       -1.40226137       0.54482507       1.90824846
H       -1.65104918       1.43219261      -0.23053444
