10
Frame=0 idx=002356 GeodesicLength=0.0 rxn_smarts="[O:1]([C@@:2]1([H:8])[C:3]([H:9])([H:10])[O:4][C:5]1=[O:6])[H:7]>>[C-:5]#[O+:6].[O:1]([C@@:2]1([H:8])[C:3]([H:9])([H:10])[O:4]1)[H:7]"
O       -1.53207404      -0.78300824       0.40319563
C       -0.71283403      -0.09130074      -0.30758744
C       -0.04478042       1.13129156       0.15416484
O        1.22735877       1.03347089      -0.22963494
C        1.58193174      -1.15926108       0.23160888
O        2.69632703      -1.34631574       0.26159015
H       -1.82819279      -1.58418256      -0.04851938
H       -0.48854872      -0.42184012      -1.32053187
H       -0.25870792       1.29226501       1.22913307
H       -0.64047962       1.92888104      -0.37341896
10
Frame=1 idx=002356 GeodesicLength=0.08285482292707962 rxn_smarts="[O:1]([C@@:2]1([H:8])[C:3]([H:9])([H:10])[O:4][C:5]1=[O:6])[H:7]>>[C-:5]#[O+:6].[O:1]([C@@:2]1([H:8])[C:3]([H:9])([H:10])[O:4]1)[H:7]"
O       -1.51810283      -0.78333333       0.40326701
C       -0.69033981      -0.08996655      -0.30623708
C       -0.06072340       1.15104062       0.16010355
O        1.21615357       1.01114840      -0.21225051
C        1.56292286      -1.15896864       0.21709424
O        2.67150292      -1.38214741       0.25855833
H       -1.76539783      -1.61162529      -0.02776264
H       -0.49842287      -0.39561117      -1.33357100
H       -0.28185446       1.31541985       1.23139950
H       -0.63573815       1.94404352      -0.39060141
10
Frame=2 idx=002356 GeodesicLength=0.165695713645287 rxn_smarts="[O:1]([C@@:2]1([H:8])[C:3]([H:9])([H:10])[O:4][C:5]1=[O:6])[H:7]>>[C-:5]#[O+:6].[O:1]([C@@:2]1([H:8])[C:3]([H:9])([H:10])[O:4]1)[H:7]"
O       -1.50410996      -0.78423987       0.40257969
C       -0.66820296      -0.08871935      -0.30574780
C       -0.07669692       1.16940477       0.16507022
O        1.20459093       0.98990651      -0.19361718
C        1.54525241      -1.15804745       0.20351222
O        2.64691451      -1.41684687       0.25395074
H       -1.70473967      -1.63569347      -0.00629725
H       -0.50747946      -0.37132601      -1.34506569
H       -0.30560152       1.33682348       1.23262488
H       -0.62992736       1.95873826      -0.40700983
10
Frame=3 idx=002356 GeodesicLength=0.24847683170664242 rxn_smarts="[O:1]([C@@:2]1([H:8])[C:3]([H:9])([H:10])[O:4][C:5]1=[O:6])[H:7]>>[C-:5]#[O+:6].[O:1]([C@@:2]1([H:8])[C:3]([H:9])([H:10])[O:4]1)[H:7]"
O       -1.48950617      -0.78616715       0.40197332
C       -0.64672443      -0.08754889      -0.30592102
C       -0.09251442       1.18628933       0.16908685
O        1.19265715       0.96953830      -0.17495128
C        1.52892758      -1.15689594       0.18818877
O        2.62266725      -1.44959253       0.25102200
H       -1.64678119      -1.65646023       0.01509212
H       -0.51662940      -0.34852039      -1.35530832
H       -0.32893846       1.35630341       1.23300566
H       -0.62315791       1.97305410      -0.42218809
10
Frame=4 idx=002356 GeodesicLength=0.33127799043405376 rxn_smarts="[O:1]([C@@:2]1([H:8])[C:3]([H:9])([H:10])[O:4][C:5]1=[O:6])[H:7]>>[C-:5]#[O+:6].[O:1]([C@@:2]1([H:8])[C:3]([H:9])([H:10])[O:4]1)[H:7]"
O       -1.47479041      -0.78863047       0.40108509
C       -0.62572323      -0.08639134      -0.30670323
C       -0.10835060       1.20197957       0.17229602
O        1.18047536       0.95007578      -0.15540200
C        1.51373704      -1.15514879       0.17337233
O        2.59853401      -1.48133696       0.24697535
H       -1.59078861      -1.67468070       0.03679872
H       -0.52508687      -0.32739862      -1.36430516
H       -0.35275129       1.37441499       1.23248675
H       -0.61525542       1.98711655      -0.43660388
10
Frame=5 idx=002356 GeodesicLength=0.41408632124900474 rxn_smarts="[O:1]([C@@:2]1([H:8])[C:3]([H:9])([H:10])[O:4][C:5]1=[O:6])[H:7]>>[C-:5]#[O+:6].[O:1]([C@@:2]1([H:8])[C:3]([H:9])([H:10])[O:4]1)[H:7]"
O       -1.45978078      -0.79174002       0.40025835
C       -0.60530101      -0.08523891      -0.30799420
C       -0.12413644       1.21650785       0.17473640
O        1.16805417       0.93141198      -0.13549097
C        1.49963632      -1.15292019       0.15808502
O        2.57446377      -1.51187413       0.24305119
H       -1.53678844      -1.69061022       0.05850693
H       -0.53323841      -0.30770744      -1.37226069
H       -0.37663956       1.39116545       1.23118066
H       -0.60626964       2.00100562      -0.45007267
10
Frame=6 idx=002356 GeodesicLength=0.4968889160627804 rxn_smarts="[O:1]([C@@:2]1([H:8])[C:3]([H:9])([H:10])[O:4][C:5]1=[O:6])[H:7]>>[C-:5]#[O+:6].[O:1]([C@@:2]1([H:8])[C:3]([H:9])([H:10])[O:4]1)[H:7]"
O       -1.44420434      -0.79559374       0.39989172
C       -0.58546593      -0.08411520      -0.30963945
C       -0.13984908       1.22993267       0.17643612
O        1.15540759       0.91347765      -0.11553482
C        1.48662261      -1.15014947       0.14218563
O        2.55040365      -1.54120104       0.23962623
H       -1.48496151      -1.70439916       0.07966291
H       -0.54126543      -0.28935197      -1.37920280
H       -0.40039473       1.40668228       1.22912753
H       -0.59629283       2.01471797      -0.46255308
10
Frame=7 idx=002356 GeodesicLength=0.579795366059142 rxn_smarts="[O:1]([C@@:2]1([H:8])[C:3]([H:9])([H:10])[O:4][C:5]1=[O:6])[H:7]>>[C-:5]#[O+:6].[O:1]([C@@:2]1([H:8])[C:3]([H:9])([H:10])[O:4]1)[H:7]"
O       -1.42871584      -0.79973474       0.39935100
C       -0.56617863      -0.08292089      -0.31176228
C       -0.15558657       1.24240146       0.17747544
O        1.14255466       0.89620463      -0.09507571
C        1.47449017      -1.14681519       0.12609763
O        2.52607679      -1.56978345       0.23582363
H       -1.43414786      -1.71663694       0.10129957
H       -0.54887864      -0.27221148      -1.38538737
H       -0.42448217       1.42108837       1.22632086
H       -0.58513190       2.02840824      -0.47414277
10
Frame=8 idx=002356 GeodesicLength=0.6627777418550596 rxn_smarts="[O:1]([C@@:2]1([H:8])[C:3]([H:9])([H:10])[O:4][C:5]1=[O:6])[H:7]>>[C-:5]#[O+:6].[O:1]([C@@:2]1([H:8])[C:3]([H:9])([H:10])[O:4]1)[H:7]"
O       -1.41299688      -0.80433691       0.39899087
C       -0.54744072      -0.08169236      -0.31426908
C       -0.17130373       1.25396127       0.17785791
O        1.12949541       0.87956165      -0.07453450
C        1.46328114      -1.14285682       0.10953886
O        2.50140401      -1.59756891       0.23226955
H       -1.38458819      -1.72737468       0.12291247
H       -0.55632473      -0.25619551      -1.39088555
H       -0.44859479       1.43441864       1.22283167
H       -0.57293151       2.04208363      -0.48471219
10
Frame=9 idx=002356 GeodesicLength=0.745823342105245 rxn_smarts="[O:1]([C@@:2]1([H:8])[C:3]([H:9])([H:10])[O:4][C:5]1=[O:6])[H:7]>>[C-:5]#[O+:6].[O:1]([C@@:2]1([H:8])[C:3]([H:9])([H:10])[O:4]1)[H:7]"
O       -1.39685760      -0.80944690       0.39907372
C       -0.52921581      -0.08046306      -0.31704938
C       -0.18698953       1.26466319       0.17758275
O        1.11624690       0.86350536      -0.05408792
C        1.45298802      -1.13820109       0.09276636
O        2.47630481      -1.62456357       0.22892019
H       -1.33640280      -1.73669306       0.14406445
H       -0.56367902      -0.24129013      -1.39568325
H       -0.47262350       1.44678386       1.21866017
H       -0.55977147       2.05570539      -0.49424710
10
Frame=10 idx=002356 GeodesicLength=0.8289523120384961 rxn_smarts="[O:1]([C@@:2]1([H:8])[C:3]([H:9])([H:10])[O:4][C:5]1=[O:6])[H:7]>>[C-:5]#[O+:6].[O:1]([C@@:2]1([H:8])[C:3]([H:9])([H:10])[O:4]1)[H:7]"
O       -1.38055326      -0.81488982       0.39935912
C       -0.51144466      -0.07922316      -0.32012061
C       -0.20268735       1.27459726       0.17666804
O        1.10280894       0.84802271      -0.03363773
C        1.44353291      -1.13278356       0.07631642
O        2.45070105      -1.65097482       0.22517694
H       -1.28926856      -1.74478462       0.16507483
H       -0.57073236      -0.22752066      -1.39989852
H       -0.49669228       1.45824590       1.21381738
H       -0.54566441       2.06931076      -0.50275587
10
Frame=11 idx=002356 GeodesicLength=0.9122851227376988 rxn_smarts="[O:1]([C@@:2]1([H:8])[C:3]([H:9])([H:10])[O:4][C:5]1=[O:6])[H:7]>>[C-:5]#[O+:6].[O:1]([C@@:2]1([H:8])[C:3]([H:9])([H:10])[O:4]1)[H:7]"
O       -1.36402765      -0.82068787       0.39961711
C       -0.49422300      -0.07786796      -0.32372521
C       -0.21833434       1.28375605       0.17516771
O        1.08918022       0.83305830      -0.01376285
C        1.43500656      -1.12661826       0.05827813
O        2.42388386      -1.67684415       0.22313466
H       -1.24228694      -1.75187397       0.18645703
H       -0.57804255      -0.21444535      -1.40386245
H       -0.52037683       1.46848694       1.20850792
H       -0.53077934       2.08303628      -0.50981204
10
Frame=12 idx=002356 GeodesicLength=0.9958318144179688 rxn_smarts="[O:1]([C@@:2]1([H:8])[C:3]([H:9])([H:10])[O:4][C:5]1=[O:6])[H:7]>>[C-:5]#[O+:6].[O:1]([C@@:2]1([H:8])[C:3]([H:9])([H:10])[O:4]1)[H:7]"
O       -1.34707151      -0.82689970       0.40008220
C       -0.47745123      -0.07644222      -0.32774522
C       -0.23395641       1.29223128       0.17306105
O        1.07539327       0.81866124       0.00548516
C        1.42742634      -1.11955155       0.03956801
O        2.39576851      -1.70236408       0.22210229
H       -1.19565820      -1.75796948       0.20773396
H       -0.58548469      -0.20220047      -1.40750320
H       -0.54370025       1.47769883       1.20271130
H       -0.51526583       2.09683615      -0.51549555
10
Frame=13 idx=002356 GeodesicLength=1.0795082836025893 rxn_smarts="[O:1]([C@@:2]1([H:8])[C:3]([H:9])([H:10])[O:4][C:5]1=[O:6])[H:7]>>[C-:5]#[O+:6].[O:1]([C@@:2]1([H:8])[C:3]([H:9])([H:10])[O:4]1)[H:7]"
O       -1.33000532      -0.83329103       0.40083748
C       -0.46090482      -0.07508429      -0.33181774
C       -0.24967971       1.30012911       0.17026374
O        1.06144001       0.80475749       0.02506439
C        1.42054780      -1.11162654       0.02320153
O        2.36707776      -1.72754476       0.21859507
H       -1.15005057      -1.76294037       0.22869660
H       -0.59212614      -0.19131677      -1.41053832
H       -0.56747806       1.48643388       1.19604959
H       -0.49882094       2.11048328      -0.52035235
10
Frame=14 idx=002356 GeodesicLength=1.163526258864138 rxn_smarts="[O:1]([C@@:2]1([H:8])[C:3]([H:9])([H:10])[O:4][C:5]1=[O:6])[H:7]>>[C-:5]#[O+:6].[O:1]([C@@:2]1([H:8])[C:3]([H:9])([H:10])[O:4]1)[H:7]"
O       -1.31242976      -0.84007763       0.40160705
C       -0.44476758      -0.07361120      -0.33646186
C       -0.26532795       1.30737677       0.16689236
O        1.04739823       0.79142695       0.04339419
C        1.41468256      -1.10274404       0.00557364
O        2.33636595      -1.75240257       0.21714504
H       -1.10422490      -1.76705413       0.24970463
H       -0.59912657      -0.18106189      -1.41350524
H       -0.59044273       1.49390448       1.18911240
H       -0.48212726       2.12424327      -0.52346223
10
Frame=15 idx=002356 GeodesicLength=1.2478272970059605 rxn_smarts="[O:1]([C@@:2]1([H:8])[C:3]([H:9])([H:10])[O:4][C:5]1=[O:6])[H:7]>>[C-:5]#[O+:6].[O:1]([C@@:2]1([H:8])[C:3]([H:9])([H:10])[O:4]1)[H:7]"
O       -1.29469970      -0.84704023       0.40233678
C       -0.42887979      -0.07212819      -0.34144929
C       -0.28096840       1.31403757       0.16289030
O        1.03329187       0.77860741       0.06101403
C        1.40958453      -1.09303199      -0.01101550
O        2.30427662      -1.77682962       0.21523977
H       -1.05872049      -1.77015664       0.27070733
H       -0.60575177      -0.17184008      -1.41626061
H       -0.61302954       1.50044093       1.18169453
H       -0.46510332       2.13794084      -0.52515734
10
Frame=16 idx=002356 GeodesicLength=1.3324650641712474 rxn_smarts="[O:1]([C@@:2]1([H:8])[C:3]([H:9])([H:10])[O:4][C:5]1=[O:6])[H:7]>>[C-:5]#[O+:6].[O:1]([C@@:2]1([H:8])[C:3]([H:9])([H:10])[O:4]1)[H:7]"
O       -1.27683089      -0.85412988       0.40306903
C       -0.41317495      -0.07065314      -0.34670374
C       -0.29661834       1.32015712       0.15823386
O        1.01913920       0.76627781       0.07804450
C        1.40520076      -1.08256912      -0.02611669
O        2.27091368      -1.80083309       0.21235447
H       -1.01361886      -1.77223571       0.29168079
H       -0.61186925      -0.16370910      -1.41879381
H       -0.63537330       1.50617018       1.17372626
H       -0.44776805       2.15152493      -0.52549467
