13
Frame=0 idx=008804 GeodesicLength=0.0 rxn_smarts="[N:1]([c:2]1[c:3]([O:4][H:10])[n:5]([H:11])[c:6]([H:12])[c:7]1[H:13])([H:8])[H:9]>>[N-:1]([C:2]1=[C:3]([O:4][H:10])[N:5]([H:11])[C+:6]([H:12])[C:7]1([H:9])[H:13])[H:8]"
N       -1.84110905       0.88989820       0.16842712
C       -0.68130668       0.29447989      -0.19596158
C       -0.12692407      -0.95246985      -0.36798049
O       -0.64975393      -2.19299731      -0.56429400
N        1.19979511      -0.83836259       0.03260495
C        1.55342074       0.40316636       0.34682231
C        0.39958942       1.22267460       0.12918483
H       -2.67320936       0.69368639      -0.37762111
H       -0.73598650       1.74257989       0.66307000
H       -1.35960082      -2.33432677       0.07045078
H        1.80403430      -1.64277670       0.09621481
H        2.58091286       0.65480066       0.55581150
H        0.53013795       2.05964722      -0.55672914
13
Frame=1 idx=008804 GeodesicLength=0.04463401412211274 rxn_smarts="[N:1]([c:2]1[c:3]([O:4][H:10])[n:5]([H:11])[c:6]([H:12])[c:7]1[H:13])([H:8])[H:9]>>[N-:1]([C:2]1=[C:3]([O:4][H:10])[N:5]([H:11])[C+:6]([H:12])[C:7]1([H:9])[H:13])[H:8]"
N       -1.84065020       0.87705722       0.16887791
C       -0.67814091       0.29825860      -0.21569171
C       -0.12500834      -0.95318912      -0.36578754
O       -0.65485601      -2.19161843      -0.55316349
N        1.20201691      -0.83905094       0.02543737
C        1.55472541       0.40295776       0.34367727
C        0.40216826       1.22385817       0.12686677
H       -2.66701126       0.68382642      -0.38671895
H       -0.74547702       1.73920666       0.67686273
H       -1.36932416      -2.32127390       0.07885210
H        1.80481305      -1.64412678       0.09272758
H        2.58162117       0.65434946       0.55530365
H        0.53512311       2.06974488      -0.54724368
13
Frame=2 idx=008804 GeodesicLength=0.08927599589715243 rxn_smarts="[N:1]([c:2]1[c:3]([O:4][H:10])[n:5]([H:11])[c:6]([H:12])[c:7]1[H:13])([H:8])[H:9]>>[N-:1]([C:2]1=[C:3]([O:4][H:10])[N:5]([H:11])[C+:6]([H:12])[C:7]1([H:9])[H:13])[H:8]"
N       -1.84008165       0.86449298       0.16898897
C       -0.67505384       0.30179756      -0.23399922
C       -0.12321914      -0.95376311      -0.36302522
O       -0.65985958      -2.18996241      -0.54230188
N        1.20414751      -0.83976024       0.01868498
C        1.55604504       0.40278373       0.34065415
C        0.40474951       1.22504377       0.12449862
H       -2.66063631       0.67419168      -0.39600020
H       -0.75512485       1.73582492       0.69072821
H       -1.37892412      -2.30841389       0.08666396
H        1.80565292      -1.64541986       0.08898059
H        2.58242029       0.65397695       0.55446545
H        0.53988423       2.07920792      -0.53833843
13
Frame=3 idx=008804 GeodesicLength=0.13391640056899806 rxn_smarts="[N:1]([c:2]1[c:3]([O:4][H:10])[n:5]([H:11])[c:6]([H:12])[c:7]1[H:13])([H:8])[H:9]>>[N-:1]([C:2]1=[C:3]([O:4][H:10])[N:5]([H:11])[C+:6]([H:12])[C:7]1([H:9])[H:13])[H:8]"
N       -1.83940514       0.85219728       0.16895001
C       -0.67205290       0.30510429      -0.25099731
C       -0.12151645      -0.95419462      -0.35978743
O       -0.66471795      -2.18803863      -0.53190211
N        1.20616535      -0.84050374       0.01245959
C        1.55739399       0.40266858       0.33768279
C        0.40735247       1.22625444       0.12200095
H       -2.65414798       0.66474865      -0.40518606
H       -0.76489397       1.73249721       0.70462278
H       -1.38839460      -2.29579570       0.09365606
H        1.80644864      -1.64671084       0.08540896
H        2.58332850       0.65370478       0.55322293
H        0.54444005       2.08806832      -0.53013117
13
Frame=4 idx=008804 GeodesicLength=0.1785613070530986 rxn_smarts="[N:1]([c:2]1[c:3]([O:4][H:10])[n:5]([H:11])[c:6]([H:12])[c:7]1[H:13])([H:8])[H:9]>>[N-:1]([C:2]1=[C:3]([O:4][H:10])[N:5]([H:11])[C+:6]([H:12])[C:7]1([H:9])[H:13])[H:8]"
N       -1.83864856       0.84018213       0.16868292
C       -0.66912900       0.30819856      -0.26689697
C       -0.11989255      -0.95451316      -0.35612875
O       -0.66946618      -2.18591205      -0.52177469
N        1.20808475      -0.84127922       0.00666359
C        1.55875672       0.40258751       0.33479779
C        0.40997393       1.22748189       0.11940603
H       -2.64755443       0.65551332      -0.41439708
H       -0.77481933       1.72915434       0.71860127
H       -1.39774056      -2.28336576       0.10009611
H        1.80728217      -1.64797249       0.08171099
H        2.58431187       0.65349661       0.55172259
H        0.54884117       2.09642831      -0.52248380
13
Frame=5 idx=008804 GeodesicLength=0.22322816868851986 rxn_smarts="[N:1]([c:2]1[c:3]([O:4][H:10])[n:5]([H:11])[c:6]([H:12])[c:7]1[H:13])([H:8])[H:9]>>[N-:1]([C:2]1=[C:3]([O:4][H:10])[N:5]([H:11])[C+:6]([H:12])[C:7]1([H:9])[H:13])[H:8]"
N       -1.83782448       0.82844615       0.16812609
C       -0.66626821       0.31110818      -0.28188410
C       -0.11833938      -0.95471906      -0.35212911
O       -0.67413521      -2.18361015      -0.51179340
N        1.20993239      -0.84208380       0.00114807
C        1.56012327       0.40252692       0.33200421
C        0.41261461       1.22872265       0.11673952
H       -2.64086166       0.64645428      -0.42370332
H       -0.78492877       1.72572126       0.73272883
H       -1.40694794      -2.27106158       0.10618959
H        1.80815754      -1.64921764       0.07780405
H        2.58535172       0.65332838       0.55003298
H        0.55312613       2.10438441      -0.51526341
13
Frame=6 idx=008804 GeodesicLength=0.26790417610183476 rxn_smarts="[N:1]([c:2]1[c:3]([O:4][H:10])[n:5]([H:11])[c:6]([H:12])[c:7]1[H:13])([H:8])[H:9]>>[N-:1]([C:2]1=[C:3]([O:4][H:10])[N:5]([H:11])[C+:6]([H:12])[C:7]1([H:9])[H:13])[H:8]"
N       -1.83697820       0.81707021       0.16702445
C       -0.66345362       0.31383737      -0.29612029
C       -0.11688385      -0.95488222      -0.34769660
O       -0.67881006      -2.18123342      -0.50148975
N        1.21170456      -0.84290230      -0.00413158
C        1.56142981       0.40241587       0.32952535
C        0.41525646       1.22994158       0.11409810
H       -2.63402804       0.63761705      -0.43347201
H       -0.79532673       1.72214603       0.74698026
H       -1.41605739      -2.25879637       0.11249719
H        1.80940121      -1.65029418       0.07248807
H        2.58634563       0.65311567       0.54858467
H        0.55740020       2.11196471      -0.50828788
13
Frame=7 idx=008804 GeodesicLength=0.3126075924838672 rxn_smarts="[N:1]([c:2]1[c:3]([O:4][H:10])[n:5]([H:11])[c:6]([H:12])[c:7]1[H:13])([H:8])[H:9]>>[N-:1]([C:2]1=[C:3]([O:4][H:10])[N:5]([H:11])[C+:6]([H:12])[C:7]1([H:9])[H:13])[H:8]"
N       -1.83607612       0.80593894       0.16576495
C       -0.66068538       0.31640791      -0.30962811
C       -0.11545134      -0.95492903      -0.34301678
O       -0.68335992      -2.17867842      -0.49146493
N        1.21337380      -0.84375630      -0.00904393
C        1.56277177       0.40234603       0.32703376
C        0.41793503       1.23119095       0.11134496
H       -2.62714300       0.62891688      -0.44316887
H       -0.80589809       1.71843342       0.76143381
H       -1.42503017      -2.24665056       0.11828384
H        1.81054411      -1.65142279       0.06745843
H        2.58745319       0.65296335       0.54672440
H        0.56156611       2.11923962      -0.50172153
13
Frame=8 idx=008804 GeodesicLength=0.3573286124574965 rxn_smarts="[N:1]([c:2]1[c:3]([O:4][H:10])[n:5]([H:11])[c:6]([H:12])[c:7]1[H:13])([H:8])[H:9]>>[N-:1]([C:2]1=[C:3]([O:4][H:10])[N:5]([H:11])[C+:6]([H:12])[C:7]1([H:9])[H:13])[H:8]"
N       -1.83513655       0.79509269       0.16416975
C       -0.65795074       0.31884023      -0.32255727
C       -0.11406626      -0.95488878      -0.33811543
O       -0.68786185      -2.17601415      -0.48140120
N        1.21499066      -0.84461991      -0.01381676
C        1.56410673       0.40226663       0.32464742
C        0.42063900       1.23244797       0.10855106
H       -2.62016648       0.62038364      -0.45305226
H       -0.81672034       1.71450544       0.77611027
H       -1.43384851      -2.23456348       0.12401501
H        1.81172607      -1.65251881       0.06208509
H        2.58859907       0.65280559       0.54475054
H        0.56568920       2.12626294      -0.49538624
13
Frame=9 idx=008804 GeodesicLength=0.4020767757400437 rxn_smarts="[N:1]([c:2]1[c:3]([O:4][H:10])[n:5]([H:11])[c:6]([H:12])[c:7]1[H:13])([H:8])[H:9]>>[N-:1]([C:2]1=[C:3]([O:4][H:10])[N:5]([H:11])[C+:6]([H:12])[C:7]1([H:9])[H:13])[H:8]"
N       -1.83418884       0.78455630       0.16210716
C       -0.65523385       0.32113954      -0.33502135
C       -0.11273109      -0.95478079      -0.33297496
O       -0.69234878      -2.17328250      -0.47105789
N        1.21654815      -0.84549302      -0.01846923
C        1.56541492       0.40215067       0.32244707
C        0.42336490       1.23370093       0.10576832
H       -2.61308674       0.61203635      -0.46331280
H       -0.82785483       1.71028713       0.79102554
H       -1.44253603      -2.22246413       0.12996907
H        1.81308127      -1.65353608       0.05586118
H        2.58975433       0.65260771       0.54281817
H        0.56981659       2.13307790      -0.48916029
13
Frame=10 idx=008804 GeodesicLength=0.446855940549345 rxn_smarts="[N:1]([c:2]1[c:3]([O:4][H:10])[n:5]([H:11])[c:6]([H:12])[c:7]1[H:13])([H:8])[H:9]>>[N-:1]([C:2]1=[C:3]([O:4][H:10])[N:5]([H:11])[C+:6]([H:12])[C:7]1([H:9])[H:13])[H:8]"
N       -1.83325569       0.77437356       0.15947409
C       -0.65250548       0.32329665      -0.34699977
C       -0.11146306      -0.95464974      -0.32746783
O       -0.69686366      -2.17046204      -0.46026616
N        1.21805863      -0.84638825      -0.02301630
C        1.56666746       0.40198180       0.32054533
C        0.42609081       1.23492490       0.10301917
H       -2.60585272       0.60386529      -0.47412967
H       -0.83935097       1.70576857       0.80619048
H       -1.45110615      -2.21027551       0.13631426
H        1.81474665      -1.65444142       0.04828967
H        2.59087042       0.65236108       0.54107207
H        0.57396375       2.13964511      -0.48302535
13
Frame=11 idx=008804 GeodesicLength=0.49167236758208854 rxn_smarts="[N:1]([c:2]1[c:3]([O:4][H:10])[n:5]([H:11])[c:6]([H:12])[c:7]1[H:13])([H:8])[H:9]>>[N-:1]([C:2]1=[C:3]([O:4][H:10])[N:5]([H:11])[C+:6]([H:12])[C:7]1([H:9])[H:13])[H:8]"
N       -1.83229719       0.76443198       0.15650639
C       -0.64977689       0.32536126      -0.35864075
C       -0.11019990      -0.95439126      -0.32186989
O       -0.70132142      -2.16754783      -0.44935036
N        1.21949147      -0.84729380      -0.02740178
C        1.56793232       0.40180598       0.31869203
C        0.42886502       1.23616886       0.10024017
H       -2.59853857       0.59581505      -0.48513898
H       -0.85114999       1.70089971       0.82163103
H       -1.45953966      -2.19807731       0.14270752
H        1.81637374      -1.65534507       0.04046281
H        2.59205646       0.65209085       0.53914201
H        0.57810460       2.14608159      -0.47698020
13
Frame=12 idx=008804 GeodesicLength=0.5365130033005004 rxn_smarts="[N:1]([c:2]1[c:3]([O:4][H:10])[n:5]([H:11])[c:6]([H:12])[c:7]1[H:13])([H:8])[H:9]>>[N-:1]([C:2]1=[C:3]([O:4][H:10])[N:5]([H:11])[C+:6]([H:12])[C:7]1([H:9])[H:13])[H:8]"
N       -1.83133470       0.75482397       0.15306853
C       -0.64704176       0.32729669      -0.36991368
C       -0.10899660      -0.95410398      -0.31600687
O       -0.70578373      -2.16453738      -0.43807920
N        1.22088111      -0.84822039      -0.03167919
C        1.56915637       0.40158276       0.31707129
C        0.43166045       1.23739757       0.09745486
H       -2.59109327       0.58792918      -0.49656216
H       -0.86332898       1.69567347       0.83731899
H       -1.46781680      -2.18578417       0.14941858
H        1.81818784      -1.65615082       0.03161946
H        2.59322736       0.65176965       0.53733035
H        0.58228271       2.15232346      -0.47104096
13
Frame=13 idx=008804 GeodesicLength=0.5813880224720334 rxn_smarts="[N:1]([c:2]1[c:3]([O:4][H:10])[n:5]([H:11])[c:6]([H:12])[c:7]1[H:13])([H:8])[H:9]>>[N-:1]([C:2]1=[C:3]([O:4][H:10])[N:5]([H:11])[C+:6]([H:12])[C:7]1([H:9])[H:13])[H:8]"
N       -1.83034978       0.74546985       0.14936690
C       -0.64429158       0.32913710      -0.38085957
C       -0.10779220      -0.95372190      -0.30999218
O       -0.71018937      -2.16142371      -0.42673972
N        1.22218574      -0.84916878      -0.03570844
C        1.57039650       0.40136544       0.31551267
C        0.43450986       1.23865129       0.09458951
H       -2.58357180       0.58015986      -0.50810696
H       -0.87582149       1.69010697       0.85327033
H       -1.47598135      -2.17349144       0.15607914
H        1.81997182      -1.65695197       0.02252294
H        2.59446487       0.65144784       0.53535157
H        0.58646877       2.15841945      -0.46528620
13
Frame=14 idx=008804 GeodesicLength=0.6262817302259082 rxn_smarts="[N:1]([c:2]1[c:3]([O:4][H:10])[n:5]([H:11])[c:6]([H:12])[c:7]1[H:13])([H:8])[H:9]>>[N-:1]([C:2]1=[C:3]([O:4][H:10])[N:5]([H:11])[C+:6]([H:12])[C:7]1([H:9])[H:13])[H:8]"
N       -1.82931821       0.73635602       0.14553120
C       -0.64154414       0.33087616      -0.39146974
C       -0.10659378      -0.95325256      -0.30383615
O       -0.71452209      -2.15819290      -0.41547534
N        1.22340466      -0.85014496      -0.03942481
C        1.57165671       0.40117038       0.31398711
C        0.43742530       1.23994240       0.09157793
H       -2.57599587       0.57249783      -0.51960227
H       -0.88860345       1.68424852       0.86944911
H       -1.48403000      -2.16123628       0.16251349
H        1.82168649      -1.65775755       0.01338803
H        2.59576638       0.65114154       0.53320890
H        0.59066800       2.16435140      -0.45984745
13
Frame=15 idx=008804 GeodesicLength=0.6711866634170301 rxn_smarts="[N:1]([c:2]1[c:3]([O:4][H:10])[n:5]([H:11])[c:6]([H:12])[c:7]1[H:13])([H:8])[H:9]>>[N-:1]([C:2]1=[C:3]([O:4][H:10])[N:5]([H:11])[C+:6]([H:12])[C:7]1([H:9])[H:13])[H:8]"
N       -1.82822161       0.72745971       0.14168954
C       -0.63881177       0.33251814      -0.40173772
C       -0.10539584      -0.95269238      -0.29755028
O       -0.71876387      -2.15483615      -0.40444833
N        1.22453590      -0.85115116      -0.04278570
C        1.57294793       0.40101998       0.31244938
C        0.44041997       1.24128660       0.08835344
H       -2.56839486       0.56493579      -0.53087693
H       -0.90164027       1.67814062       0.88584366
H       -1.49196514      -2.14907414       0.16853559
H        1.82326923      -1.65859365       0.00450053
H        2.59713845       0.65087435       0.53087249
H        0.59488188       2.17011230      -0.45484567
13
Frame=16 idx=008804 GeodesicLength=0.7160951483860737 rxn_smarts="[N:1]([c:2]1[c:3]([O:4][H:10])[n:5]([H:11])[c:6]([H:12])[c:7]1[H:13])([H:8])[H:9]>>[N-:1]([C:2]1=[C:3]([O:4][H:10])[N:5]([H:11])[C+:6]([H:12])[C:7]1([H:9])[H:13])[H:8]"
N       -1.82704357       0.71876211       0.13794813
C       -0.63610736       0.33406934      -0.41166579
C       -0.10419524      -0.95203803      -0.29115287
O       -0.72290373      -2.15134930      -0.39380173
N        1.22558210      -0.85218523      -0.04577695
C        1.57427844       0.40093186       0.31085944
C        0.44350527       1.24269726       0.08486190
H       -2.56079528       0.55747402      -0.54179223
H       -0.91490353       1.67180999       0.90245758
H       -1.49978347      -2.13705672       0.17399945
H        1.82466537      -1.65948555      -0.00386850
H        2.59858779       0.65066605       0.52830519
H        0.59911320       2.17570420      -0.45037362
