16
Frame=0 idx=010723 GeodesicLength=0.0 rxn_smarts="[N:1]([C:2](=[O:3])[C:4]([C:5]([C:6]([O:7][H:16])([H:14])[H:15])([H:12])[H:13])([H:10])[H:11])([H:8])[H:9]>>[N:1]([C:2](=[O:3])[C:4]1([H:11])[C:5]([H:12])([H:13])[C:6]1([H:14])[H:15])([H:8])[H:9].[O:7]([H:10])[H:16]"
N        0.88058834       0.10984382       2.06245007
C        1.28842583      -0.64516990       0.96125890
O        2.38854256      -1.17843234       0.97376396
C        0.35775469      -0.78180452      -0.13430452
C       -1.14188025      -0.59626087       0.05196043
C       -1.29498976       0.65713393      -0.69382269
O        0.26114829       1.14693693      -1.90076643
H        1.63961058       0.31258437       2.69212048
H        0.25863714       0.88425493       1.90868780
H        0.70771665       0.45392171      -1.28019486
H        0.62767292      -1.54736087      -0.85183749
H       -1.72531413      -1.41460959      -0.36793430
H       -1.41015303      -0.46827930       1.10436051
H       -1.92430301       0.73606633      -1.57136783
H       -1.11695916       1.59189630      -0.18031453
H        0.20350229       0.73927909      -2.77405950
16
Frame=1 idx=010723 GeodesicLength=0.13888593113284967 rxn_smarts="[N:1]([C:2](=[O:3])[C:4]([C:5]([C:6]([O:7][H:16])([H:14])[H:15])([H:12])[H:13])([H:10])[H:11])([H:8])[H:9]>>[N:1]([C:2](=[O:3])[C:4]1([H:11])[C:5]([H:12])([H:13])[C:6]1([H:14])[H:15])([H:8])[H:9].[O:7]([H:10])[H:16]"
N        0.94388695       0.16960632       2.02086678
C        1.26907575      -0.68220227       0.96715796
O        2.28520384      -1.35597812       1.05764622
C        0.34259696      -0.78639414      -0.13941382
C       -1.15535313      -0.61941237       0.06156686
C       -1.32270514       0.60042364      -0.73335464
O        0.27140205       1.23367871      -1.81764217
H        1.71733907       0.34576197       2.64042898
H        0.37369287       0.97453560       1.82921754
H        0.71475611       0.49266000      -1.21971666
H        0.61121729      -1.54583395      -0.86446389
H       -1.73421507      -1.45830699      -0.32239187
H       -1.41294361      -0.44942720       1.11021841
H       -1.92086877       0.62127099      -1.63609902
H       -1.25986568       1.55497432      -0.22934262
H        0.27678049       0.90464348      -2.72467806
16
Frame=2 idx=010723 GeodesicLength=0.2785846258774859 rxn_smarts="[N:1]([C:2](=[O:3])[C:4]([C:5]([C:6]([O:7][H:16])([H:14])[H:15])([H:12])[H:13])([H:10])[H:11])([H:8])[H:9]>>[N:1]([C:2](=[O:3])[C:4]1([H:11])[C:5]([H:12])([H:13])[C:6]1([H:14])[H:15])([H:8])[H:9].[O:7]([H:10])[H:16]"
N        1.01217148       0.22240953       1.97521889
C        1.24980240      -0.71274223       0.97342053
O        2.16365508      -1.50563106       1.14897329
C        0.32835758      -0.79079998      -0.14363851
C       -1.16804010      -0.64008923       0.06974502
C       -1.34433007       0.54486830      -0.77354450
O        0.27198522       1.31584908      -1.72962756
H        1.79639836       0.36802547       2.58869345
H        0.49735484       1.05376046       1.74441298
H        0.71749001       0.52459793      -1.16457403
H        0.59790960      -1.54763804      -0.87150159
H       -1.74182124      -1.49713121      -0.27991901
H       -1.41716504      -0.42742001       1.11214708
H       -1.90369241       0.50877898      -1.70080745
H       -1.39428362       1.50983358      -0.28814230
H        0.33420791       1.07332844      -2.66085629
16
Frame=3 idx=010723 GeodesicLength=0.4192825580156569 rxn_smarts="[N:1]([C:2](=[O:3])[C:4]([C:5]([C:6]([O:7][H:16])([H:14])[H:15])([H:12])[H:13])([H:10])[H:11])([H:8])[H:9]>>[N:1]([C:2](=[O:3])[C:4]1([H:11])[C:5]([H:12])([H:13])[C:6]1([H:14])[H:15])([H:8])[H:9].[O:7]([H:10])[H:16]"
N        1.08481535       0.26720821       1.92690449
C        1.23093768      -0.73775229       0.98013053
O        2.02959619      -1.62488396       1.24447875
C        0.31486016      -0.79467578      -0.14693718
C       -1.18023309      -0.65790652       0.07632911
C       -1.36045967       0.49086744      -0.81447242
O        0.26316240       1.39249855      -1.63800727
H        1.87521334       0.37921125       2.53909506
H        0.62896057       1.12055949       1.65638604
H        0.71667278       0.55081566      -1.11558128
H        0.58655651      -1.55310457      -0.87276159
H       -1.74878538      -1.53083082      -0.24061340
H       -1.42314094      -0.40216669       1.10997521
H       -1.87419532       0.39957137      -1.76450244
H       -1.51908420       1.45783884      -0.35701493
H        0.37512363       1.24274982      -2.58340869
16
Frame=4 idx=010723 GeodesicLength=0.5608283858712446 rxn_smarts="[N:1]([C:2](=[O:3])[C:4]([C:5]([C:6]([O:7][H:16])([H:14])[H:15])([H:12])[H:13])([H:10])[H:11])([H:8])[H:9]>>[N:1]([C:2](=[O:3])[C:4]1([H:11])[C:5]([H:12])([H:13])[C:6]1([H:14])[H:15])([H:8])[H:9].[O:7]([H:10])[H:16]"
N        1.16145754       0.30358686       1.87688323
C        1.21227379      -0.75816486       0.98758521
O        1.88772859      -1.71394163       1.34159481
C        0.30192145      -0.79762197      -0.14930860
C       -1.19224881      -0.67265236       0.08117473
C       -1.37178896       0.43846445      -0.85636219
O        0.24508508       1.46318831      -1.54366782
H        1.95277883       0.37999561       2.49293693
H        0.76860556       1.17426706       1.56620676
H        0.71290328       0.57335669      -1.07204295
H        0.57630036      -1.56174830      -0.86857317
H       -1.75560326      -1.55944826      -0.20440581
H       -1.43114820      -0.37355354       1.10352762
H       -1.83377480       0.29388823      -1.82655646
H       -1.63379629       1.39991444      -0.43608834
H        0.39930584       1.41046926      -2.49290396
16
Frame=5 idx=010723 GeodesicLength=0.7024294960736926 rxn_smarts="[N:1]([C:2](=[O:3])[C:4]([C:5]([C:6]([O:7][H:16])([H:14])[H:15])([H:12])[H:13])([H:10])[H:11])([H:8])[H:9]>>[N:1]([C:2](=[O:3])[C:4]1([H:11])[C:5]([H:12])([H:13])[C:6]1([H:14])[H:15])([H:8])[H:9].[O:7]([H:10])[H:16]"
N        1.24159774       0.33183675       1.82534507
C        1.19318703      -0.77451987       0.99626492
O        1.74162133      -1.77381019       1.43925682
C        0.28943638      -0.79957166      -0.15083378
C       -1.20437039      -0.68472427       0.08383012
C       -1.37874123       0.38794128      -0.89877221
O        0.21792636       1.52745965      -1.44761741
H        2.02808765       0.37223592       2.45055033
H        0.91628138       1.21445400       1.47345316
H        0.70658892       0.59395399      -1.03278627
H        0.56693733      -1.57300407      -0.85940881
H       -1.76256822      -1.58342109      -0.17243278
H       -1.44167326      -0.34291468       1.09253866
H       -1.78461407       0.19310148      -1.88552764
H       -1.73666171       1.33714134      -0.52360059
H        0.40696479       1.57384143      -2.39025959
16
Frame=6 idx=010723 GeodesicLength=0.8427473360150394 rxn_smarts="[N:1]([C:2](=[O:3])[C:4]([C:5]([C:6]([O:7][H:16])([H:14])[H:15])([H:12])[H:13])([H:10])[H:11])([H:8])[H:9]>>[N:1]([C:2](=[O:3])[C:4]1([H:11])[C:5]([H:12])([H:13])[C:6]1([H:14])[H:15])([H:8])[H:9].[O:7]([H:10])[H:16]"
N        1.32516302       0.35139943       1.77343882
C        1.17314466      -0.78679316       1.00667570
O        1.59382923      -1.80620300       1.53593284
C        0.27739247      -0.79969719      -0.15145368
C       -1.21674967      -0.69403218       0.08411811
C       -1.38179429       0.33934661      -0.94191661
O        0.18125718       1.58553291      -1.35191127
H        2.10156879       0.35674033       2.41203111
H        1.07183249       1.23976722       1.37971779
H        0.69781417       0.61554121      -0.99508177
H        0.55853164      -1.58520981      -0.84581583
H       -1.76961115      -1.60310226      -0.14477914
H       -1.45506598      -0.31039317       1.07688346
H       -1.72844019       0.09692683      -1.94103827
H       -1.82723902       1.27059942      -0.61891559
H        0.39836664       1.72957680      -2.27788568
16
Frame=7 idx=010723 GeodesicLength=0.9800533494406549 rxn_smarts="[N:1]([C:2](=[O:3])[C:4]([C:5]([C:6]([O:7][H:16])([H:14])[H:15])([H:12])[H:13])([H:10])[H:11])([H:8])[H:9]>>[N:1]([C:2](=[O:3])[C:4]1([H:11])[C:5]([H:12])([H:13])[C:6]1([H:14])[H:15])([H:8])[H:9].[O:7]([H:10])[H:16]"
N        1.41140023       0.36332154       1.71988680
C        1.15119254      -0.79464518       1.01943336
O        1.44643686      -1.81132200       1.63278153
C        0.26562816      -0.79884601      -0.15117325
C       -1.22967255      -0.70199999       0.08130402
C       -1.38075714       0.29342534      -0.98449985
O        0.13646024       1.63710518      -1.25685361
H        2.17197518       0.33666087       2.37645281
H        1.23453298       1.24938115       1.28200263
H        0.68710348       0.63749496      -0.95861786
H        0.55136586      -1.59879638      -0.82769455
H       -1.77700757      -1.61969578      -0.12414237
H       -1.47228993      -0.27952401       1.05655979
H       -1.66804125       0.00793055      -1.99142015
H       -1.90284781       1.20231984      -0.71729181
H        0.37452074       1.87718992      -2.15672747
16
Frame=8 idx=010723 GeodesicLength=1.1123991043678916 rxn_smarts="[N:1]([C:2](=[O:3])[C:4]([C:5]([C:6]([O:7][H:16])([H:14])[H:15])([H:12])[H:13])([H:10])[H:11])([H:8])[H:9]>>[N:1]([C:2](=[O:3])[C:4]1([H:11])[C:5]([H:12])([H:13])[C:6]1([H:14])[H:15])([H:8])[H:9].[O:7]([H:10])[H:16]"
N        1.50107968       0.36532631       1.66796135
C        1.12692828      -0.79708668       1.03524858
O        1.30047680      -1.79150133       1.72709637
C        0.25429692      -0.79474591      -0.14954617
C       -1.24304778      -0.70763298       0.07576383
C       -1.37616105       0.24973935      -1.02776559
O        0.08141469       1.68413738      -1.16644453
H        2.24350948       0.30954024       2.34290351
H        1.40341776       1.24084348       1.18650018
H        0.67365616       0.66474345      -0.91790274
H        0.54599122      -1.61030775      -0.80546119
H       -1.78394801      -1.63332022      -0.10862688
H       -1.49348787      -0.24823017       1.03162796
H       -1.60357152      -0.07683375      -2.03794284
H       -1.96594155       1.13257656      -0.82068731
H        0.33538682       2.01275203      -2.03272452
16
Frame=9 idx=010723 GeodesicLength=1.2401356186067352 rxn_smarts="[N:1]([C:2](=[O:3])[C:4]([C:5]([C:6]([O:7][H:16])([H:14])[H:15])([H:12])[H:13])([H:10])[H:11])([H:8])[H:9]>>[N:1]([C:2](=[O:3])[C:4]1([H:11])[C:5]([H:12])([H:13])[C:6]1([H:14])[H:15])([H:8])[H:9].[O:7]([H:10])[H:16]"
N        1.59325584       0.35876528       1.61384580
C        1.09982353      -0.79313610       1.05422184
O        1.15684355      -1.74432117       1.82218844
C        0.24313199      -0.78947059      -0.14651812
C       -1.25707400      -0.71302779       0.06673449
C       -1.36720694       0.20917231      -1.06993066
O        0.01875212       1.72616208      -1.07803130
H        2.31313475       0.27923110       2.31017675
H        1.57766963       1.21218674       1.08564343
H        0.65822200       0.69390431      -0.87445504
H        0.54249737      -1.62199183      -0.77811988
H       -1.79085492      -1.64549897      -0.10167267
H       -1.51970635      -0.22106087       1.00231030
H       -1.53627294      -0.15425113      -2.07932710
H       -2.01417823       1.06364142      -0.92361291
H        0.28196262       2.13969520      -1.90345337
16
Frame=10 idx=010723 GeodesicLength=1.3658160545873606 rxn_smarts="[N:1]([C:2](=[O:3])[C:4]([C:5]([C:6]([O:7][H:16])([H:14])[H:15])([H:12])[H:13])([H:10])[H:11])([H:8])[H:9]>>[N:1]([C:2](=[O:3])[C:4]1([H:11])[C:5]([H:12])([H:13])[C:6]1([H:14])[H:15])([H:8])[H:9].[O:7]([H:10])[H:16]"
N        1.68858064       0.34110871       1.56012538
C        1.06978743      -0.78102429       1.07694660
O        1.01570631      -1.66989147       1.91637929
C        0.23234560      -0.78102242      -0.14163349
C       -1.27146800      -0.71753737       0.05459674
C       -1.35403761       0.17141120      -1.11193408
O       -0.05438868       1.76572811      -0.99442075
H        2.38526830       0.24185363       2.27693090
H        1.75693039       1.15980078       0.98355554
H        0.63929216       0.72948339      -0.82262565
H        0.54153095      -1.63110716      -0.74555260
H       -1.79661111      -1.65667723      -0.10168096
H       -1.55108009      -0.19647292       0.96867727
H       -1.46494877      -0.22659064      -2.11680260
H       -2.05040671       0.99492435      -1.02827005
H        0.21349919       2.25601333      -1.77429155
16
Frame=11 idx=010723 GeodesicLength=1.4929031678459852 rxn_smarts="[N:1]([C:2](=[O:3])[C:4]([C:5]([C:6]([O:7][H:16])([H:14])[H:15])([H:12])[H:13])([H:10])[H:11])([H:8])[H:9]>>[N:1]([C:2](=[O:3])[C:4]1([H:11])[C:5]([H:12])([H:13])[C:6]1([H:14])[H:15])([H:8])[H:9].[O:7]([H:10])[H:16]"
N        1.78587117       0.31136775       1.50481039
C        1.03783425      -0.75932998       1.10248567
O        0.87844314      -1.56451778       2.00983675
C        0.22213179      -0.77021205      -0.13502595
C       -1.28570814      -0.72193998       0.03939482
C       -1.33578497       0.13698526      -1.15284853
O       -0.13742339       1.80295527      -0.91453311
H        2.45782997       0.19829649       2.24260556
H        1.93781382       1.07948991       0.87696637
H        0.61668650       0.77075304      -0.76113606
H        0.54291797      -1.63863638      -0.70710319
H       -1.80075195      -1.66755214      -0.10927872
H       -1.58732274      -0.17604163       0.93110763
H       -1.38879866      -0.29267581      -2.14988112
H       -2.07398741       0.92740834      -1.13275043
H        0.13024865       2.36364971      -1.64465007
16
Frame=12 idx=010723 GeodesicLength=1.6227325801403256 rxn_smarts="[N:1]([C:2](=[O:3])[C:4]([C:5]([C:6]([O:7][H:16])([H:14])[H:15])([H:12])[H:13])([H:10])[H:11])([H:8])[H:9]>>[N:1]([C:2](=[O:3])[C:4]1([H:11])[C:5]([H:12])([H:13])[C:6]1([H:14])[H:15])([H:8])[H:9].[O:7]([H:10])[H:16]"
N        1.88186690       0.26831384       1.44706110
C        1.00646024      -0.72809128       1.12855371
O        0.74891541      -1.42558295       2.09954027
C        0.21306633      -0.75841527      -0.12744086
C       -1.29870352      -0.72649976       0.02181649
C       -1.31144728       0.10680145      -1.19135318
O       -0.22775214       1.83702616      -0.83809735
H        2.52803662       0.15038542       2.20653358
H        2.11020555       0.97014375       0.76680520
H        0.59140669       0.81584503      -0.68989072
H        0.54566318      -1.64623209      -0.66310041
H       -1.80294713      -1.67804684      -0.12389595
H       -1.62648248      -0.16035142       0.89075594
H       -1.30770398      -0.35120270      -2.17772123
H       -2.08370849       0.86302096      -1.23465167
H        0.03312410       2.46288569      -1.51491491
16
Frame=13 idx=010723 GeodesicLength=1.7544961058135387 rxn_smarts="[N:1]([C:2](=[O:3])[C:4]([C:5]([C:6]([O:7][H:16])([H:14])[H:15])([H:12])[H:13])([H:10])[H:11])([H:8])[H:9]>>[N:1]([C:2](=[O:3])[C:4]1([H:11])[C:5]([H:12])([H:13])[C:6]1([H:14])[H:15])([H:8])[H:9].[O:7]([H:10])[H:16]"
N        1.97014490       0.21320730       1.38937814
C        0.97948638      -0.69017159       1.15143464
O        0.63337922      -1.25641386       2.17765101
C        0.20606800      -0.74711013      -0.12050237
C       -1.30899199      -0.73077300       0.00346316
C       -1.28121342       0.08178703      -1.22563227
O       -0.32122711       1.86641803      -0.76665908
H        2.59208250       0.10050257       2.16924457
H        2.26134591       0.83812768       0.65968590
H        0.56529748       0.86151749      -0.61134778
H        0.54831939      -1.65511124      -0.61604143
H       -1.80297485      -1.68721948      -0.14286908
H       -1.66463917      -0.14874351       0.84991945
H       -1.22434536      -0.40137804      -2.19891965
H       -2.07951033       0.80417991      -1.33075265
H       -0.07322156       2.55118084      -1.38805255
16
Frame=14 idx=010723 GeodesicLength=1.8860254052834369 rxn_smarts="[N:1]([C:2](=[O:3])[C:4]([C:5]([C:6]([O:7][H:16])([H:14])[H:15])([H:12])[H:13])([H:10])[H:11])([H:8])[H:9]>>[N:1]([C:2](=[O:3])[C:4]1([H:11])[C:5]([H:12])([H:13])[C:6]1([H:14])[H:15])([H:8])[H:9].[O:7]([H:10])[H:16]"
N        2.04482091       0.15040986       1.33423010
C        0.95984948      -0.65193390       1.16792940
O        0.53775411      -1.06624047       2.23623800
C        0.20156545      -0.73913713      -0.11610652
C       -1.31590258      -0.73447533      -0.01395959
C       -1.24638060       0.06221788      -1.25425416
O       -0.41029876       1.88867727      -0.70031536
H        2.64369932       0.05689534       2.13410824
H        2.38256420       0.69529205       0.56135068
H        0.54273445       0.90141834      -0.53364038
H        0.54852300      -1.66781710      -0.56965938
H       -1.80239292      -1.69387862      -0.16352495
H       -1.69761968      -0.14010047       0.81149880
H       -1.14344610      -0.44331999      -2.21304594
H       -2.06177892       0.75415832      -1.41700384
H       -0.18369136       2.62783397      -1.26384510
16
Frame=15 idx=010723 GeodesicLength=2.0174525177568343 rxn_smarts="[N:1]([C:2](=[O:3])[C:4]([C:5]([C:6]([O:7][H:16])([H:14])[H:15])([H:12])[H:13])([H:10])[H:11])([H:8])[H:9]>>[N:1]([C:2](=[O:3])[C:4]1([H:11])[C:5]([H:12])([H:13])[C:6]1([H:14])[H:15])([H:8])[H:9].[O:7]([H:10])[H:16]"
N        2.10466175       0.08375656       1.28437430
C        0.94688554      -0.61765960       1.17824968
O        0.46330555      -0.86500257       2.27075437
C        0.19940537      -0.73533077      -0.11471786
C       -1.31985266      -0.73724561      -0.02970425
C       -1.20882612       0.04738981      -1.27738412
O       -0.49118478       1.90350840      -0.63893213
H        2.68200604       0.02459493       2.10287839
H        2.47550260       0.55018551       0.47574560
H        0.52658142       0.93272089      -0.46239549
H        0.54561855      -1.68451874      -0.52593885
H       -1.80241468      -1.69750502      -0.18421976
H       -1.72407993      -0.13295855       0.77678861
H       -1.06822235      -0.47875605      -2.22105628
H       -2.03307778       0.71402508      -1.49252215
H       -0.29630853       2.69279572      -1.14192006
16
Frame=16 idx=010723 GeodesicLength=2.149406537702433 rxn_smarts="[N:1]([C:2](=[O:3])[C:4]([C:5]([C:6]([O:7][H:16])([H:14])[H:15])([H:12])[H:13])([H:10])[H:11])([H:8])[H:9]>>[N:1]([C:2](=[O:3])[C:4]1([H:11])[C:5]([H:12])([H:13])[C:6]1([H:14])[H:15])([H:8])[H:9].[O:7]([H:10])[H:16]"
N        2.15053632       0.01729509       1.24268614
C        0.93826927      -0.58775176       1.18416051
O        0.40827466      -0.66236817       2.27954289
C        0.19933313      -0.73437279      -0.11614236
C       -1.32136094      -0.73876398      -0.04354921
C       -1.17055501       0.03628747      -1.29583169
O       -0.56430576       1.91235062      -0.58333798
H        2.70978828       0.00251379       2.07540982
H        2.54629556       0.40725115       0.40543842
H        0.51714854       0.95637679      -0.39996950
H        0.54062809      -1.70302166      -0.48559027
H       -1.80280552      -1.69831788      -0.20360223
H       -1.74428284      -0.12622745       0.74606950
H       -1.00096814      -0.50987542      -2.22415629
H       -1.99727950       0.68277231      -1.55771262
H       -0.40871614       2.74585189      -1.02341513
