17
Frame=0 idx=007097 GeodesicLength=0.0 rxn_smarts="[C:1]([C@@:2]([O:3][H:12])([C:4]([C:5]([C:6](=[O:7])[H:17])([H:15])[H:16])([H:13])[H:14])[H:11])([H:8])([H:9])[H:10]>>[C:1]([C:2](=[O:3])[C:4]([C:5]([C:6]([O:7][H:12])([H:11])[H:17])([H:15])[H:16])([H:13])[H:14])([H:8])([H:9])[H:10]"
C       -1.94392603      -0.59273005      -0.53992615
C       -0.77927725       0.24050984      -0.07403448
O       -0.88997457       1.52279878      -0.23570747
C        0.03340251      -0.22031957       1.15734528
C        1.48040433      -0.33926950       0.65845089
C        1.46031025       0.34953826      -0.71088786
O        1.38803911       1.63732481      -0.75175692
H       -1.67926185      -1.64673871      -0.62450253
H       -2.74494093      -0.49910605       0.19844007
H       -2.31449995      -0.22247764      -1.49437935
H        0.22135474      -0.08324616      -0.98167785
H        0.20814337       1.85140278      -0.40020871
H       -0.08774665       0.53725837       1.93223358
H       -0.34569760      -1.16455623       1.55126308
H        1.76905046      -1.38559421       0.53681074
H        2.21061834       0.14211907       1.30989536
H        2.01400180      -0.12691385      -1.53135765
17
Frame=1 idx=007097 GeodesicLength=0.09745499964463199 rxn_smarts="[C:1]([C@@:2]([O:3][H:12])([C:4]([C:5]([C:6](=[O:7])[H:17])([H:15])[H:16])([H:13])[H:14])[H:11])([H:8])([H:9])[H:10]>>[C:1]([C:2](=[O:3])[C:4]([C:5]([C:6]([O:7][H:12])([H:11])[H:17])([H:15])[H:16])([H:13])[H:14])([H:8])([H:9])[H:10]"
C       -1.95797035      -0.60183040      -0.52848259
C       -0.78564232       0.23336900      -0.08670699
O       -0.89806807       1.51535673      -0.25860502
C        0.02919579      -0.21497907       1.14666099
C        1.47664021      -0.34506958       0.65185046
C        1.48180986       0.36271834      -0.70720053
O        1.40566765       1.65206024      -0.72780658
H       -1.69615874      -1.65743854      -0.60359338
H       -2.75077208      -0.49915464       0.21758723
H       -2.33877158      -0.24268826      -1.48316543
H        0.22781906      -0.08316759      -1.00253459
H        0.21028255       1.86013360      -0.39936744
H       -0.08292920       0.55327271       1.91248827
H       -0.34846797      -1.15343402       1.55520707
H        1.74793894      -1.39401119       0.51139811
H        2.21089641       0.11028263       1.31716577
H        2.06852986      -0.09541994      -1.51489535
17
Frame=2 idx=007097 GeodesicLength=0.19472930236907532 rxn_smarts="[C:1]([C@@:2]([O:3][H:12])([C:4]([C:5]([C:6](=[O:7])[H:17])([H:15])[H:16])([H:13])[H:14])[H:11])([H:8])([H:9])[H:10]>>[C:1]([C:2](=[O:3])[C:4]([C:5]([C:6]([O:7][H:12])([H:11])[H:17])([H:15])[H:16])([H:13])[H:14])([H:8])([H:9])[H:10]"
C       -1.97236031      -0.61060938      -0.51666975
C       -0.79203401       0.22572759      -0.09970101
O       -0.90572069       1.50736340      -0.28202264
C        0.02508720      -0.21006922       1.13550258
C        1.47303179      -0.35053942       0.64494555
C        1.50367890       0.37593298      -0.70319076
O        1.42281098       1.66646957      -0.70374883
H       -1.71384737      -1.66784930      -0.58211488
H       -2.75657517      -0.49820132       0.23711980
H       -2.36344604      -0.26260090      -1.47132890
H        0.23446203      -0.08352015      -1.02381264
H        0.21230436       1.86856925      -0.39904179
H       -0.07839451       0.56846534       1.89226469
H       -0.35074293      -1.14277091       1.55839304
H        1.72762223      -1.40128264       0.48539884
H        2.21036437       0.07863770       1.32397665
H        2.12375917      -0.06372259      -1.49596996
17
Frame=3 idx=007097 GeodesicLength=0.29183946705229113 rxn_smarts="[C:1]([C@@:2]([O:3][H:12])([C:4]([C:5]([C:6](=[O:7])[H:17])([H:15])[H:16])([H:13])[H:14])[H:11])([H:8])([H:9])[H:10]>>[C:1]([C:2](=[O:3])[C:4]([C:5]([C:6]([O:7][H:12])([H:11])[H:17])([H:15])[H:16])([H:13])[H:14])([H:8])([H:9])[H:10]"
C       -1.98709785      -0.61905040      -0.50447614
C       -0.79845650       0.21755575      -0.11303572
O       -0.91294083       1.49878529      -0.30598309
C        0.02107885      -0.20560378       1.12384785
C        1.46959868      -0.35567660       0.63772137
C        1.52593272       0.38919811      -0.69884896
O        1.43945438       1.68057010      -0.67959936
H       -1.73234257      -1.67794826      -0.56004021
H       -2.76232220      -0.49621772       0.25704043
H       -2.38854383      -0.28219158      -1.45884512
H        0.24128117      -0.08433955      -1.04553443
H        0.21421019       1.87669920      -0.39924687
H       -0.07416073       0.58282807       1.87156124
H       -0.35251725      -1.13259307       1.56079943
H        1.70817012      -1.40741423       0.45880931
H        2.20904650       0.04720264       1.33030461
H        2.17960914      -0.03180397      -1.47447434
17
Frame=4 idx=007097 GeodesicLength=0.3888019570840873 rxn_smarts="[C:1]([C@@:2]([O:3][H:12])([C:4]([C:5]([C:6](=[O:7])[H:17])([H:15])[H:16])([H:13])[H:14])[H:11])([H:8])([H:9])[H:10]>>[C:1]([C:2](=[O:3])[C:4]([C:5]([C:6]([O:7][H:12])([H:11])[H:17])([H:15])[H:16])([H:13])[H:14])([H:8])([H:9])[H:10]"
C       -2.00218192      -0.62713825      -0.49188721
C       -0.80491454       0.20882201      -0.12673238
O       -0.91973651       1.48958690      -0.33051795
C        0.01717442      -0.20159416       1.11167195
C        1.46635859      -0.36048138       0.63015927
C        1.54858534       0.40253261      -0.69416313
O        1.45558091       1.69438152      -0.65536602
H       -1.75165576      -1.68771255      -0.53733168
H       -2.76798097      -0.49317487       0.27735006
H       -2.41408649      -0.30143950      -1.44568461
H        0.24827628      -0.08566083      -1.06772997
H        0.21599892       1.88451262      -0.39999839
H       -0.07024164       0.59635600       1.85037213
H       -0.35378663      -1.12291804       1.56240520
H        1.68964299      -1.41241419       0.43161068
H        2.20697094       0.01598253       1.33612104
H        2.23599606       0.00035957      -1.45027898
17
Frame=5 idx=007097 GeodesicLength=0.48560641276400296 rxn_smarts="[C:1]([C@@:2]([O:3][H:12])([C:4]([C:5]([C:6](=[O:7])[H:17])([H:15])[H:16])([H:13])[H:14])[H:11])([H:8])([H:9])[H:10]>>[C:1]([C:2](=[O:3])[C:4]([C:5]([C:6]([O:7][H:12])([H:11])[H:17])([H:15])[H:16])([H:13])[H:14])([H:8])([H:9])[H:10]"
C       -2.01758752      -0.63485349      -0.47889893
C       -0.81141616       0.19949502      -0.14079568
O       -0.92611511       1.47972509      -0.35564679
C        0.01338189      -0.19805278       1.09896647
C        1.46331816      -0.36495394       0.62225341
C        1.57164334       0.41597161      -0.68910043
O        1.47117505       1.70791523      -0.63108128
H       -1.77176399      -1.69709946      -0.51397257
H       -2.77348373      -0.48905412       0.29801951
H       -2.44007691      -0.32031816      -1.43182415
H        0.25544946      -0.08751916      -1.09040691
H        0.21766712       1.89199769      -0.40130963
H       -0.06663601       0.60904636       1.82869236
H       -0.35454291      -1.11376949       1.56321263
H        1.67205896      -1.41628023       0.40381219
H        2.20416385      -0.01502905       1.34140748
H        2.29276451       0.03277887      -1.42332768
17
Frame=6 idx=007097 GeodesicLength=0.5822672521746193 rxn_smarts="[C:1]([C@@:2]([O:3][H:12])([C:4]([C:5]([C:6](=[O:7])[H:17])([H:15])[H:16])([H:13])[H:14])[H:11])([H:8])([H:9])[H:10]>>[C:1]([C:2](=[O:3])[C:4]([C:5]([C:6]([O:7][H:12])([H:11])[H:17])([H:15])[H:16])([H:13])[H:14])([H:8])([H:9])[H:10]"
C       -2.03331467      -0.64217712      -0.46549439
C       -0.81796135       0.18953792      -0.15525158
O       -0.93207664       1.46915983      -0.38141007
C        0.00970515      -0.19499174       1.08570064
C        1.46050498      -0.36909503       0.61398295
C        1.59512421       0.42953093      -0.68364150
O        1.48621407       1.72119724      -0.60672883
H       -1.79268600      -1.70609036      -0.48990815
H       -2.77880671      -0.48381021       0.31905293
H       -2.46652394      -0.33880527      -1.41723675
H        0.26280447      -0.08995587      -1.11360588
H        0.21921249       1.89914069      -0.40319707
H       -0.06336564       0.62089577       1.80651389
H       -0.35478567      -1.10516055       1.56319385
H        1.65550772      -1.41902542       0.37538648
H        2.20065648      -0.04582972       1.34613151
H        2.34979105       0.06547889      -1.39348801
17
Frame=7 idx=007097 GeodesicLength=0.6787908239747835 rxn_smarts="[C:1]([C@@:2]([O:3][H:12])([C:4]([C:5]([C:6](=[O:7])[H:17])([H:15])[H:16])([H:13])[H:14])[H:11])([H:8])([H:9])[H:10]>>[C:1]([C:2](=[O:3])[C:4]([C:5]([C:6]([O:7][H:12])([H:11])[H:17])([H:15])[H:16])([H:13])[H:14])([H:8])([H:9])[H:10]"
C       -2.04934530      -0.64908662      -0.45166784
C       -0.82455286       0.17891427      -0.17011045
O       -0.93762286       1.45784451      -0.40783631
C        0.00615175      -0.19242591       1.07185825
C        1.45793729      -0.37290391       0.60533723
C        1.61904522       0.44323539      -0.67775228
O        1.50067781       1.73425018      -0.58231022
H       -1.81441709      -1.71464537      -0.46510749
H       -2.78390135      -0.47740895       0.34043148
H       -2.49342255      -0.35686958      -1.40190187
H        0.27034244      -0.09301678      -1.13734190
H        0.22063278       1.90592608      -0.40567711
H       -0.06044365       0.63190290       1.78383420
H       -0.35450919      -1.09711275       1.56233822
H        1.64005022      -1.42065875       0.34633188
H        2.19648191      -0.07641470       1.35026128
H        2.40689543       0.09847003      -1.36068706
17
Frame=8 idx=007097 GeodesicLength=0.7751759291075134 rxn_smarts="[C:1]([C@@:2]([O:3][H:12])([C:4]([C:5]([C:6](=[O:7])[H:17])([H:15])[H:16])([H:13])[H:14])[H:11])([H:8])([H:9])[H:10]>>[C:1]([C:2](=[O:3])[C:4]([C:5]([C:6]([O:7][H:12])([H:11])[H:17])([H:15])[H:16])([H:13])[H:14])([H:8])([H:9])[H:10]"
C       -2.06566108      -0.65555942      -0.43740589
C       -0.83118966       0.16758274      -0.18539059
O       -0.94274591       1.44572836      -0.43496986
C        0.00273222      -0.19036747       1.05741557
C        1.45563225      -0.37638028       0.59630289
C        1.64341550       0.45711985      -0.67138798
O        1.51453673       1.74709631      -0.55781394
H       -1.83695220      -1.72273520      -0.43951487
H       -2.78871450      -0.46979948       0.36213787
H       -2.52077317      -0.37448255      -1.38579005
H        0.27807428      -0.09675506      -1.16165063
H        0.22192182       1.91233632      -0.40877140
H       -0.05787469       0.64206040       1.76064097
H       -0.35370681      -1.08963584       1.56062753
H        1.62574051      -1.42117643       0.31662335
H        2.19167163      -0.10680841       1.35377071
H        2.46389309       0.13177615      -1.32482368
17
Frame=9 idx=007097 GeodesicLength=0.8714542116892765 rxn_smarts="[C:1]([C@@:2]([O:3][H:12])([C:4]([C:5]([C:6](=[O:7])[H:17])([H:15])[H:16])([H:13])[H:14])[H:11])([H:8])([H:9])[H:10]>>[C:1]([C:2](=[O:3])[C:4]([C:5]([C:6]([O:7][H:12])([H:11])[H:17])([H:15])[H:16])([H:13])[H:14])([H:8])([H:9])[H:10]"
C       -2.08220791      -0.66156165      -0.42271335
C       -0.83789069       0.15551266      -0.20106732
O       -0.94745436       1.43275607      -0.46281756
C       -0.00054867      -0.18883097       1.04238371
C        1.45359556      -0.37952600       0.58688175
C        1.66824642       0.47124145      -0.66448009
O        1.52777300       1.75976353      -0.53326819
H       -1.86022706      -1.73027650      -0.41312693
H       -2.79314921      -0.46098207       0.38410417
H       -2.54853402      -0.39161133      -1.36889172
H        0.28597139      -0.10122300      -1.18651261
H        0.22306316       1.91836646      -0.41248652
H       -0.05565686       0.65138154       1.73694418
H       -0.35237712      -1.08275845       1.55808511
H        1.61257101      -1.42057655       0.28627579
H        2.18625783      -0.13702602       1.35664477
H        2.52056754       0.16535082      -1.28595519
17
Frame=10 idx=007097 GeodesicLength=0.9675932373166105 rxn_smarts="[C:1]([C@@:2]([O:3][H:12])([C:4]([C:5]([C:6](=[O:7])[H:17])([H:15])[H:16])([H:13])[H:14])[H:11])([H:8])([H:9])[H:10]>>[C:1]([C:2](=[O:3])[C:4]([C:5]([C:6]([O:7][H:12])([H:11])[H:17])([H:15])[H:16])([H:13])[H:14])([H:8])([H:9])[H:10]"
C       -2.09898147      -0.66707002      -0.40757293
C       -0.84464223       0.14264910      -0.21717465
O       -0.95172681       1.41886751      -0.49143745
C       -0.00367442      -0.18783584       1.02672300
C        1.45185868      -0.38233696       0.57705497
C        1.69353993       0.48561511      -0.65697988
O        1.54033750       1.77227246      -0.50862977
H       -1.88427320      -1.73725293      -0.38585885
H       -2.79718002      -0.45086616       0.40633336
H       -2.57670748      -0.40820542      -1.35117171
H        0.29406720      -0.10648372      -1.21198965
H        0.22405325       1.92398449      -0.41685599
H       -0.05381045       0.65984618       1.71272490
H       -0.35050993      -1.07648971       1.55467245
H        1.60065832      -1.41885975       0.25525332
H        2.18028188      -0.16707915       1.35883218
H        2.57670925       0.19924481      -1.24392330
17
Frame=11 idx=007097 GeodesicLength=1.063600822508678 rxn_smarts="[C:1]([C@@:2]([O:3][H:12])([C:4]([C:5]([C:6](=[O:7])[H:17])([H:15])[H:16])([H:13])[H:14])[H:11])([H:8])([H:9])[H:10]>>[C:1]([C:2](=[O:3])[C:4]([C:5]([C:6]([O:7][H:12])([H:11])[H:17])([H:15])[H:16])([H:13])[H:14])([H:8])([H:9])[H:10]"
C       -2.11594583      -0.67204683      -0.39198196
C       -0.85144782       0.12894554      -0.23370656
O       -0.95555278       1.40399566      -0.52085884
C       -0.00663504      -0.18740339       1.01042739
C        1.45044262      -0.38481268       0.56681794
C        1.71930005       0.50027841      -0.64881443
O        1.55219274       1.78464894      -0.48388674
H       -1.90906795      -1.74359807      -0.35766562
H       -2.80073914      -0.43939744       0.42877882
H       -2.60525700      -0.42422142      -1.33261662
H        0.30235570      -0.11261327      -1.23809223
H        0.22488269       1.92916535      -0.42189941
H       -0.05234308       0.66745004       1.68798396
H       -0.34810007      -1.07085392       1.55038707
H        1.59005237      -1.41602390       0.22355324
H        2.17378112      -0.19698341       1.36029708
H        2.63208140       0.23347040      -1.19872310
17
Frame=12 idx=007097 GeodesicLength=1.1594737030306572 rxn_smarts="[C:1]([C@@:2]([O:3][H:12])([C:4]([C:5]([C:6](=[O:7])[H:17])([H:15])[H:16])([H:13])[H:14])[H:11])([H:8])([H:9])[H:10]>>[C:1]([C:2](=[O:3])[C:4]([C:5]([C:6]([O:7][H:12])([H:11])[H:17])([H:15])[H:16])([H:13])[H:14])([H:8])([H:9])[H:10]"
C       -2.13306606      -0.67645316      -0.37593153
C       -0.85830928       0.11435361      -0.25066035
O       -0.95891622       1.38807162      -0.55111755
C       -0.00941648      -0.18755309       0.99348446
C        1.44936111      -0.38694898       0.55616320
C        1.74552001       0.51527680      -0.63990113
O        1.56328689       1.79691261      -0.45902116
H       -1.93458723      -1.74925245      -0.32849038
H       -2.80375189      -0.42652132       0.45139128
H       -2.63415663      -0.43960336      -1.31319811
H        0.31084088      -0.11968731      -1.26484773
H        0.22553673       1.93388341      -0.42764670
H       -0.05125814       0.67418123       1.66271816
H       -0.34513859      -1.06586801       1.54521877
H        1.58080201      -1.41205117       0.19115269
H        2.16680136      -0.22676820       1.36099637
H        2.68645155       0.26802778      -1.15031029
17
Frame=13 idx=007097 GeodesicLength=1.2552656872361092 rxn_smarts="[C:1]([C@@:2]([O:3][H:12])([C:4]([C:5]([C:6](=[O:7])[H:17])([H:15])[H:16])([H:13])[H:14])[H:11])([H:8])([H:9])[H:10]>>[C:1]([C:2](=[O:3])[C:4]([C:5]([C:6]([O:7][H:12])([H:11])[H:17])([H:15])[H:16])([H:13])[H:14])([H:8])([H:9])[H:10]"
C       -2.15027633      -0.68024635      -0.35942810
C       -0.86525330       0.09883537      -0.26799484
O       -0.96182468       1.37102283      -0.58221041
C       -0.01201409      -0.18830500       0.97590824
C        1.44862303      -0.38874297       0.54509164
C        1.77218971       0.53067468      -0.63014407
O        1.57358035       1.80910996      -0.43405128
H       -1.96075661      -1.75412148      -0.29833603
H       -2.80611274      -0.41223593       0.47410393
H       -2.66334902      -0.45427857      -1.29290319
H        0.31946960      -0.12779002      -1.29224774
H        0.22599131       1.93812858      -0.43411950
H       -0.05055894       0.68005077       1.63694373
H       -0.34162692      -1.06156571       1.53919017
H        1.57290618      -1.40692892       0.15805602
H        2.15937848      -0.25645293       1.36089497
H        2.73963398       0.30284570      -1.09875353
17
Frame=14 idx=007097 GeodesicLength=1.3509292216755289 rxn_smarts="[C:1]([C@@:2]([O:3][H:12])([C:4]([C:5]([C:6](=[O:7])[H:17])([H:15])[H:16])([H:13])[H:14])[H:11])([H:8])([H:9])[H:10]>>[C:1]([C:2](=[O:3])[C:4]([C:5]([C:6]([O:7][H:12])([H:11])[H:17])([H:15])[H:16])([H:13])[H:14])([H:8])([H:9])[H:10]"
C       -2.16756476      -0.68337987      -0.34245558
C       -0.87226203       0.08232272      -0.28572648
O       -0.96424056       1.35276437      -0.61419354
C       -0.01440196      -0.18969200       0.95766786
C        1.44825710      -0.39018884       0.53358442
C        1.79928957       0.54649566      -0.61946027
O        1.58299401       1.82124283      -0.40892770
H       -1.98760337      -1.75813889      -0.26708914
H       -2.80777379      -0.39641422       0.49688431
H       -2.69282141      -0.46819457      -1.27170347
H        0.32827728      -0.13702174      -1.32034715
H        0.22623844       1.94184854      -0.44135902
H       -0.05025210       0.68501832       1.61064485
H       -0.33754242      -1.05797026       1.53226407
H        1.56646970      -1.40062882       0.12422479
H        2.15156698      -0.28607089       1.35991566
H        2.79136932       0.33800765      -1.04392360
17
Frame=15 idx=007097 GeodesicLength=1.4464939399673915 rxn_smarts="[C:1]([C@@:2]([O:3][H:12])([C:4]([C:5]([C:6](=[O:7])[H:17])([H:15])[H:16])([H:13])[H:14])[H:11])([H:8])([H:9])[H:10]>>[C:1]([C:2](=[O:3])[C:4]([C:5]([C:6]([O:7][H:12])([H:11])[H:17])([H:15])[H:16])([H:13])[H:14])([H:8])([H:9])[H:10]"
C       -2.18488368      -0.68580257      -0.32501201
C       -0.87934568       0.06476562      -0.30382689
O       -0.96615142       1.33321144      -0.64708325
C       -0.01656601      -0.19174196       0.93876356
C        1.44828005      -0.39128293       0.52163604
C        1.82680035       0.56278662      -0.60774568
O        1.59147184       1.83333730      -0.38363893
H       -2.01509020      -1.76121349      -0.23470812
H       -2.80865613      -0.37900824       0.51967080
H       -2.72252801      -0.48127331      -1.24958053
H        0.33723559      -0.14749222      -1.34916231
H        0.22626406       1.94501002      -0.44940163
H       -0.05034116       0.68907593       1.58383031
H       -0.33287737      -1.05511363       1.52444238
H        1.56152624      -1.39313370       0.08964572
H        2.14341879      -0.31565278       1.35800090
H        2.84144273       0.37352790      -0.98583035
17
Frame=16 idx=007097 GeodesicLength=1.5419781845712088 rxn_smarts="[C:1]([C@@:2]([O:3][H:12])([C:4]([C:5]([C:6](=[O:7])[H:17])([H:15])[H:16])([H:13])[H:14])[H:11])([H:8])([H:9])[H:10]>>[C:1]([C:2](=[O:3])[C:4]([C:5]([C:6]([O:7][H:12])([H:11])[H:17])([H:15])[H:16])([H:13])[H:14])([H:8])([H:9])[H:10]"
C       -2.20219042      -0.68745832      -0.30708744
C       -0.88651528       0.04610527      -0.32227037
O       -0.96754387       1.31226909      -0.68089781
C       -0.01848711      -0.19448903       0.91918773
C        1.44870727      -0.39202241       0.50922579
C        1.85468826       0.57959785      -0.59490201
O        1.59893675       1.84541428      -0.35817407
H       -2.04319266      -1.76324967      -0.20112429
H       -2.80867087      -0.35994098       0.54240372
H       -2.75242574      -0.49343891      -1.22650930
H        0.34631896      -0.15931558      -1.37872509
H        0.22605018       1.94757211      -0.45829643
H       -0.05082127       0.69220120       1.55650030
H       -0.32761274      -1.05303284       1.51571818
H        1.55810727      -1.38440376       0.05428203
H        2.13498796      -0.34524303       1.35506970
H        2.88966331       0.40943473      -0.92440065
