12
Frame=0 idx=002660 GeodesicLength=0.0 rxn_smarts="[C:1](/[N:2]=[C:3](\[N:4]([H:10])[H:11])[C:5](=[O:6])[H:12])([H:7])([H:8])[H:9]>>[C-:1]([N+:2]1=[C:3]([N:4]([H:10])[H:11])[C@:5]1([O:6][H:9])[H:12])([H:7])[H:8]"
C        1.36990230       0.40039063       0.63410003
N        0.45240308       0.62151328      -0.43619252
C       -0.48271809      -0.19296793      -0.80705855
N       -0.53694140      -1.50894528      -0.92868080
C       -0.98412798       0.96700924      -0.02908683
O       -1.13512775       0.79296457       1.27054743
H        1.80037438      -0.60085939       0.59993279
H        2.13310633       1.17258974       0.67431663
H       -0.08112148       0.55405840       1.49845430
H       -1.40857441      -1.96724319      -1.11530737
H        0.29508025      -2.06827937      -0.84349673
H       -1.42225518       1.82976934      -0.51752839
12
Frame=1 idx=002660 GeodesicLength=0.10758217584094631 rxn_smarts="[C:1](/[N:2]=[C:3](\[N:4]([H:10])[H:11])[C:5](=[O:6])[H:12])([H:7])([H:8])[H:9]>>[C-:1]([N+:2]1=[C:3]([N:4]([H:10])[H:11])[C@:5]1([O:6][H:9])[H:12])([H:7])[H:8]"
C        1.37694879       0.39889780       0.62890315
N        0.46419608       0.62605420      -0.44052862
C       -0.47069733      -0.18194635      -0.82628307
N       -0.53664277      -1.50079281      -0.94157111
C       -0.99558169       0.95878233      -0.03660657
O       -1.15611524       0.76806195       1.25839368
H        1.82443577      -0.59413951       0.57773815
H        2.12863915       1.18084822       0.68967340
H       -0.07612018       0.53513792       1.50438987
H       -1.41856018      -1.95133719      -1.09731917
H        0.27760638      -2.07463390      -0.80082719
H       -1.41810879       1.83506733      -0.51596251
12
Frame=2 idx=002660 GeodesicLength=0.21517504029943568 rxn_smarts="[C:1](/[N:2]=[C:3](\[N:4]([H:10])[H:11])[C:5](=[O:6])[H:12])([H:7])([H:8])[H:9]>>[C-:1]([N+:2]1=[C:3]([N:4]([H:10])[H:11])[C@:5]1([O:6][H:9])[H:12])([H:7])[H:8]"
C        1.38440732       0.39755545       0.62342411
N        0.47572757       0.62988607      -0.44472961
C       -0.45920711      -0.17195669      -0.84354621
N       -0.53625519      -1.49373158      -0.95237462
C       -1.00734827       0.95003268      -0.04394598
O       -1.17688238       0.74392259       1.24638129
H        1.84864926      -0.58680201       0.55607629
H        2.12440020       1.18870362       0.70373694
H       -0.06979436       0.51742747       1.51089269
H       -1.42703033      -1.93471236      -1.08510234
H        0.25778351      -2.07956154      -0.75665735
H       -1.41445022       1.83923631      -0.51415520
12
Frame=3 idx=002660 GeodesicLength=0.3227603277055476 rxn_smarts="[C:1](/[N:2]=[C:3](\[N:4]([H:10])[H:11])[C:5](=[O:6])[H:12])([H:7])([H:8])[H:9]>>[C-:1]([N+:2]1=[C:3]([N:4]([H:10])[H:11])[C@:5]1([O:6][H:9])[H:12])([H:7])[H:8]"
C        1.39226299       0.39636200       0.61771759
N        0.48701953       0.63306485      -0.44877956
C       -0.44828041      -0.16293568      -0.85891376
N       -0.53573840      -1.48771399      -0.96088644
C       -1.01942145       0.94086220      -0.05108911
O       -1.19751941       0.72064285       1.23456782
H        1.87290088      -0.57893999       0.53500255
H        2.12046892       1.19615884       0.71655182
H       -0.06214185       0.50100248       1.51804945
H       -1.43424546      -1.91786413      -1.07846790
H        0.23590992      -2.08304856      -0.71160077
H       -1.41121528       1.84240912      -0.51215169
12
Frame=4 idx=002660 GeodesicLength=0.4303475367542732 rxn_smarts="[C:1](/[N:2]=[C:3](\[N:4]([H:10])[H:11])[C:5](=[O:6])[H:12])([H:7])([H:8])[H:9]>>[C-:1]([N+:2]1=[C:3]([N:4]([H:10])[H:11])[C@:5]1([O:6][H:9])[H:12])([H:7])[H:8]"
C        1.40046179       0.39525556       0.61184350
N        0.49812991       0.63570010      -0.45269194
C       -0.43788005      -0.15471003      -0.87263494
N       -0.53498737      -1.48255715      -0.96742870
C       -1.03178944       0.93138153      -0.05811882
O       -1.21822252       0.69812342       1.22285682
H        1.89705980      -0.57069349       0.51450633
H        2.11686953       1.20314986       0.72831678
H       -0.05326721       0.48574986       1.52585507
H       -1.44039830      -1.90117299      -1.07621072
H        0.21232103      -2.08501406      -0.66629988
H       -1.40829718       1.84478740      -0.50999350
12
Frame=5 idx=002660 GeodesicLength=0.5379536928013557 rxn_smarts="[C:1](/[N:2]=[C:3](\[N:4]([H:10])[H:11])[C:5](=[O:6])[H:12])([H:7])([H:8])[H:9]>>[C-:1]([N+:2]1=[C:3]([N:4]([H:10])[H:11])[C@:5]1([O:6][H:9])[H:12])([H:7])[H:8]"
C        1.40892410       0.39414954       0.60586047
N        0.50911184       0.63787808      -0.45648199
C       -0.42796271      -0.14710792      -0.88495993
N       -0.53393376      -1.47807787      -0.97237141
C       -1.04444092       0.92170286      -0.06515188
O       -1.23921874       0.67625922       1.21108710
H        1.92099265      -0.56221422       0.49457770
H        2.11357712       1.20958529       0.73925278
H       -0.04330531       0.47150901       1.53428020
H       -1.44560316      -1.88488865      -1.07684663
H        0.18742523      -2.08537144      -0.62151372
H       -1.40556635       1.84657610      -0.50773267
12
Frame=6 idx=002660 GeodesicLength=0.6455694658369193 rxn_smarts="[C:1](/[N:2]=[C:3](\[N:4]([H:10])[H:11])[C:5](=[O:6])[H:12])([H:7])([H:8])[H:9]>>[C-:1]([N+:2]1=[C:3]([N:4]([H:10])[H:11])[C@:5]1([O:6][H:9])[H:12])([H:7])[H:8]"
C        1.41758880       0.39297510       0.59982417
N        0.52000372       0.63965980      -0.46015392
C       -0.41850402      -0.13999792      -0.89607084
N       -0.53258319      -1.47414356      -0.97597685
C       -1.05737306       0.91192957      -0.07228510
O       -1.26071250       0.65498078       1.19911825
H        1.94460312      -0.55363123       0.47522607
H        2.11057963       1.21539665       0.74954027
H       -0.03235461       0.45819097       1.54330943
H       -1.44996716      -1.86916782      -1.07917532
H        0.16165198      -2.08413377      -0.57793657
H       -1.40293271       1.84794143      -0.50541960
12
Frame=7 idx=002660 GeodesicLength=0.7532079857201595 rxn_smarts="[C:1](/[N:2]=[C:3](\[N:4]([H:10])[H:11])[C:5](=[O:6])[H:12])([H:7])([H:8])[H:9]>>[C-:1]([N+:2]1=[C:3]([N:4]([H:10])[H:11])[C@:5]1([O:6][H:9])[H:12])([H:7])[H:8]"
C        1.42640031       0.39168098       0.59377454
N        0.53083124       0.64107889      -0.46371156
C       -0.40948949      -0.13328087      -0.90610239
N       -0.53098211      -1.47064617      -0.97843270
C       -1.07058570       0.90215180      -0.07960185
O       -1.28289796       0.63424849       1.18681499
H        1.96782917      -0.54503590       0.45645148
H        2.10784638       1.22054400       0.75930984
H       -0.02047932       0.44569013       1.55294588
H       -1.45360408      -1.85408223      -1.08225372
H        0.13543484      -2.08137226      -0.53610771
H       -1.40030328       1.84902313      -0.50308680
12
Frame=8 idx=002660 GeodesicLength=0.8609022778191502 rxn_smarts="[C:1](/[N:2]=[C:3](\[N:4]([H:10])[H:11])[C:5](=[O:6])[H:12])([H:7])([H:8])[H:9]>>[C-:1]([N+:2]1=[C:3]([N:4]([H:10])[H:11])[C@:5]1([O:6][H:9])[H:12])([H:7])[H:8]"
C        1.43533879       0.39024627       0.58773310
N        0.54161232       0.64216798      -0.46715902
C       -0.40091123      -0.12688267      -0.91515327
N       -0.52919437      -1.46751018      -0.97988319
C       -1.08408817       0.89243957      -0.08716021
O       -1.30594515       0.61401058       1.17406802
H        1.99067283      -0.53647668       0.43822834
H        2.10536448       1.22503971       0.76864726
H       -0.00768275       0.43391527       1.56321527
H       -1.45662944      -1.83964936      -1.08554563
H        0.10908469      -2.07723256      -0.49625550
H       -1.39762199       1.84993209      -0.50073517
12
Frame=9 idx=002660 GeodesicLength=0.9685312373595573 rxn_smarts="[C:1](/[N:2]=[C:3](\[N:4]([H:10])[H:11])[C:5](=[O:6])[H:12])([H:7])([H:8])[H:9]>>[C-:1]([N+:2]1=[C:3]([N:4]([H:10])[H:11])[C@:5]1([O:6][H:9])[H:12])([H:7])[H:8]"
C        1.44440991       0.38866511       0.58169572
N        0.55236553       0.64295996      -0.47048463
C       -0.39274020      -0.12074115      -0.92327350
N       -0.52724996      -1.46465894      -0.98044379
C       -1.09788655       0.88281649      -0.09497133
O       -1.32999027       0.59414582       1.16080805
H        2.01315332      -0.52797843       0.42051187
H        2.10316193       1.22888668       0.77756758
H        0.00605907       0.42290962       1.57411612
H       -1.45910457      -1.82582207      -1.08889877
H        0.08271811      -2.07187421      -0.45830986
H       -1.39489633       1.85069112      -0.49831746
12
Frame=10 idx=002660 GeodesicLength=1.0762136498061632 rxn_smarts="[C:1](/[N:2]=[C:3](\[N:4]([H:10])[H:11])[C:5](=[O:6])[H:12])([H:7])([H:8])[H:9]>>[C-:1]([N+:2]1=[C:3]([N:4]([H:10])[H:11])[C@:5]1([O:6][H:9])[H:12])([H:7])[H:8]"
C        1.45359595       0.38692825       0.57568218
N        0.56309480       0.64346840      -0.47369151
C       -0.38498320      -0.11480937      -0.93053117
N       -0.52522685      -1.46204655      -0.98020143
C       -1.11199244       0.87335595      -0.10310155
O       -1.35521896       0.57465231       1.14689321
H        2.03528992      -0.51955781       0.40326773
H        2.10120994       1.23212031       0.78613721
H        0.02080352       0.41251723       1.58571540
H       -1.46115012      -1.81259826      -1.09191003
H        0.05663565      -2.06544015      -0.42242790
H       -1.39205820       1.85140972      -0.49583215
12
Frame=11 idx=002660 GeodesicLength=1.1839117702573467 rxn_smarts="[C:1](/[N:2]=[C:3](\[N:4]([H:10])[H:11])[C:5](=[O:6])[H:12])([H:7])([H:8])[H:9]>>[C-:1]([N+:2]1=[C:3]([N:4]([H:10])[H:11])[C@:5]1([O:6][H:9])[H:12])([H:7])[H:8]"
C        1.46291205       0.38503908       0.56968368
N        0.57380769       0.64371731      -0.47676765
C       -0.37762173      -0.10904548      -0.93695604
N       -0.52315299      -1.45962402      -0.97922938
C       -1.12641708       0.86408181      -0.11157088
O       -1.38178913       0.55543632       1.13222017
H        2.05712610      -0.51121224       0.38643120
H        2.09952829       1.23476703       0.79435786
H        0.03663793       0.40271863       1.59805060
H       -1.46281822      -1.79992547      -1.09456216
H        0.03089471      -2.05806625      -0.38843502
H       -1.38910764       1.85211329      -0.49322238
12
Frame=12 idx=002660 GeodesicLength=1.2916337454837088 rxn_smarts="[C:1](/[N:2]=[C:3](\[N:4]([H:10])[H:11])[C:5](=[O:6])[H:12])([H:7])([H:8])[H:9]>>[C-:1]([N+:2]1=[C:3]([N:4]([H:10])[H:11])[C@:5]1([O:6][H:9])[H:12])([H:7])[H:8]"
C        1.47238245       0.38300293       0.56369183
N        0.58450842       0.64373127      -0.47969963
C       -0.37064170      -0.10341373      -0.94257101
N       -0.52104966      -1.45735436      -0.97758618
C       -1.14117909       0.85501722      -0.12040453
O       -1.40988055       0.53640353       1.11666592
H        2.07871295      -0.50293898       0.36993953
H        2.09814728       1.23685985       0.80222268
H        0.05367866       0.39349404       1.61118487
H       -1.46415178      -1.78775985      -1.09687382
H        0.00551970      -2.04987316      -0.35614395
H       -1.38604668       1.85283126      -0.49042573
12
Frame=13 idx=002660 GeodesicLength=1.3993672316703867 rxn_smarts="[C:1](/[N:2]=[C:3](\[N:4]([H:10])[H:11])[C:5](=[O:6])[H:12])([H:7])([H:8])[H:9]>>[C-:1]([N+:2]1=[C:3]([N:4]([H:10])[H:11])[C@:5]1([O:6][H:9])[H:12])([H:7])[H:8]"
C        1.48202197       0.38082397       0.55770478
N        0.59519522       0.64352955      -0.48246218
C       -0.36403020      -0.09788341      -0.94738733
N       -0.51893782      -1.45520459      -0.97531700
C       -1.15629059       0.84618583      -0.12963475
O       -1.43968999       0.51746424       1.10007023
H        2.10007578      -0.49473412       0.35373789
H        2.09709955       1.23842114       0.80972243
H        0.07206710       0.38483213       1.62518300
H       -1.46518740      -1.77606462      -1.09882435
H       -0.01945455      -2.04095757      -0.32542107
H       -1.38286908       1.85358746      -0.48737164
12
Frame=14 idx=002660 GeodesicLength=1.507136480349317 rxn_smarts="[C:1](/[N:2]=[C:3](\[N:4]([H:10])[H:11])[C:5](=[O:6])[H:12])([H:7])([H:8])[H:9]>>[C-:1]([N+:2]1=[C:3]([N:4]([H:10])[H:11])[C@:5]1([O:6][H:9])[H:12])([H:7])[H:8]"
C        1.49186526       0.37850470       0.55171200
N        0.60586590       0.64313630      -0.48502983
C       -0.35777338      -0.09242652      -0.95140713
N       -0.51682057      -1.45314843      -0.97245145
C       -1.17177687       0.83760571      -0.13929218
O       -1.47144625       0.49851280       1.08225618
H        2.12126798      -0.48659612       0.33775529
H        2.09643447       1.23947813       0.81683190
H        0.09197388       0.37673315       1.64014014
H       -1.46594031      -1.76480091      -1.10048479
H       -0.04406481      -2.03139939      -0.29605443
H       -1.37958530       1.85440056      -0.48397569
12
Frame=15 idx=002660 GeodesicLength=1.6149425034172369 rxn_smarts="[C:1](/[N:2]=[C:3](\[N:4]([H:10])[H:11])[C:5](=[O:6])[H:12])([H:7])([H:8])[H:9]>>[C-:1]([N+:2]1=[C:3]([N:4]([H:10])[H:11])[C@:5]1([O:6][H:9])[H:12])([H:7])[H:8]"
C        1.50194009       0.37604628       0.54571098
N        0.61651174       0.64257374      -0.48736141
C       -0.35185870      -0.08701796      -0.95462032
N       -0.51470148      -1.45116227      -0.96900904
C       -1.18765871       0.82929488      -0.14941446
O       -1.50540537       0.47943870       1.06299666
H        2.14231713      -0.47852584       0.32192903
H        2.09621383       1.24004669       0.82352018
H        0.11360269       0.36921971       1.65615601
H       -1.46642065      -1.75393819      -1.10188804
H       -0.06833847      -2.02125949      -0.26788307
H       -1.37620210       1.85528377      -0.48013653
12
Frame=16 idx=002660 GeodesicLength=1.722796837109939 rxn_smarts="[C:1](/[N:2]=[C:3](\[N:4]([H:10])[H:11])[C:5](=[O:6])[H:12])([H:7])([H:8])[H:9]>>[C-:1]([N+:2]1=[C:3]([N:4]([H:10])[H:11])[C@:5]1([O:6][H:9])[H:12])([H:7])[H:8]"
C        1.51228080       0.37344692       0.53970032
N        0.62711984       0.64186580      -0.48940558
C       -0.34627525      -0.08163431      -0.95700523
N       -0.51257955      -1.44922532      -0.96499752
C       -1.20396293       0.82127105      -0.16004448
O       -1.54186608       0.46012076       1.04201343
H        2.16325216      -0.47052965       0.30619351
H        2.09651600       1.24013949       0.82974562
H        0.13719341       0.36233345       1.67335229
H       -1.46663202      -1.74344880      -1.10307256
H       -0.09231644      -2.01058755      -0.24074850
H       -1.37272994       1.85624815      -0.47573131
