16
Frame=0 idx=000748 GeodesicLength=0.0 rxn_smarts="[C:1]([C@@:2]([O:3][H:11])([C:4]1([H:12])[C:5]([H:13])([H:14])[C:6]1([H:15])[H:16])[H:10])([H:7])([H:8])[H:9]>>[C:1](/[C:2](=[C:4](/[C:5]([C:6]([O:3][H:11])([H:15])[H:16])([H:13])[H:14])[H:12])[H:10])([H:7])([H:8])[H:9]"
C       -2.15173085       0.10372673       0.22099123
C       -0.75289857      -0.24657244      -0.23610310
O       -0.06283394       1.05150450      -0.80269169
C        0.16652596      -0.71032646       0.76297388
C        1.59412221      -0.81624625       0.28205969
C        1.73905748       0.57107220      -0.16814095
H       -2.11193025       0.75789162       1.09282495
H       -2.69526574      -0.80270131       0.49065748
H       -2.71057237       0.61358163      -0.56482552
H       -0.77858886      -0.87199739      -1.14115912
H       -0.19620852       1.13955239      -1.76303222
H        0.00333786      -0.38664777       1.78614649
H        2.26361179      -1.03670784       1.11465723
H        1.75550005      -1.54894280      -0.51251249
H        2.09244736       0.85284384      -1.15533639
H        1.84542632       1.32996929       0.59349060
16
Frame=1 idx=000748 GeodesicLength=0.08342737505230136 rxn_smarts="[C:1]([C@@:2]([O:3][H:11])([C:4]1([H:12])[C:5]([H:13])([H:14])[C:6]1([H:15])[H:16])[H:10])([H:7])([H:8])[H:9]>>[C:1](/[C:2](=[C:4](/[C:5]([C:6]([O:3][H:11])([H:15])[H:16])([H:13])[H:14])[H:12])[H:10])([H:7])([H:8])[H:9]"
C       -2.16273793       0.09135939       0.22561558
C       -0.76159017      -0.24127797      -0.23519126
O       -0.05957256       1.07699477      -0.80935028
C        0.16946762      -0.68351051       0.76118675
C        1.59110624      -0.81986012       0.27694535
C        1.73565767       0.57340411      -0.16314747
H       -2.13040791       0.74557182       1.09777122
H       -2.69590400      -0.82119450       0.49580254
H       -2.72863083       0.59485904      -0.55935410
H       -0.78161651      -0.87417338      -1.13489482
H       -0.15938549       1.13911934      -1.77466420
H        0.01115208      -0.35291964       1.78287077
H        2.26261617      -1.05146034       1.10447517
H        1.73344666      -1.54839418      -0.52457547
H        2.11173244       0.84536339      -1.14493452
H        1.86466651       1.32611879       0.60144473
16
Frame=2 idx=000748 GeodesicLength=0.16678313571634212 rxn_smarts="[C:1]([C@@:2]([O:3][H:11])([C:4]1([H:12])[C:5]([H:13])([H:14])[C:6]1([H:15])[H:16])[H:10])([H:7])([H:8])[H:9]>>[C:1](/[C:2](=[C:4](/[C:5]([C:6]([O:3][H:11])([H:15])[H:16])([H:13])[H:14])[H:12])[H:10])([H:7])([H:8])[H:9]"
C       -2.17345001       0.07890790       0.23058190
C       -0.77046210      -0.23614762      -0.23467687
O       -0.05582136       1.10251686      -0.81710840
C        0.17220348      -0.65689488       0.75845056
C        1.58768534      -0.82313464       0.27188408
C        1.73229633       0.57595714      -0.15833862
H       -2.14798286       0.73322804       1.10293428
H       -2.69608368      -0.83959650       0.50165494
H       -2.74671191       0.57595026      -0.55325586
H       -0.78509509      -0.87652810      -1.12889100
H       -0.12207653       1.13896642      -1.78553832
H        0.01846534      -0.31988662       1.77870326
H        2.26053347      -1.06560424       1.09480346
H        1.71173810      -1.54739778      -0.53606785
H        2.13129357       0.83756390      -1.13413928
H        1.88346792       1.32209985       0.60900370
16
Frame=3 idx=000748 GeodesicLength=0.25008418334152566 rxn_smarts="[C:1]([C@@:2]([O:3][H:11])([C:4]1([H:12])[C:5]([H:13])([H:14])[C:6]1([H:15])[H:16])[H:10])([H:7])([H:8])[H:9]>>[C:1](/[C:2](=[C:4](/[C:5]([C:6]([O:3][H:11])([H:15])[H:16])([H:13])[H:14])[H:12])[H:10])([H:7])([H:8])[H:9]"
C       -2.18388076       0.06635102       0.23586667
C       -0.77950794      -0.23116691      -0.23453878
O       -0.05152452       1.12811479      -0.82592345
C        0.17472792      -0.63043756       0.75480384
C        1.58386819      -0.82608745       0.26688436
C        1.72900520       0.57870709      -0.15373981
H       -2.16472694       0.72083916       1.10830421
H       -2.69580364      -0.85794398       0.50815422
H       -2.76481265       0.55682241      -0.54656037
H       -0.78897319      -0.87904598      -1.12312907
H       -0.08440064       1.13920337      -1.79563933
H        0.02529215      -0.28746078       1.77368367
H        2.25740166      -1.07917458       1.08564349
H        1.69035550      -1.54600140      -0.54701269
H        2.15109275       0.82940002      -1.12296671
H        1.90188692       1.31788077       0.61616973
16
Frame=4 idx=000748 GeodesicLength=0.33332968957492887 rxn_smarts="[C:1]([C@@:2]([O:3][H:11])([C:4]1([H:12])[C:5]([H:13])([H:14])[C:6]1([H:15])[H:16])[H:10])([H:7])([H:8])[H:9]>>[C:1](/[C:2](=[C:4](/[C:5]([C:6]([O:3][H:11])([H:15])[H:16])([H:13])[H:14])[H:12])[H:10])([H:7])([H:8])[H:9]"
C       -2.19403941       0.05366846       0.24144900
C       -0.78872066      -0.22632137      -0.23475958
O       -0.04662731       1.15383236      -0.83574329
C        0.17703543      -0.60410122       0.75027866
C        1.57966076      -0.82873574       0.26195640
C        1.72581233       0.58162911      -0.14937650
H       -2.18070285       0.70838321       1.11387458
H       -2.69505573      -0.87627058       0.51524767
H       -2.78292567       0.53744533      -0.53929452
H       -0.79320416      -0.88171246      -1.11759313
H       -0.04645850       1.13993625      -1.80496352
H        0.03164521      -0.25555976       1.76784437
H        2.25325131      -1.09220104       1.07699895
H        1.66927968      -1.54425256      -0.55742664
H        2.17108421       0.82082566      -1.11143835
H        1.91996535       1.31343436       0.62294590
16
Frame=5 idx=000748 GeodesicLength=0.41653375807080495 rxn_smarts="[C:1]([C@@:2]([O:3][H:11])([C:4]1([H:12])[C:5]([H:13])([H:14])[C:6]1([H:15])[H:16])[H:10])([H:7])([H:8])[H:9]>>[C:1](/[C:2](=[C:4](/[C:5]([C:6]([O:3][H:11])([H:15])[H:16])([H:13])[H:14])[H:12])[H:10])([H:7])([H:8])[H:9]"
C       -2.20393214       0.04083848       0.24731314
C       -0.79809559      -0.22159690      -0.23531864
O       -0.04107541       1.17972424      -0.84651865
C        0.17912117      -0.57784654       0.74490387
C        1.57506531      -0.83109714       0.25711110
C        1.72274532       0.58469955      -0.14527207
H       -2.19596591       0.69583233       1.11964424
H       -2.69383026      -0.89461131       0.52288432
H       -2.80104427       0.51778895      -0.53147695
H       -0.79774179      -0.88449870      -1.11227394
H       -0.00833349       1.14125170      -1.81352094
H        0.03753749      -0.22410767       1.76121268
H        2.24810241      -1.10471221       1.06887743
H        1.64848904      -1.54219535      -0.56731993
H        2.19122017       0.81179512      -1.09957774
H        1.93773796       1.30873546       0.62933208
16
Frame=6 idx=000748 GeodesicLength=0.49969920546116703 rxn_smarts="[C:1]([C@@:2]([O:3][H:11])([C:4]1([H:12])[C:5]([H:13])([H:14])[C:6]1([H:15])[H:16])[H:10])([H:7])([H:8])[H:9]>>[C:1](/[C:2](=[C:4](/[C:5]([C:6]([O:3][H:11])([H:15])[H:16])([H:13])[H:14])[H:12])[H:10])([H:7])([H:8])[H:9]"
C       -2.21356340       0.02784385       0.25344600
C       -0.80763017      -0.21698345      -0.23620225
O       -0.03480781       1.20583368      -0.85820286
C        0.18098146      -0.55164142       0.73870000
C        1.57008297      -0.83318591       0.25235956
C        1.71982425       0.58789711      -0.14144387
H       -2.21056184       0.68316680       1.12561022
H       -2.69211205      -0.91299362       0.53102650
H       -2.81916048       0.49782307      -0.52312181
H       -0.80254962      -0.88739011      -1.10716087
H        0.02990702       1.14323492      -1.82132870
H        0.04297884      -0.19303405       1.75380813
H        2.24197134      -1.11673269       1.06128911
H        1.62796300      -1.53986946      -0.57670937
H        2.21144820       0.80227164      -1.08740386
H        1.95522830       1.30375965       0.63533407
16
Frame=7 idx=000748 GeodesicLength=0.582831196073407 rxn_smarts="[C:1]([C@@:2]([O:3][H:11])([C:4]1([H:12])[C:5]([H:13])([H:14])[C:6]1([H:15])[H:16])[H:10])([H:7])([H:8])[H:9]>>[C:1](/[C:2](=[C:4](/[C:5]([C:6]([O:3][H:11])([H:15])[H:16])([H:13])[H:14])[H:12])[H:10])([H:7])([H:8])[H:9]"
C       -2.22293403       0.01466505       0.25983949
C       -0.81732222      -0.21246550      -0.23739495
O       -0.02776956       1.23221665      -0.87074983
C        0.18261137      -0.52544972       0.73168371
C        1.56470897      -0.83501823       0.24771269
C        1.71707223       0.59120387      -0.13790924
H       -2.22453088       0.67035952       1.13177672
H       -2.68988132      -0.93144858       0.53963838
H       -2.83726642       0.47751880      -0.51423908
H       -0.80759547      -0.89036496      -1.10224307
H        0.06821584       1.14594640      -1.82841818
H        0.04798010      -0.16227001       1.74564504
H        2.23486214      -1.12829202       1.05423992
H        1.60767767      -1.53731204      -0.58560863
H        2.23172047       0.79222059      -1.07493353
H        1.97245111       1.29849020       0.64096056
16
Frame=8 idx=000748 GeodesicLength=0.6659514980449226 rxn_smarts="[C:1]([C@@:2]([O:3][H:11])([C:4]1([H:12])[C:5]([H:13])([H:14])[C:6]1([H:15])[H:16])[H:10])([H:7])([H:8])[H:9]>>[C:1](/[C:2](=[C:4](/[C:5]([C:6]([O:3][H:11])([H:15])[H:16])([H:13])[H:14])[H:12])[H:10])([H:7])([H:8])[H:9]"
C       -2.23204527       0.00128385       0.26648828
C       -0.82717564      -0.20803733      -0.23888300
O       -0.01989024       1.25891634      -0.88413016
C        0.18400605      -0.49924227       0.72386347
C        1.55893936      -0.83660479       0.24318138
C        1.71450499       0.59459574      -0.13468010
H       -2.23790532       0.65739145       1.13814323
H       -2.68711677      -0.94999787       0.54869587
H       -2.85535815       0.45684035      -0.50482912
H       -0.81285514      -0.89340802      -1.09751258
H        0.10656183       1.14946398      -1.83481988
H        0.05254590      -0.13175629       1.73673324
H        2.22677986      -1.13940496       1.04774082
H        1.58761205      -1.53455193      -0.59403064
H        2.25198131       0.78160948      -1.06218549
H        1.98941518       1.29290227       0.64622468
16
Frame=9 idx=000748 GeodesicLength=0.749141916050073 rxn_smarts="[C:1]([C@@:2]([O:3][H:11])([C:4]1([H:12])[C:5]([H:13])([H:14])[C:6]1([H:15])[H:16])[H:10])([H:7])([H:8])[H:9]>>[C:1](/[C:2](=[C:4](/[C:5]([C:6]([O:3][H:11])([H:15])[H:16])([H:13])[H:14])[H:12])[H:10])([H:7])([H:8])[H:9]"
C       -2.24093968      -0.01237300       0.27339058
C       -0.83721860      -0.20364884      -0.24062907
O       -0.01109224       1.28611037      -0.89819603
C        0.18516512      -0.47290093       0.71528324
C        1.55273709      -0.83795266       0.23877340
C        1.71220100       0.59804141      -0.13176673
H       -2.25080772       0.64416013       1.14473738
H       -2.68379098      -0.96876514       0.55812130
H       -2.87347874       0.43569378      -0.49488873
H       -0.81826933      -0.89637881      -1.09300246
H        0.14497930       1.15374217      -1.84056830
H        0.05670752      -0.10131737       1.72708865
H        2.21766708      -1.15011464       1.04177010
H        1.56765805      -1.53165058      -0.60197113
H        2.27222124       0.77035441      -1.04924810
H        2.00626088       1.28699971       0.65110591
16
Frame=10 idx=000748 GeodesicLength=0.8323268252109391 rxn_smarts="[C:1]([C@@:2]([O:3][H:11])([C:4]1([H:12])[C:5]([H:13])([H:14])[C:6]1([H:15])[H:16])[H:10])([H:7])([H:8])[H:9]>>[C:1](/[C:2](=[C:4](/[C:5]([C:6]([O:3][H:11])([H:15])[H:16])([H:13])[H:14])[H:12])[H:10])([H:7])([H:8])[H:9]"
C       -2.24956464      -0.02626439       0.28055782
C       -0.84743423      -0.19932855      -0.24265437
O       -0.00131622       1.31371637      -0.91304621
C        0.18607732      -0.44648619       0.70588866
C        1.54611422      -0.83906970       0.23449180
C        1.71010825       0.60154387      -0.12916573
H       -2.26314708       0.63072078       1.15156024
H       -2.67987249      -0.98766746       0.56796672
H       -2.89157448       0.41411366      -0.48439289
H       -0.82387418      -0.89937870      -1.08867728
H        0.18343815       1.15887730      -1.84574344
H        0.06043861      -0.07104168       1.71668858
H        2.20754694      -1.16040916       1.03636429
H        1.54787406      -1.52858473      -0.60946749
H        2.29236949       0.75850252      -1.03604147
H        2.02281627       1.28075606       0.65567076
16
Frame=11 idx=000748 GeodesicLength=0.9154850379403536 rxn_smarts="[C:1]([C@@:2]([O:3][H:11])([C:4]1([H:12])[C:5]([H:13])([H:14])[C:6]1([H:15])[H:16])[H:10])([H:7])([H:8])[H:9]>>[C:1](/[C:2](=[C:4](/[C:5]([C:6]([O:3][H:11])([H:15])[H:16])([H:13])[H:14])[H:12])[H:10])([H:7])([H:8])[H:9]"
C       -2.25790880      -0.04040698       0.28799467
C       -0.85782769      -0.19505930      -0.24495475
O        0.00950615       1.34178448      -0.92864510
C        0.18673690      -0.41996492       0.69566986
C        1.53905217      -0.83996664       0.23034464
C        1.70823749       0.60509371      -0.12688636
H       -2.27492913       0.61704464       1.15863101
H       -2.67532374      -1.00673201       0.57821622
H       -2.90963813       0.39207324      -0.47332178
H       -0.82965943      -0.90237270      -1.08454742
H        0.22194402       1.16487549      -1.85039443
H        0.06374429      -0.04088570       1.70552277
H        2.19638814      -1.17030999       1.03154232
H        1.52823648      -1.52538377      -0.61653236
H        2.31238788       0.74603492      -1.02257837
H        2.03905341       1.27417552       0.65993907
16
Frame=12 idx=000748 GeodesicLength=0.9986053172086313 rxn_smarts="[C:1]([C@@:2]([O:3][H:11])([C:4]1([H:12])[C:5]([H:13])([H:14])[C:6]1([H:15])[H:16])[H:10])([H:7])([H:8])[H:9]>>[C:1](/[C:2](=[C:4](/[C:5]([C:6]([O:3][H:11])([H:15])[H:16])([H:13])[H:14])[H:12])[H:10])([H:7])([H:8])[H:9]"
C       -2.26596290      -0.05481674       0.29571204
C       -0.86841071      -0.19082926      -0.24752681
O        0.02145460       1.37036177      -0.94496222
C        0.18713601      -0.39331157       0.68460950
C        1.53153074      -0.84064596       0.22633687
C        1.70659077       0.60867894      -0.12492600
H       -2.28615513       0.60310405       1.16597254
H       -2.67010546      -1.02597878       0.58886328
H       -2.92766508       0.36954268      -0.46164550
H       -0.83562366      -0.90533508      -1.08062061
H        0.26053820       1.17173472      -1.85459478
H        0.06662259      -0.01081696       1.69357773
H        2.18415687      -1.17982200       1.02731270
H        1.50871797      -1.52206048      -0.62318388
H        2.33223343       0.73293909      -1.00886026
H        2.05494176       1.26725558       0.66393539
16
Frame=13 idx=000748 GeodesicLength=1.0816738418963514 rxn_smarts="[C:1]([C@@:2]([O:3][H:11])([C:4]1([H:12])[C:5]([H:13])([H:14])[C:6]1([H:15])[H:16])[H:10])([H:7])([H:8])[H:9]>>[C:1](/[C:2](=[C:4](/[C:5]([C:6]([O:3][H:11])([H:15])[H:16])([H:13])[H:14])[H:12])[H:10])([H:7])([H:8])[H:9]"
C       -2.27371348      -0.06951738       0.30372194
C       -0.87919389      -0.18662034      -0.25036413
O        0.03460136       1.39950704      -0.96196863
C        0.18726613      -0.36649247       0.67269033
C        1.52352418      -0.84111536       0.22247802
C        1.70517568       0.61228685      -0.12329293
H       -2.29682511       0.58885745       1.17361207
H       -2.66417424      -1.04543720       0.59989039
H       -2.94564886       0.34649169      -0.44933328
H       -0.84176128      -0.90822131      -1.07691280
H        0.29925470       1.17945568      -1.85839976
H        0.06907384       0.01920818       1.68083684
H        2.17080978      -1.18895608       1.02369376
H        1.48928756      -1.51864203      -0.62942862
H        2.35187180       0.71919164      -0.99489614
H        2.07045184       1.26000363       0.66767295
16
Frame=14 idx=000748 GeodesicLength=1.1646999558858573 rxn_smarts="[C:1]([C@@:2]([O:3][H:11])([C:4]1([H:12])[C:5]([H:13])([H:14])[C:6]1([H:15])[H:16])[H:10])([H:7])([H:8])[H:9]>>[C:1](/[C:2](=[C:4](/[C:5]([C:6]([O:3][H:11])([H:15])[H:16])([H:13])[H:14])[H:12])[H:10])([H:7])([H:8])[H:9]"
C       -2.28115036      -0.08453467       0.31204120
C       -0.89019689      -0.18241680      -0.25346716
O        0.04904204       1.42927506      -0.97964888
C        0.18711668      -0.33947329       0.65988297
C        1.51500112      -0.84137506       0.21877247
C        1.70399670       0.61590039      -0.12198970
H       -2.30693749       0.57427107       1.18157583
H       -2.65747126      -1.06513974       0.61129934
H       -2.96359225       0.32286699      -0.43634366
H       -0.84807682      -0.91099203      -1.07344562
H        0.33815053       1.18805059      -1.86186331
H        0.07109378       0.04924028       1.66727184
H        2.15628909      -1.19771385       1.02070467
H        1.46990721      -1.51514461      -0.63527962
H        2.37126674       0.70476877      -0.98068720
H        2.08556117       1.25241689       0.67117684
16
Frame=15 idx=000748 GeodesicLength=1.247681460670997 rxn_smarts="[C:1]([C@@:2]([O:3][H:11])([C:4]1([H:12])[C:5]([H:13])([H:14])[C:6]1([H:15])[H:16])[H:10])([H:7])([H:8])[H:9]>>[C:1](/[C:2](=[C:4](/[C:5]([C:6]([O:3][H:11])([H:15])[H:16])([H:13])[H:14])[H:12])[H:10])([H:7])([H:8])[H:9]"
C       -2.28825703      -0.09989644       0.32068814
C       -0.90143863      -0.17820013      -0.25683339
O        0.06486598       1.45972832      -0.99798371
C        0.18667530      -0.31221677       0.64615556
C        1.50592402      -0.84142651       0.21522883
C        1.70305623       0.61950468      -0.12102104
H       -2.31648327       0.55930239       1.18989560
H       -2.64993508      -1.08512035       0.62308502
H       -2.98149255       0.29861619      -0.42262988
H       -0.85457516      -0.91359711      -1.07024613
H        0.37729241       1.19752024      -1.86504091
H        0.07267576       0.07932756       1.65285154
H        2.14052950      -1.20609645       1.01836577
H        1.45053786      -1.51158903      -0.64074536
H        2.39038305       0.68964322      -0.96623475
H        2.10024160       1.24450019       0.67446472
16
Frame=16 idx=000748 GeodesicLength=1.3306323134706177 rxn_smarts="[C:1]([C@@:2]([O:3][H:11])([C:4]1([H:12])[C:5]([H:13])([H:14])[C:6]1([H:15])[H:16])[H:10])([H:7])([H:8])[H:9]>>[C:1](/[C:2](=[C:4](/[C:5]([C:6]([O:3][H:11])([H:15])[H:16])([H:13])[H:14])[H:12])[H:10])([H:7])([H:8])[H:9]"
C       -2.29501559      -0.11563767       0.32968315
C       -0.91294308      -0.17395129      -0.26046101
O        0.08217457       1.49093494      -1.01696435
C        0.18592882      -0.28467880       0.63147072
C        1.49625003      -0.84127017       0.21185569
C        1.70236224       0.62308114      -0.12039426
H       -2.32545133       0.54390172       1.19860505
H       -2.64149590      -1.10542029       0.63524073
H       -2.99934710       0.27367818      -0.40814198
H       -0.86126267      -0.91598146      -1.06734702
H        0.41674163       1.20787648      -1.86796960
H        0.07381130       0.10953303       1.63753587
H        2.12345209      -1.21410330       1.01670283
H        1.43113382      -1.50800032      -0.64582706
H        2.40918552       0.67378076      -0.95154353
H        2.11447567       1.23625703       0.67755476
