13
Frame=0 idx=001147 GeodesicLength=0.0 rxn_smarts="[C:1]([C:2]([C:3]([H:10])([H:11])[H:12])([C:4](=[O:5])[H:13])[H:9])([H:6])([H:7])[H:8]>>[C:1]([C:2]([C:3]([H:10])([H:11])[H:12])=[C:4]([O:5][H:9])[H:13])([H:6])([H:7])[H:8]"
C       -1.42560221       0.31265037       0.36080087
C       -0.02075183       0.13469135      -0.16377891
C        0.51663505      -1.28938283      -0.00529155
C        0.90271692       1.19185732      -0.05817968
O        1.75700444       1.18515877      -1.01117815
H       -2.12959628      -0.25760181      -0.24955047
H       -1.52857370      -0.05031889       1.39042740
H       -1.74821146       1.35487453       0.33251281
H        0.83574874       0.37894076      -1.37276572
H        1.56086702      -1.38168677      -0.30411874
H       -0.06636747      -1.98430040      -0.61285108
H        0.42965047      -1.61611995       1.03798974
H        0.91648032       2.02123750       0.65598349
13
Frame=1 idx=001147 GeodesicLength=0.043218411648492966 rxn_smarts="[C:1]([C:2]([C:3]([H:10])([H:11])[H:12])([C:4](=[O:5])[H:13])[H:9])([H:6])([H:7])[H:8]>>[C:1]([C:2]([C:3]([H:10])([H:11])[H:12])=[C:4]([O:5][H:9])[H:13])([H:6])([H:7])[H:8]"
C       -1.42163671       0.31372227       0.36083477
C       -0.01744472       0.13157433      -0.16478293
C        0.51481783      -1.29343739      -0.00844076
C        0.90803165       1.18664961      -0.04314841
O        1.76718004       1.18588277      -0.99218547
H       -2.12785759      -0.25581763      -0.24758253
H       -1.52345133      -0.04656924       1.39133546
H       -1.74162583       1.35673389       0.33170355
H        0.84067775       0.37724465      -1.37762001
H        1.55397388      -1.39196346      -0.32283381
H       -0.07885226      -1.98808460      -0.60599161
H        0.44234899      -1.61594833       1.03692527
H        0.88383829       2.04001313       0.64178648
13
Frame=2 idx=001147 GeodesicLength=0.08639428761331328 rxn_smarts="[C:1]([C:2]([C:3]([H:10])([H:11])[H:12])([C:4](=[O:5])[H:13])[H:9])([H:6])([H:7])[H:8]>>[C:1]([C:2]([C:3]([H:10])([H:11])[H:12])=[C:4]([O:5][H:9])[H:13])([H:6])([H:7])[H:8]"
C       -1.41783090       0.31478146       0.36084539
C       -0.01420393       0.12870376      -0.16564142
C        0.51308121      -1.29718009      -0.01143727
C        0.91292297       1.18186108      -0.02801395
O        1.77706080       1.18651819      -0.97297351
H       -2.12611768      -0.25409208      -0.24576760
H       -1.51856318      -0.04293716       1.39216653
H       -1.73534959       1.35852716       0.33092757
H        0.84533436       0.37574226      -1.38251440
H        1.54698877      -1.40157889      -0.34112137
H       -0.09090152      -1.99152402      -0.59901360
H        0.45509205      -1.61563079       1.03573682
H        0.85248663       2.05680912       0.62680681
13
Frame=3 idx=001147 GeodesicLength=0.12954225473586778 rxn_smarts="[C:1]([C:2]([C:3]([H:10])([H:11])[H:12])([C:4](=[O:5])[H:13])[H:9])([H:6])([H:7])[H:8]>>[C:1]([C:2]([C:3]([H:10])([H:11])[H:12])=[C:4]([O:5][H:9])[H:13])([H:6])([H:7])[H:8]"
C       -1.41420461       0.31583213       0.36080393
C       -0.01105980       0.12606699      -0.16642489
C        0.51143520      -1.30060747      -0.01427100
C        0.91732596       1.17751752      -0.01290467
O        1.78658465       1.18709777      -0.95366472
H       -2.12440953      -0.25244982      -0.24409982
H       -1.51390839      -0.03938884       1.39290801
H       -1.72940217       1.36026454       0.33014603
H        0.84970597       0.37436961      -1.38753326
H        1.53994937      -1.41052396      -0.35894603
H       -0.10248750      -1.99466424      -0.59189362
H        0.46787264      -1.61511424       1.03445570
H        0.82259820       2.07160003       0.61142433
13
Frame=4 idx=001147 GeodesicLength=0.17266320790712486 rxn_smarts="[C:1]([C:2]([C:3]([H:10])([H:11])[H:12])([C:4](=[O:5])[H:13])[H:9])([H:6])([H:7])[H:8]>>[C:1]([C:2]([C:3]([H:10])([H:11])[H:12])=[C:4]([O:5][H:9])[H:13])([H:6])([H:7])[H:8]"
C       -1.41076065       0.31687855       0.36069141
C       -0.00802807       0.12364496      -0.16717993
C        0.50988466      -1.30372942      -0.01693639
C        0.92121588       1.17360861       0.00209262
O        1.79569329       1.18764907      -0.93436830
H       -2.12274845      -0.25089931      -0.24257520
H       -1.50947645      -0.03590057       1.39355179
H       -1.72377580       1.36195594       0.32933306
H        0.85377504       0.37306617      -1.39274332
H        1.53288843      -1.41881273      -0.37626626
H       -0.11358871      -1.99753884      -0.58463694
H        0.48066438      -1.61438057       1.03310108
H        0.79425645       2.08445813       0.59593638
13
Frame=5 idx=001147 GeodesicLength=0.21573281755012216 rxn_smarts="[C:1]([C:2]([C:3]([H:10])([H:11])[H:12])([C:4](=[O:5])[H:13])[H:9])([H:6])([H:7])[H:8]>>[C:1]([C:2]([C:3]([H:10])([H:11])[H:12])=[C:4]([O:5][H:9])[H:13])([H:6])([H:7])[H:8]"
C       -1.40749084       0.31791943       0.36049556
C       -0.00511359       0.12141652      -0.16793652
C        0.50842676      -1.30655565      -0.01942921
C        0.92459792       1.17010107       0.01691080
O        1.80433735       1.18820435      -0.91519284
H       -2.12113414      -0.24944447      -0.24118382
H       -1.50525966      -0.03245989       1.39408830
H       -1.71844066       1.36360026       0.32846944
H        0.85753070       0.37177422      -1.39819460
H        1.52583118      -1.42645959      -0.39304109
H       -0.12419443      -2.00016555      -0.57725491
H        0.49341941      -1.61342568       1.03168240
H        0.76749001       2.09549499       0.58058650
13
Frame=6 idx=001147 GeodesicLength=0.25885240247102653 rxn_smarts="[C:1]([C:2]([C:3]([H:10])([H:11])[H:12])([C:4](=[O:5])[H:13])[H:9])([H:6])([H:7])[H:8]>>[C:1]([C:2]([C:3]([H:10])([H:11])[H:12])=[C:4]([O:5][H:9])[H:13])([H:6])([H:7])[H:8]"
C       -1.40439524       0.31898030       0.36021150
C       -0.00231025       0.11935617      -0.16870894
C        0.50707920      -1.30914773      -0.02175015
C        0.92749673       1.16697879       0.03152790
O        1.81248153       1.18881917      -0.89621959
H       -2.11958305      -0.24805923      -0.23994260
H       -1.50125274      -0.02903501       1.39453569
H       -1.71338535       1.36525128       0.32755051
H        0.86094301       0.37046190      -1.40396897
H        1.51883110      -1.43356422      -0.40924098
H       -0.13428426      -2.00261831      -0.56978698
H        0.50612476      -1.61229954       1.03023172
H        0.74225454       2.10487645       0.56556088
13
Frame=7 idx=001147 GeodesicLength=0.30165252598447456 rxn_smarts="[C:1]([C:2]([C:3]([H:10])([H:11])[H:12])([C:4](=[O:5])[H:13])[H:9])([H:6])([H:7])[H:8]>>[C:1]([C:2]([C:3]([H:10])([H:11])[H:12])=[C:4]([O:5][H:9])[H:13])([H:6])([H:7])[H:8]"
C       -1.40142338       0.31999048       0.35980630
C        0.00037920       0.11746346      -0.16953745
C        0.50577532      -1.31138053      -0.02389963
C        0.92996898       1.16410516       0.04584426
O        1.82008745       1.18944076      -0.87759570
H       -2.11803616      -0.24685444      -0.23875724
H       -1.49741251      -0.02563135       1.39480910
H       -1.70852619       1.36676599       0.32646184
H        0.86407813       0.36893592      -1.40995293
H        1.51178792      -1.43991729      -0.42491323
H       -0.14395297      -2.00474574      -0.56215678
H        0.51870906      -1.61088012       1.02868789
H        0.71856516       2.11270770       0.55120357
13
Frame=8 idx=001147 GeodesicLength=0.3445819418047177 rxn_smarts="[C:1]([C:2]([C:3]([H:10])([H:11])[H:12])([C:4](=[O:5])[H:13])[H:9])([H:6])([H:7])[H:8]>>[C:1]([C:2]([C:3]([H:10])([H:11])[H:12])=[C:4]([O:5][H:9])[H:13])([H:6])([H:7])[H:8]"
C       -1.39858759       0.32103486       0.35935880
C        0.00300949       0.11570355      -0.17032274
C        0.50458549      -1.31346088      -0.02590260
C        0.93208115       1.16154175       0.06007925
O        1.82725166       1.19011035      -0.85912826
H       -2.11654310      -0.24562479      -0.23774112
H       -1.49377128      -0.02229466       1.39501442
H       -1.70386927       1.36832065       0.32544701
H        0.86684757       0.36739741      -1.41624815
H        1.50486428      -1.44589104      -0.44000569
H       -0.15313759      -2.00673045      -0.55455994
H        0.53118125      -1.60939254       1.02708824
H        0.69608794       2.11928578       0.53692077
13
Frame=9 idx=001147 GeodesicLength=0.387487418281575 rxn_smarts="[C:1]([C:2]([C:3]([H:10])([H:11])[H:12])([C:4](=[O:5])[H:13])[H:9])([H:6])([H:7])[H:8]>>[C:1]([C:2]([C:3]([H:10])([H:11])[H:12])=[C:4]([O:5][H:9])[H:13])([H:6])([H:7])[H:8]"
C       -1.39586891       0.32209236       0.35882473
C        0.00557009       0.11406901      -0.17112572
C        0.50348319      -1.31535674      -0.02776156
C        0.93384382       1.15922330       0.07414285
O        1.83394234       1.19083705      -0.84093016
H       -2.11507664      -0.24444640      -0.23686276
H       -1.49029986      -0.01897926       1.39512337
H       -1.69938709       1.36988127       0.32437190
H        0.86930120       0.36572374      -1.42285748
H        1.49798934      -1.45143458      -0.45461784
H       -0.16190907      -2.00856963      -0.54688915
H        0.54358040      -1.60777843       1.02544722
H        0.67483119       2.12473832       0.52313459
13
Frame=10 idx=001147 GeodesicLength=0.43036909378042376 rxn_smarts="[C:1]([C:2]([C:3]([H:10])([H:11])[H:12])([C:4](=[O:5])[H:13])[H:9])([H:6])([H:7])[H:8]>>[C:1]([C:2]([C:3]([H:10])([H:11])[H:12])=[C:4]([O:5][H:9])[H:13])([H:6])([H:7])[H:8]"
C       -1.39325652       0.32316439       0.35820294
C        0.00807215       0.11254890      -0.17194240
C        0.50246276      -1.31708461      -0.02949060
C        0.93529470       1.15710510       0.08806670
O        1.84019347       1.19159882      -0.82297924
H       -2.11363447      -0.24332875      -0.23610546
H       -1.48697569      -0.01565683       1.39513978
H       -1.69506834       1.37144614       0.32320240
H        0.87146015       0.36388330      -1.42977211
H        1.49113805      -1.45659190      -0.46882390
H       -0.17031448      -2.01027585      -0.53913423
H        0.55595160      -1.60605287       1.02375211
H        0.65467663       2.12924416       0.50988402
13
Frame=11 idx=001147 GeodesicLength=0.4731926086640776 rxn_smarts="[C:1]([C:2]([C:3]([H:10])([H:11])[H:12])([C:4](=[O:5])[H:13])[H:9])([H:6])([H:7])[H:8]>>[C:1]([C:2]([C:3]([H:10])([H:11])[H:12])=[C:4]([O:5][H:9])[H:13])([H:6])([H:7])[H:8]"
C       -1.39072525       0.32423182       0.35750900
C        0.01053600       0.11113574      -0.17274780
C        0.50150970      -1.31861960      -0.03108292
C        0.93646990       1.15516688       0.10187125
O        1.84600543       1.19243479      -0.80527146
H       -2.11219053      -0.24223295      -0.23546777
H       -1.48381514      -0.01239206       1.39502951
H       -1.69085015       1.37296885       0.32201298
H        0.87329169       0.36192009      -1.43696752
H        1.48433232      -1.46134837      -0.48256063
H       -0.17836062      -2.01179376      -0.53130889
H        0.56820267      -1.60416979       1.02198225
H        0.63559397       2.13269836       0.49700198
13
Frame=12 idx=001147 GeodesicLength=0.5160172601123032 rxn_smarts="[C:1]([C:2]([C:3]([H:10])([H:11])[H:12])([C:4](=[O:5])[H:13])[H:9])([H:6])([H:7])[H:8]>>[C:1]([C:2]([C:3]([H:10])([H:11])[H:12])=[C:4]([O:5][H:9])[H:13])([H:6])([H:7])[H:8]"
C       -1.38827776       0.32532068       0.35673127
C        0.01296351       0.10982150      -0.17356153
C        0.50063873      -1.32002306      -0.03254963
C        0.93738809       1.15339421       0.11556319
O        1.85138222       1.19334143      -0.78783634
H       -2.11075649      -0.24115822      -0.23497574
H       -1.48080033      -0.00914684       1.39482528
H       -1.68674827       1.37451864       0.32076682
H        0.87480781       0.35976186      -1.44449504
H        1.47757615      -1.46579308      -0.49589347
H       -0.18606384      -2.01320577      -0.52341953
H        0.58040303      -1.60220512       1.02017504
H        0.61748715       2.13537379       0.48466968
13
Frame=13 idx=001147 GeodesicLength=0.5588337472665655 rxn_smarts="[C:1]([C:2]([C:3]([H:10])([H:11])[H:12])([C:4](=[O:5])[H:13])[H:9])([H:6])([H:7])[H:8]>>[C:1]([C:2]([C:3]([H:10])([H:11])[H:12])=[C:4]([O:5][H:9])[H:13])([H:6])([H:7])[H:8]"
C       -1.38590037       0.32642354       0.35586903
C        0.01536731       0.10860079      -0.17438010
C        0.49983969      -1.32129255      -0.03389994
C        0.93807483       1.15176364       0.12916934
O        1.85636951       1.19430859      -0.77063070
H       -2.10932244      -0.24010435      -0.23462049
H       -1.47792173      -0.00592257       1.39451557
H       -1.68274192       1.37607512       0.31945953
H        0.87602225       0.35741783      -1.45233576
H        1.47083749      -1.46994726      -0.50888340
H       -0.19347187      -2.01450705      -0.51542531
H        0.59258169      -1.60013245       1.01831231
H        0.60026557       2.13731673       0.47284992
13
Frame=14 idx=001147 GeodesicLength=0.6016452789565351 rxn_smarts="[C:1]([C:2]([C:3]([H:10])([H:11])[H:12])([C:4](=[O:5])[H:13])[H:9])([H:6])([H:7])[H:8]>>[C:1]([C:2]([C:3]([H:10])([H:11])[H:12])=[C:4]([O:5][H:9])[H:13])([H:6])([H:7])[H:8]"
C       -1.38358212       0.32753953       0.35492684
C        0.01775701       0.10746992      -0.17520174
C        0.49910895      -1.32244072      -0.03514299
C        0.93854439       1.15026013       0.14271626
O        1.86099451       1.19532345      -0.75361818
H       -2.10787893      -0.23906679      -0.23440093
H       -1.47516969      -0.00272465       1.39410798
H       -1.67882083       1.37764031       0.31809192
H        0.87694756       0.35488004      -1.46048723
H        1.46410039      -1.47384438      -0.52157234
H       -0.20061222      -2.01570247      -0.50732097
H        0.60475760      -1.59796700       1.01639086
H        0.58385338       2.13863264       0.46151052
13
Frame=15 idx=001147 GeodesicLength=0.644430468975725 rxn_smarts="[C:1]([C:2]([C:3]([H:10])([H:11])[H:12])([C:4](=[O:5])[H:13])[H:9])([H:6])([H:7])[H:8]>>[C:1]([C:2]([C:3]([H:10])([H:11])[H:12])=[C:4]([O:5][H:9])[H:13])([H:6])([H:7])[H:8]"
C       -1.38131387       0.32866631       0.35390713
C        0.02014319       0.10642344      -0.17601379
C        0.49844420      -1.32345673      -0.03627536
C        0.93882509       1.14885731       0.15619654
O        1.86524218       1.19641423      -0.73684414
H       -2.10641474      -0.23802999      -0.23431418
H       -1.47255083       0.00044548       1.39358890
H       -1.67495701       1.37919911       0.31667605
H        0.87754704       0.35213482      -1.46895640
H        1.45739724      -1.47747464      -0.53390967
H       -0.20747349      -2.01676655      -0.49913217
H        0.61687764      -1.59569669       1.01440722
H        0.56823336       2.13928391       0.45066988
13
Frame=16 idx=001147 GeodesicLength=0.687218462591555 rxn_smarts="[C:1]([C:2]([C:3]([H:10])([H:11])[H:12])([C:4](=[O:5])[H:13])[H:9])([H:6])([H:7])[H:8]>>[C:1]([C:2]([C:3]([H:10])([H:11])[H:12])=[C:4]([O:5][H:9])[H:13])([H:6])([H:7])[H:8]"
C       -1.37909344       0.32981372       0.35279879
C        0.02253051       0.10545563      -0.17682349
C        0.49785360      -1.32437164      -0.03729904
C        0.93893296       1.14755034       0.16962645
O        1.86911829       1.19759073      -0.72031328
H       -2.10493307      -0.23699517      -0.23438225
H       -1.47005539       0.00360357       1.39296540
H       -1.67115098       1.38078166       0.31518302
H        0.87780939       0.34915503      -1.47776552
H        1.45071666      -1.48088807      -0.54594201
H       -0.21407528      -2.01774282      -0.49083930
H        0.62898933      -1.59334518       1.01237674
H        0.55335742       2.13939220       0.44041449
