13
Frame=0 idx=002024 GeodesicLength=0.0 rxn_smarts="[C:1]([C@@:2]([O:3][H:10])([C:4]([O:5][H:13])([H:11])[H:12])[H:9])([H:6])([H:7])[H:8]>>[C:1]([C:2]([O:3][H:10])=[C:4]([H:11])[H:12])([H:6])([H:7])[H:8].[O:5]([H:9])[H:13]"
C       -1.52426004      -0.03162216       0.32885195
C       -0.20723063       0.15293497      -0.38608212
O       -0.32965528       0.47949338      -1.75179097
C        0.89628927       0.74377760       0.25825413
O        1.91958764      -0.86740799       0.27053174
H       -2.14659349       0.86393863       0.24817256
H       -1.36906272      -0.25175265       1.38715110
H       -2.08592451      -0.86380538      -0.10068041
H        0.71368157      -0.86559626      -0.14487714
H       -0.44582641      -0.32862853      -2.25261501
H        1.61382324       1.31266124      -0.31653974
H        0.87847952       0.92185458       1.32600736
H        2.08669188      -1.26584737       1.13361649
13
Frame=1 idx=002024 GeodesicLength=0.08703979069469618 rxn_smarts="[C:1]([C@@:2]([O:3][H:10])([C:4]([O:5][H:13])([H:11])[H:12])[H:9])([H:6])([H:7])[H:8]>>[C:1]([C:2]([O:3][H:10])=[C:4]([H:11])[H:12])([H:6])([H:7])[H:8].[O:5]([H:9])[H:13]"
C       -1.53335351      -0.02126620       0.33838451
C       -0.21785992       0.16415455      -0.37526429
O       -0.34230093       0.47017769      -1.74284073
C        0.88957082       0.75276203       0.26461373
O        1.91105258      -0.88021320       0.25280538
H       -2.16797251       0.86234421       0.22821209
H       -1.38369309      -0.20843054       1.40361989
H       -2.07702466      -0.87438359      -0.07281205
H        0.69443824      -0.88070705      -0.15522971
H       -0.35388551      -0.34209070      -2.24979778
H        1.59054084       1.34031716      -0.31253103
H        0.87168804       0.93199931       1.33250132
H        2.11879961      -1.31466367       1.08833868
13
Frame=2 idx=002024 GeodesicLength=0.17393200061992536 rxn_smarts="[C:1]([C@@:2]([O:3][H:10])([C:4]([O:5][H:13])([H:11])[H:12])[H:9])([H:6])([H:7])[H:8]>>[C:1]([C:2]([O:3][H:10])=[C:4]([H:11])[H:12])([H:6])([H:7])[H:8].[O:5]([H:9])[H:13]"
C       -1.54207021      -0.01142772       0.34782296
C       -0.22798448       0.17347918      -0.36489063
O       -0.35441991       0.45712949      -1.73445211
C        0.88276925       0.76165423       0.27009435
O        1.90175122      -0.89365624       0.23811271
H       -2.18843837       0.85917070       0.20746028
H       -1.39832250      -0.16440067       1.41912853
H       -2.06788348      -0.88497382      -0.04317339
H        0.67499251      -0.89730743      -0.16448136
H       -0.26188431      -0.34749627      -2.24480281
H        1.56659614       1.36732971      -0.30960701
H        0.86377327       0.94469212       1.33765316
H        2.15112088      -1.36419328       1.04113533
13
Frame=3 idx=002024 GeodesicLength=0.2605859453129215 rxn_smarts="[C:1]([C@@:2]([O:3][H:10])([C:4]([O:5][H:13])([H:11])[H:12])[H:9])([H:6])([H:7])[H:8]>>[C:1]([C:2]([O:3][H:10])=[C:4]([H:11])[H:12])([H:6])([H:7])[H:8].[O:5]([H:9])[H:13]"
C       -1.55042469      -0.00199594       0.35710658
C       -0.23756785       0.18103399      -0.35487706
O       -0.36575389       0.44018495      -1.72649965
C        0.87588921       0.77046487       0.27482205
O        1.89158165      -0.90798639       0.22677556
H       -2.20798032       0.85446325       0.18590915
H       -1.41302173      -0.11961453       1.43348627
H       -2.05849275      -0.89536408      -0.01181811
H        0.65534645      -0.91543023      -0.17265683
H       -0.17021627      -0.34495193      -2.23766434
H        1.54196554       1.39364881      -0.30769046
H        0.85464596       0.95989909       1.34154361
H        2.18402869      -1.41435186       0.99156322
13
Frame=4 idx=002024 GeodesicLength=0.3469228041647419 rxn_smarts="[C:1]([C@@:2]([O:3][H:10])([C:4]([O:5][H:13])([H:11])[H:12])[H:9])([H:6])([H:7])[H:8]>>[C:1]([C:2]([O:3][H:10])=[C:4]([H:11])[H:12])([H:6])([H:7])[H:8].[O:5]([H:9])[H:13]"
C       -1.55831478       0.00696333       0.36624046
C       -0.24652690       0.18700344      -0.34519649
O       -0.37612108       0.41915826      -1.71898789
C        0.86906291       0.77941327       0.27882769
O        1.88050153      -0.92330965       0.21945775
H       -2.22647654       0.84812382       0.16375693
H       -1.42760384      -0.07439177       1.44661204
H       -2.04880599      -0.90551815       0.02113465
H        0.63566982      -0.93497012      -0.18001418
H       -0.07942633      -0.33444262      -2.22849549
H        1.51683411       1.41937314      -0.30690680
H        0.84437308       0.97797636       1.34417125
H        2.21683402      -1.46537930       0.93940011
13
Frame=5 idx=002024 GeodesicLength=0.4328504632783289 rxn_smarts="[C:1]([C@@:2]([O:3][H:10])([C:4]([O:5][H:13])([H:11])[H:12])[H:9])([H:6])([H:7])[H:8]>>[C:1]([C:2]([O:3][H:10])=[C:4]([H:11])[H:12])([H:6])([H:7])[H:8].[O:5]([H:9])[H:13]"
C       -1.56571112       0.01553183       0.37517149
C       -0.25476789       0.19151390      -0.33571461
O       -0.38510176       0.39365055      -1.71172986
C        0.86232851       0.78856919       0.28227128
O        1.86849227      -0.93974951       0.21658626
H       -2.24390743       0.84009584       0.14084004
H       -1.44216879      -0.02857797       1.45835967
H       -2.03868644      -0.91531512       0.05569610
H        0.61607427      -0.95589128      -0.18658645
H        0.01003833      -0.31602326      -2.21711420
H        1.49117733       1.44455926      -0.30714853
H        0.83288980       0.99895040       1.34560033
H        2.24934292      -1.51731386       0.88376848
13
Frame=6 idx=002024 GeodesicLength=0.5183487341892369 rxn_smarts="[C:1]([C@@:2]([O:3][H:10])([C:4]([O:5][H:13])([H:11])[H:12])[H:9])([H:6])([H:7])[H:8]>>[C:1]([C:2]([O:3][H:10])=[C:4]([H:11])[H:12])([H:6])([H:7])[H:8].[O:5]([H:9])[H:13]"
C       -1.57277216       0.02397429       0.38369127
C       -0.26221770       0.19460878      -0.32622386
O       -0.39201821       0.36310695      -1.70448001
C        0.85572992       0.79781749       0.28554515
O        1.85544477      -0.95762769       0.21844045
H       -2.26021890       0.83059538       0.11665146
H       -1.45717213       0.01820549       1.46845016
H       -2.02835406      -0.92438818       0.09172843
H        0.59641648      -0.97836339      -0.19199554
H        0.09745154      -0.29013850      -2.20308958
H        1.46497302       1.46921167      -0.30795985
H        0.82014708       1.02240726       1.34617130
H        2.28259035      -1.56940953       0.82307061
13
Frame=7 idx=002024 GeodesicLength=0.6033856892452 rxn_smarts="[C:1]([C@@:2]([O:3][H:10])([C:4]([O:5][H:13])([H:11])[H:12])[H:9])([H:6])([H:7])[H:8]>>[C:1]([C:2]([O:3][H:10])=[C:4]([H:11])[H:12])([H:6])([H:7])[H:8].[O:5]([H:9])[H:13]"
C       -1.57964046       0.03259529       0.39151482
C       -0.26873382       0.19631141      -0.31648500
O       -0.39594915       0.32708741      -1.69689471
C        0.84935495       0.80697621       0.28915185
O        1.84126706      -0.97738234       0.22532611
H       -2.27521196       0.81995972       0.09063269
H       -1.47311660       0.06627753       1.47651018
H       -2.01810310      -0.93225461       0.12892446
H        0.57656309      -1.00261894      -0.19572644
H        0.18164949      -0.25778040      -2.18588196
H        1.43828874       1.49326442      -0.30870794
H        0.80609326       1.04779564       1.34634587
H        2.31753850      -1.62023133       0.75529007
13
Frame=8 idx=002024 GeodesicLength=0.6878874968232223 rxn_smarts="[C:1]([C@@:2]([O:3][H:10])([C:4]([O:5][H:13])([H:11])[H:12])[H:9])([H:6])([H:7])[H:8]>>[C:1]([C:2]([O:3][H:10])=[C:4]([H:11])[H:12])([H:6])([H:7])[H:8].[O:5]([H:9])[H:13]"
C       -1.58647985       0.04174275       0.39828024
C       -0.27412259       0.19658514      -0.30621896
O       -0.39581778       0.28545283      -1.68848548
C        0.84336922       0.81570858       0.29369832
O        1.82585752      -0.99966333       0.23753310
H       -2.28855271       0.80870463       0.06222311
H       -1.49054156       0.11585656       1.48207823
H       -2.00841883      -0.93829262       0.16677954
H        0.55630755      -1.02899474      -0.19705652
H        0.26120272      -0.22067993      -2.16495191
H        1.41135778       1.51647092      -0.30859927
H        0.79074141       1.07432465       1.34670380
H        2.35509713      -1.66721546       0.67801581
13
Frame=9 idx=002024 GeodesicLength=0.7716800199784423 rxn_smarts="[C:1]([C@@:2]([O:3][H:10])([C:4]([O:5][H:13])([H:11])[H:12])[H:9])([H:6])([H:7])[H:8]>>[C:1]([C:2]([O:3][H:10])=[C:4]([H:11])[H:12])([H:6])([H:7])[H:8].[O:5]([H:9])[H:13]"
C       -1.59315537       0.05156621       0.40369450
C       -0.27808490       0.19541477      -0.29521367
O       -0.39073658       0.23873457      -1.67867239
C        0.83809059       0.82359324       0.29967150
O        1.80918598      -1.02528758       0.25494984
H       -2.29976206       0.79704290       0.03116807
H       -1.50946072       0.16690950       1.48472925
H       -1.99940651      -0.94212331       0.20478014
H        0.53553892      -1.05775321      -0.19566267
H        0.33458683      -0.18087659      -2.14018582
H        1.38461670       1.53840981      -0.30693725
H        0.77435190       1.10112881       1.34771315
H        2.39423522      -1.70675912       0.58996536
13
Frame=10 idx=002024 GeodesicLength=0.8551632069464037 rxn_smarts="[C:1]([C@@:2]([O:3][H:10])([C:4]([O:5][H:13])([H:11])[H:12])[H:9])([H:6])([H:7])[H:8]>>[C:1]([C:2]([O:3][H:10])=[C:4]([H:11])[H:12])([H:6])([H:7])[H:8].[O:5]([H:9])[H:13]"
C       -1.59898442       0.06147956       0.40776796
C       -0.28008969       0.19307429      -0.28344729
O       -0.38035578       0.18807914      -1.66704675
C        0.83415675       0.83099309       0.30707999
O        1.79262159      -1.05394913       0.27646549
H       -2.30867163       0.78371655      -0.00255654
H       -1.52907356       0.21918542       1.48426759
H       -1.98988625      -0.94461728       0.24321233
H        0.51512223      -1.08852545      -0.19174713
H        0.40082247      -0.13954503      -2.11213169
H        1.35838135       1.55979069      -0.30367834
H        0.75779453       1.12809009       1.34941942
H        2.42816241      -1.73777194       0.49239497
13
Frame=11 idx=002024 GeodesicLength=0.9384908460017125 rxn_smarts="[C:1]([C@@:2]([O:3][H:10])([C:4]([O:5][H:13])([H:11])[H:12])[H:9])([H:6])([H:7])[H:8]>>[C:1]([C:2]([O:3][H:10])=[C:4]([H:11])[H:12])([H:6])([H:7])[H:8].[O:5]([H:9])[H:13]"
C       -1.60335872       0.07099816       0.41059612
C       -0.27968140       0.18965140      -0.27085369
O       -0.36421095       0.13470548      -1.65316729
C        0.83174302       0.83822806       0.31579067
O        1.77780059      -1.08437684       0.29976133
H       -2.31460710       0.76790389      -0.03852474
H       -1.54892729       0.27213335       1.48053274
H       -1.97910312      -0.94597354       0.28203760
H        0.49585248      -1.12070120      -0.18503384
H        0.45971241      -0.09836139      -2.08126402
H        1.33218923       1.58128412      -0.29887788
H        0.74134650       1.15477146       1.35178154
H        2.45124435      -1.76026295       0.38722148
13
Frame=12 idx=002024 GeodesicLength=1.0216994364611032 rxn_smarts="[C:1]([C@@:2]([O:3][H:10])([C:4]([O:5][H:13])([H:11])[H:12])[H:9])([H:6])([H:7])[H:8]>>[C:1]([C:2]([O:3][H:10])=[C:4]([H:11])[H:12])([H:6])([H:7])[H:8].[O:5]([H:9])[H:13]"
C       -1.60715461       0.08118666       0.41189009
C       -0.27782257       0.18451324      -0.25802317
O       -0.34457112       0.08347001      -1.63771633
C        0.83126432       0.84253485       0.32540251
O        1.76208287      -1.12162079       0.32024876
H       -2.31602539       0.75627600      -0.07263068
H       -1.56774469       0.32070426       1.47437588
H       -1.97225882      -0.94317841       0.31561651
H        0.47448316      -1.15655259      -0.17850605
H        0.50763727      -0.06387588      -2.04939687
H        1.30746024       1.59997107      -0.29221007
H        0.72668039       1.17697962       1.35498824
H        2.47596895      -1.76040804       0.28596118
13
Frame=13 idx=002024 GeodesicLength=1.107474044606968 rxn_smarts="[C:1]([C@@:2]([O:3][H:10])([C:4]([O:5][H:13])([H:11])[H:12])[H:9])([H:6])([H:7])[H:8]>>[C:1]([C:2]([O:3][H:10])=[C:4]([H:11])[H:12])([H:6])([H:7])[H:8].[O:5]([H:9])[H:13]"
C       -1.60833975       0.08957876       0.41232156
C       -0.27295064       0.17930415      -0.24422909
O       -0.31953633       0.03067221      -1.61975516
C        0.83223781       0.84935397       0.33612722
O        1.75311194      -1.15581592       0.33835230
H       -2.31595635       0.73616620      -0.11113713
H       -1.58657300       0.37292991       1.46431296
H       -1.95945742      -0.94244345       0.35339578
H        0.45675787      -1.19164525      -0.16816230
H        0.55126766      -0.02656529      -2.01604277
H        1.28082044       1.62239139      -0.28417822
H        0.71242465       1.20045906       1.35910323
H        2.47619310      -1.76438573       0.17989163
13
Frame=14 idx=002024 GeodesicLength=1.1929985600087487 rxn_smarts="[C:1]([C@@:2]([O:3][H:10])([C:4]([O:5][H:13])([H:11])[H:12])[H:9])([H:6])([H:7])[H:8]>>[C:1]([C:2]([O:3][H:10])=[C:4]([H:11])[H:12])([H:6])([H:7])[H:8].[O:5]([H:9])[H:13]"
C       -1.60833191       0.09771676       0.41218340
C       -0.26700438       0.17333558      -0.23076067
O       -0.29357993      -0.01690542      -1.60112938
C        0.83480594       0.85447993       0.34634188
O        1.74353996      -1.19476282       0.35015976
H       -2.31277419       0.71736114      -0.14662803
H       -1.60311146       0.42129713       1.45252298
H       -1.94806891      -0.93941201       0.38815282
H        0.43738377      -1.22868790      -0.16159701
H        0.58543571       0.00694301      -1.98417630
H        1.25527573       1.64268081      -0.27593245
H        0.70034967       1.22038490       1.36290153
H        2.47608000      -1.75443109       0.08796147
13
Frame=15 idx=002024 GeodesicLength=1.2797644833433397 rxn_smarts="[C:1]([C@@:2]([O:3][H:10])([C:4]([O:5][H:13])([H:11])[H:12])[H:9])([H:6])([H:7])[H:8]>>[C:1]([C:2]([O:3][H:10])=[C:4]([H:11])[H:12])([H:6])([H:7])[H:8].[O:5]([H:9])[H:13]"
C       -1.60680038       0.10474393       0.41154737
C       -0.25943894       0.16730115      -0.21705393
O       -0.26549570      -0.06156736      -1.58150475
C        0.83846784       0.86085787       0.35660767
O        1.73699302      -1.23355780       0.35720061
H       -2.30791816       0.69485285      -0.18215172
H       -1.61874832       0.46916178       1.43812564
H       -1.93465989      -0.93638358       0.42349266
H        0.41891991      -1.26585877      -0.15575207
H        0.61366409       0.04089224      -1.95318782
H        1.22909011       1.66422145      -0.26728863
H        0.68923266       1.24005825       1.36694721
H        2.46669376      -1.74472203       0.00301775
13
Frame=16 idx=002024 GeodesicLength=1.3672541063751098 rxn_smarts="[C:1]([C@@:2]([O:3][H:10])([C:4]([O:5][H:13])([H:11])[H:12])[H:9])([H:6])([H:7])[H:8]>>[C:1]([C:2]([O:3][H:10])=[C:4]([H:11])[H:12])([H:6])([H:7])[H:8].[O:5]([H:9])[H:13]"
C       -1.60376844       0.11093684       0.41051510
C       -0.25065654       0.16129765      -0.20315065
O       -0.23604838      -0.10220914      -1.56099719
C        0.84269306       0.86818022       0.36662688
O        1.73152902      -1.27316630       0.36038734
H       -2.30095891       0.67036020      -0.21634029
H       -1.63295029       0.51510940       1.42147375
H       -1.91980901      -0.93272839       0.45825301
H        0.40055869      -1.30321593      -0.15168877
H        0.63663028       0.07333371      -1.92248116
H        1.20238406       1.68595201      -0.25859334
H        0.67857798       1.25957698       1.37058813
H        2.45181848      -1.73342725      -0.07459280
