11
Frame=0 idx=004115 GeodesicLength=0.0 rxn_smarts="[C:1]([c:2]1[c:3]([H:10])[n:4][n:5][n:6]1[H:11])([H:7])([H:8])[H:9]>>[C:1](=[C:2]1[C:3]([H:10])=[N:4][N:5]([H:7])[N:6]1[H:11])([H:8])[H:9]"
C       -1.27222791      -0.16559411       0.10211519
C       -0.02779147      -0.04990192       0.73162485
C        0.71366869       1.15773416       0.48669250
N        1.42488275       0.92217654      -0.57458069
N        1.25415866      -0.39328390      -0.93202876
N        0.84164145      -1.02060299       0.26437675
H       -0.24593229      -0.18944546      -1.13133779
H       -1.71758913      -1.14748313      -0.03468407
H       -1.98029312       0.65509481       0.14239182
H        0.58337159       2.14757886       0.89535511
H        0.42611081      -1.91627282       0.05007509
11
Frame=1 idx=004115 GeodesicLength=0.06326912860380429 rxn_smarts="[C:1]([c:2]1[c:3]([H:10])[n:4][n:5][n:6]1[H:11])([H:7])([H:8])[H:9]>>[C:1](=[C:2]1[C:3]([H:10])=[N:4][N:5]([H:7])[N:6]1[H:11])([H:8])[H:9]"
C       -1.27957434      -0.16217148       0.09600040
C       -0.03268318      -0.04813879       0.72568975
C        0.71830323       1.15471628       0.48750339
N        1.44586829       0.91643067      -0.56420388
N        1.26497330      -0.39358064      -0.92797401
N        0.84036790      -1.01882276       0.26452053
H       -0.24904881      -0.18379548      -1.15469533
H       -1.72662845      -1.14360503      -0.03860264
H       -1.99306564       0.65098732       0.17520254
H        0.57433801       2.14897057       0.88074523
H        0.43714970      -1.92099066       0.05581401
11
Frame=2 idx=004115 GeodesicLength=0.12649153621410614 rxn_smarts="[C:1]([c:2]1[c:3]([H:10])[n:4][n:5][n:6]1[H:11])([H:7])([H:8])[H:9]>>[C:1](=[C:2]1[C:3]([H:10])=[N:4][N:5]([H:7])[N:6]1[H:11])([H:8])[H:9]"
C       -1.28712737      -0.15839808       0.08981736
C       -0.03767866      -0.04621890       0.71959817
C        0.72279685       1.15178961       0.48827790
N        1.46681261       0.91053951      -0.55340769
N        1.27570336      -0.39382259      -0.92380896
N        0.83890521      -1.01696866       0.26462012
H       -0.25220837      -0.17777157      -1.17848489
H       -1.73571675      -1.13943379      -0.04280772
H       -2.00559218       0.64561605       0.20844747
H        0.56587752       2.15025697       0.86578029
H        0.44822778      -1.92558856       0.06196795
11
Frame=3 idx=004115 GeodesicLength=0.18966893039779886 rxn_smarts="[C:1]([c:2]1[c:3]([H:10])[n:4][n:5][n:6]1[H:11])([H:7])([H:8])[H:9]>>[C:1](=[C:2]1[C:3]([H:10])=[N:4][N:5]([H:7])[N:6]1[H:11])([H:8])[H:9]"
C       -1.29489577      -0.15427599       0.08364210
C       -0.04276208      -0.04414525       0.71336603
C        0.72715771       1.14895127       0.48901908
N        1.48767588       0.90450229      -0.54220416
N        1.28631733      -0.39400181      -0.91954909
N        0.83725625      -1.01503936       0.26466297
H       -0.25546289      -0.17136112      -1.20269266
H       -1.74484378      -1.13497566      -0.04728575
H       -2.01781100       0.63897023       0.24198421
H        0.55801344       2.15143372       0.85049802
H        0.45935490      -1.93005832       0.06855924
11
Frame=4 idx=004115 GeodesicLength=0.25280214094131964 rxn_smarts="[C:1]([c:2]1[c:3]([H:10])[n:4][n:5][n:6]1[H:11])([H:7])([H:8])[H:9]>>[C:1](=[C:2]1[C:3]([H:10])=[N:4][N:5]([H:7])[N:6]1[H:11])([H:8])[H:9]"
C       -1.30288430      -0.14980650       0.07754278
C       -0.04791797      -0.04192517       0.70701222
C        0.73140057       1.14619093       0.48973863
N        1.50843121       0.89831111      -0.53059547
N        1.29679021      -0.39411489      -0.91520851
N        0.83542255      -1.01304237       0.26463614
H       -0.25885709      -0.16453872      -1.22730491
H       -1.75399977      -1.13023005      -0.05203705
H       -2.02966460       0.63104519       0.27570880
H        0.55073823       2.15250695       0.83490048
H        0.47054097      -1.93439647       0.07560689
11
Frame=5 idx=004115 GeodesicLength=0.31589281050716944 rxn_smarts="[C:1]([c:2]1[c:3]([H:10])[n:4][n:5][n:6]1[H:11])([H:7])([H:8])[H:9]>>[C:1](=[C:2]1[C:3]([H:10])=[N:4][N:5]([H:7])[N:6]1[H:11])([H:8])[H:9]"
C       -1.31110103      -0.14499839       0.07158992
C       -0.05313293      -0.03956393       0.70055232
C        0.73553098       1.14350491       0.49043879
N        1.52904493       0.89196443      -0.51859618
N        1.30709940      -0.39415595      -0.91080160
N        0.83340913      -1.01097905       0.26452941
H       -0.26244093      -0.15729129      -1.25230783
H       -1.76317866      -1.12521020      -0.05705289
H       -2.04110245       0.62185670       0.30949348
H        0.54406731       2.15346930       0.81902017
H        0.48180426      -1.93859652       0.08313442
11
Frame=6 idx=004115 GeodesicLength=0.3789429805400124 rxn_smarts="[C:1]([c:2]1[c:3]([H:10])[n:4][n:5][n:6]1[H:11])([H:7])([H:8])[H:9]>>[C:1](=[C:2]1[C:3]([H:10])=[N:4][N:5]([H:7])[N:6]1[H:11])([H:8])[H:9]"
C       -1.31955077      -0.13986414       0.06585010
C       -0.05839266      -0.03707084       0.69400438
C        0.73955906       1.14088368       0.49112692
N        1.54948939       0.88545399      -0.50621219
N        1.31722621      -0.39412193      -0.90634143
N        0.83122017      -1.00885746       0.26433171
H       -0.26626434      -0.14959112      -1.27768943
H       -1.77237161      -1.11992334      -0.06232727
H       -2.05207463       0.61142729       0.34322668
H        0.53799442       2.15431856       0.80286722
H        0.49316476      -1.94265468       0.09116330
11
Frame=7 idx=004115 GeodesicLength=0.4419590845546226 rxn_smarts="[C:1]([c:2]1[c:3]([H:10])[n:4][n:5][n:6]1[H:11])([H:7])([H:8])[H:9]>>[C:1](=[C:2]1[C:3]([H:10])=[N:4][N:5]([H:7])[N:6]1[H:11])([H:8])[H:9]"
C       -1.32823963      -0.13441924       0.06038783
C       -0.06368413      -0.03445534       0.68738280
C        0.74349133       1.13831897       0.49180981
N        1.56973595       0.87877859      -0.49345580
N        1.32715962      -0.39400889      -0.90183934
N        0.82886197      -1.00668312       0.26403145
H       -0.27037458      -0.14142410      -1.30344243
H       -1.78157581      -1.11438486      -0.06784685
H       -2.06254204       0.59979775       0.37679382
H        0.53252077       2.15504575       0.78646432
H        0.50464655      -1.94656552       0.09971438
11
Frame=8 idx=004115 GeodesicLength=0.5049403110850677 rxn_smarts="[C:1]([c:2]1[c:3]([H:10])[n:4][n:5][n:6]1[H:11])([H:7])([H:8])[H:9]>>[C:1](=[C:2]1[C:3]([H:10])=[N:4][N:5]([H:7])[N:6]1[H:11])([H:8])[H:9]"
C       -1.33717110      -0.12867980       0.05525682
C       -0.06899607      -0.03172858       0.68070154
C        0.74733592       1.13580033       0.49249154
N        1.58976511       0.87192730      -0.48033272
N        1.33689394      -0.39381703      -0.89730395
N        0.82633865      -1.00446693       0.26361924
H       -0.27481608      -0.13275447      -1.32955631
H       -1.79078944      -1.10859803      -0.07361146
H       -2.07247288       0.58699846       0.41011103
H        0.52763430       2.15564344       0.76981052
H        0.51627765      -1.95032471       0.10881375
11
Frame=9 idx=004115 GeodesicLength=0.5678867799620898 rxn_smarts="[C:1]([c:2]1[c:3]([H:10])[n:4][n:5][n:6]1[H:11])([H:7])([H:8])[H:9]>>[C:1](=[C:2]1[C:3]([H:10])=[N:4][N:5]([H:7])[N:6]1[H:11])([H:8])[H:9]"
C       -1.34634886      -0.12270989       0.05047685
C       -0.07433162      -0.02891227       0.67395012
C        0.75107248       1.13331681       0.49314471
N        1.60953346       0.86491624      -0.46688879
N        1.34643775      -0.39355858      -0.89274441
N        0.82365959      -1.00222026       0.26308621
H       -0.27958427      -0.12361459      -1.35607575
H       -1.80001676      -1.10260472      -0.07962728
H       -2.08184523       0.57322275       0.44316546
H        0.52330653       2.15607173       0.75299445
H        0.52811692      -1.95390722       0.11851843
11
Frame=10 idx=004115 GeodesicLength=0.630802435524647 rxn_smarts="[C:1]([c:2]1[c:3]([H:10])[n:4][n:5][n:6]1[H:11])([H:7])([H:8])[H:9]>>[C:1](=[C:2]1[C:3]([H:10])=[N:4][N:5]([H:7])[N:6]1[H:11])([H:8])[H:9]"
C       -1.35577157      -0.11647763       0.04610035
C       -0.07967558      -0.02600630       0.66714816
C        0.75473177       1.13085721       0.49380024
N        1.62905945       0.85770997      -0.45308861
N        1.35579039      -0.39322683      -0.88816076
N        0.82081939      -0.99995382       0.26242023
H       -0.28474932      -0.11392884      -1.38296787
H       -1.80926252      -1.09637641      -0.08588700
H       -2.09065086       0.55836106       0.47586971
H        0.51954065       2.15636091       0.73593560
H        0.54016821      -1.95731932       0.12882994
11
Frame=11 idx=004115 GeodesicLength=0.6936917250895548 rxn_smarts="[C:1]([c:2]1[c:3]([H:10])[n:4][n:5][n:6]1[H:11])([H:7])([H:8])[H:9]>>[C:1](=[C:2]1[C:3]([H:10])=[N:4][N:5]([H:7])[N:6]1[H:11])([H:8])[H:9]"
C       -1.36544224      -0.11000307       0.04215093
C       -0.08502746      -0.02301896       0.66029018
C        0.75831071       1.12841381       0.49445067
N        1.64832803       0.85030469      -0.43894595
N        1.36496104      -0.39282793      -0.88355554
N        0.81782065      -0.99767428       0.26161225
H       -0.29033519      -0.10368540      -1.41025431
H       -1.81853431      -1.08992504      -0.09238884
H       -2.09888593       0.54246638       0.50819043
H        0.51633769       2.15649412       0.71866060
H        0.55246699      -1.96054432       0.13978958
11
Frame=12 idx=004115 GeodesicLength=0.7565564053021225 rxn_smarts="[C:1]([c:2]1[c:3]([H:10])[n:4][n:5][n:6]1[H:11])([H:7])([H:8])[H:9]>>[C:1](=[C:2]1[C:3]([H:10])=[N:4][N:5]([H:7])[N:6]1[H:11])([H:8])[H:9]"
C       -1.37536307      -0.10329330       0.03864799
C       -0.09038739      -0.01995954       0.65337365
C        0.76181317       1.12597473       0.49509588
N        1.66733536       0.84268231      -0.42445415
N        1.37396268      -0.39236697      -0.87892717
N        0.81465759      -0.99539589       0.26064928
H       -0.29636528      -0.09285415      -1.43795181
H       -1.82784093      -1.08323989      -0.09914463
H       -2.10653654       0.52554686       0.54012312
H        0.51368220       2.15647043       0.70115115
H        0.56504221      -1.96356458       0.15143669
11
Frame=13 idx=004115 GeodesicLength=0.8194025670520867 rxn_smarts="[C:1]([c:2]1[c:3]([H:10])[n:4][n:5][n:6]1[H:11])([H:7])([H:8])[H:9]>>[C:1](=[C:2]1[C:3]([H:10])=[N:4][N:5]([H:7])[N:6]1[H:11])([H:8])[H:9]"
C       -1.38553764      -0.09636381       0.03560963
C       -0.09575552      -0.01683665       0.64638868
C        0.76523803       1.12353035       0.49572953
N        1.68607137       0.83483634      -0.40962308
N        1.38280984      -0.39185269      -0.87427655
N        0.81132943      -0.99312818       0.25951796
H       -0.30286186      -0.08141759      -1.46608840
H       -1.83719440      -1.07632760      -0.10615316
H       -2.11360253       0.50764650       0.57164801
H        0.51157034       2.15627115       0.68342825
H        0.57793293      -1.96635782       0.16381913
11
Frame=14 idx=004115 GeodesicLength=0.8822291644553834 rxn_smarts="[C:1]([c:2]1[c:3]([H:10])[n:4][n:5][n:6]1[H:11])([H:7])([H:8])[H:9]>>[C:1](=[C:2]1[C:3]([H:10])=[N:4][N:5]([H:7])[N:6]1[H:11])([H:8])[H:9]"
C       -1.39596869      -0.08921631       0.03304859
C       -0.10113458      -0.01365712       0.63932767
C        0.76858900       1.12106931       0.49634757
N        1.70453238       0.82674601      -0.39444670
N        1.39151898      -0.39129615      -0.86959854
N        0.80782661      -0.99088635       0.25820551
H       -0.30984864      -0.06933252      -1.49468416
H       -1.84660577      -1.06916404      -0.11343501
H       -2.12007216       0.48874541       0.60277574
H        0.50999272       2.15588937       0.66546787
H        0.59117015      -1.96889761       0.17699146
11
Frame=15 idx=004115 GeodesicLength=0.9450375455481088 rxn_smarts="[C:1]([c:2]1[c:3]([H:10])[n:4][n:5][n:6]1[H:11])([H:7])([H:8])[H:9]>>[C:1](=[C:2]1[C:3]([H:10])=[N:4][N:5]([H:7])[N:6]1[H:11])([H:8])[H:9]"
C       -1.40666044      -0.08186159       0.03098077
C       -0.10652584      -0.01043119       0.63217770
C        0.77186683       1.11857826       0.49694432
N        1.72271037       0.81839999      -0.37893183
N        1.40010528      -0.39070959      -0.86489429
N        0.80414368      -0.98868436       0.25669303
H       -0.31734971      -0.05656912      -1.52376877
H       -1.85608965      -1.06174519      -0.12099754
H       -2.12594273       0.46886737       0.63349647
H        0.50894458       2.15530557       0.64728268
H        0.60479762      -1.97115015       0.19101746
11
Frame=16 idx=004115 GeodesicLength=1.0078266552967885 rxn_smarts="[C:1]([c:2]1[c:3]([H:10])[n:4][n:5][n:6]1[H:11])([H:7])([H:8])[H:9]>>[C:1](=[C:2]1[C:3]([H:10])=[N:4][N:5]([H:7])[N:6]1[H:11])([H:8])[H:9]"
C       -1.41761740      -0.07430248       0.02942423
C       -0.11193162      -0.00716925       0.62492757
C        0.77507607       1.11604112       0.49751731
N        1.74060349       0.80977909      -0.36307683
N        1.40858284      -0.39010859      -0.86016253
N        0.80026874      -0.98654139       0.25496065
H       -0.32539211      -0.04307777      -1.55336744
H       -1.86565866      -1.05404803      -0.12886642
H       -2.13120740       0.44799778       0.66381721
H        0.50841805       2.15450464       0.62885517
H        0.61885801      -1.97307512       0.20597107
