14
Frame=0 idx=001435 GeodesicLength=0.0 rxn_smarts="[C:1]([C@@:2]([O:3][H:11])([C:4](=[O:5])[C:6]([H:12])([H:13])[H:14])[H:10])([H:7])([H:8])[H:9]>>[C:1]([C@@:2]([O:3][H:11])([C-:4]=[O+:5][C:6]([H:12])([H:13])[H:14])[H:10])([H:7])([H:8])[H:9]"
C        1.19691686      -0.73270501      -1.07266081
C        0.98778154       0.20833877       0.09515316
O        0.81462872       1.52209535      -0.38296221
C       -0.10810174      -0.25596015       1.04262192
O       -0.74382896       0.73469058       1.58497360
C       -1.83832460      -0.14258214       0.57624551
H        1.31542763      -1.75586970      -0.71424500
H        2.08580485      -0.44882224      -1.63559348
H        0.34463684      -0.69268448      -1.75468765
H        1.87760288       0.15032165       0.75124294
H        0.34592923       2.00751353       0.30696236
H       -1.54810049      -0.48488346      -0.42230135
H       -2.40248788       0.78291119       0.44799994
H       -2.32788485      -0.89236387       1.17725110
14
Frame=1 idx=001435 GeodesicLength=0.05997579752320053 rxn_smarts="[C:1]([C@@:2]([O:3][H:11])([C:4](=[O:5])[C:6]([H:12])([H:13])[H:14])[H:10])([H:7])([H:8])[H:9]>>[C:1]([C@@:2]([O:3][H:11])([C-:4]=[O+:5][C:6]([H:12])([H:13])[H:14])[H:10])([H:7])([H:8])[H:9]"
C        1.19992022      -0.73429046      -1.07011401
C        0.99636932       0.21073640       0.09598019
O        0.84954683       1.52658444      -0.38404723
C       -0.11264336      -0.23297926       1.03519656
O       -0.74701554       0.76360398       1.55967542
C       -1.84751745      -0.14852426       0.58080121
H        1.30007342      -1.75942778      -0.71181137
H        2.09730481      -0.46276179      -1.62561174
H        0.35368821      -0.68123195      -1.75861560
H        1.88031665       0.13745496       0.75837862
H        0.36801852       2.01703145       0.29323987
H       -1.58120708      -0.45716297      -0.43481367
H       -2.45687183       0.75233827       0.49183372
H       -2.29998272      -0.93137105       1.16990803
14
Frame=2 idx=001435 GeodesicLength=0.11952138674930995 rxn_smarts="[C:1]([C@@:2]([O:3][H:11])([C:4](=[O:5])[C:6]([H:12])([H:13])[H:14])[H:10])([H:7])([H:8])[H:9]>>[C:1]([C@@:2]([O:3][H:11])([C-:4]=[O+:5][C:6]([H:12])([H:13])[H:14])[H:10])([H:7])([H:8])[H:9]"
C        1.20241351      -0.73568980      -1.06732587
C        1.00500521       0.21335523       0.09708686
O        0.88601576       1.53100362      -0.38458569
C       -0.11748311      -0.20861861       1.02748373
O       -0.75158722       0.79415398       1.53159392
C       -1.85661401      -0.15490001       0.58506069
H        1.28342354      -1.76256610      -0.70923539
H        2.10830225      -0.47727089      -1.61521467
H        0.36249658      -0.66911494      -1.76222984
H        1.88233247       0.12408651       0.76620671
H        0.39166368       2.02708798       0.27909213
H       -1.61618247      -0.42915302      -0.44637252
H       -2.50979768       0.71774139       0.53825870
H       -2.26998852      -0.97011534       1.16018124
14
Frame=3 idx=001435 GeodesicLength=0.17866091300893902 rxn_smarts="[C:1]([C@@:2]([O:3][H:11])([C:4](=[O:5])[C:6]([H:12])([H:13])[H:14])[H:10])([H:7])([H:8])[H:9]>>[C:1]([C@@:2]([O:3][H:11])([C-:4]=[O+:5][C:6]([H:12])([H:13])[H:14])[H:10])([H:7])([H:8])[H:9]"
C        1.20437035      -0.73682804      -1.06430600
C        1.01363381       0.21619047       0.09851107
O        0.92405657       1.53529770      -0.38442989
C       -0.12268273      -0.18285805       1.01941918
O       -0.75764466       0.82631632       1.50038271
C       -1.86560862      -0.16173943       0.58904497
H        1.26543181      -1.76518557      -0.70658367
H        2.11875718      -0.49226475      -1.60436723
H        0.37107629      -0.65622816      -1.76554869
H        1.88349425       0.11017622       0.77479957
H        0.41688309       2.03763305       0.26458392
H       -1.65326891      -0.40138464      -0.45673109
H       -2.56050723       0.67912436       0.58708278
H       -2.23799117      -1.00824947       1.14814238
14
Frame=4 idx=001435 GeodesicLength=0.23745809532595716 rxn_smarts="[C:1]([C@@:2]([O:3][H:11])([C:4](=[O:5])[C:6]([H:12])([H:13])[H:14])[H:10])([H:7])([H:8])[H:9]>>[C:1]([C@@:2]([O:3][H:11])([C-:4]=[O+:5][C:6]([H:12])([H:13])[H:14])[H:10])([H:7])([H:8])[H:9]"
C        1.20579602      -0.73762766      -1.06108173
C        1.02220215       0.21923034       0.10029219
O        0.96369395       1.53940687      -0.38340569
C       -0.12831816      -0.15570542       1.01091667
O       -0.76527519       0.86001261       1.46567282
C       -1.87451360      -0.16906358       0.59279078
H        1.24607511      -1.76719111      -0.70395541
H        2.12867678      -0.50764400      -1.59303314
H        0.37949276      -0.64245905      -1.76862736
H        1.88363024       0.09568234       0.78424130
H        0.44363508       2.04859780       0.24976837
H       -1.69273527      -0.37447867      -0.46564778
H       -2.60822126       0.63665027       0.63812139
H       -2.20413862      -1.04541074       1.13394760
14
Frame=5 idx=001435 GeodesicLength=0.2958995859874396 rxn_smarts="[C:1]([C@@:2]([O:3][H:11])([C:4](=[O:5])[C:6]([H:12])([H:13])[H:14])[H:10])([H:7])([H:8])[H:9]>>[C:1]([C@@:2]([O:3][H:11])([C-:4]=[O+:5][C:6]([H:12])([H:13])[H:14])[H:10])([H:7])([H:8])[H:9]"
C        1.20669525      -0.73798865      -1.05768270
C        1.03062745       0.22244092       0.10246182
O        1.00482536       1.54324372      -0.38130069
C       -0.13444355      -0.12720093       1.00184922
O       -0.77455071       0.89508551       1.42700607
C       -1.88329295      -0.17690190       0.59634688
H        1.22536910      -1.76846220      -0.70148211
H        2.13803798      -0.52327193      -1.58114496
H        0.38781277      -0.62766052      -1.77152398
H        1.88253941       0.08054031       0.79459964
H        0.47190100       2.05985849       0.23479269
H       -1.73479825      -0.34917437      -0.47286302
H       -2.65212111       0.59066534       0.69102980
H       -2.16860175      -1.08117379       1.11791135
14
Frame=6 idx=001435 GeodesicLength=0.35408986433482215 rxn_smarts="[C:1]([C@@:2]([O:3][H:11])([C:4](=[O:5])[C:6]([H:12])([H:13])[H:14])[H:10])([H:7])([H:8])[H:9]>>[C:1]([C@@:2]([O:3][H:11])([C-:4]=[O+:5][C:6]([H:12])([H:13])[H:14])[H:10])([H:7])([H:8])[H:9]"
C        1.20716385      -0.73782161      -1.05419331
C        1.03885981       0.22578591       0.10505155
O        1.04745572       1.54673733      -0.37787599
C       -0.14117067      -0.09743760       0.99206759
O       -0.78552222       0.93129839       1.38395972
C       -1.89200683      -0.18524839       0.59978205
H        1.20338764      -1.76890694      -0.69936441
H        2.14696441      -0.53898546      -1.56868712
H        0.39623689      -0.61170805      -1.77438161
H        1.88000973       0.06469736       0.80596446
H        0.50154512       2.07130278       0.21973474
H       -1.77974436      -0.32632214      -0.47814040
H       -2.69146153       0.54173622       0.74561926
H       -2.13171755      -1.11512780       1.10046347
14
Frame=7 idx=001435 GeodesicLength=0.41205598173686475 rxn_smarts="[C:1]([C@@:2]([O:3][H:11])([C:4](=[O:5])[C:6]([H:12])([H:13])[H:14])[H:10])([H:7])([H:8])[H:9]>>[C:1]([C@@:2]([O:3][H:11])([C-:4]=[O+:5][C:6]([H:12])([H:13])[H:14])[H:10])([H:7])([H:8])[H:9]"
C        1.20730809      -0.73702354      -1.05068706
C        1.04682734       0.22920053       0.10808453
O        1.09147213       1.54977526      -0.37285816
C       -0.14858435      -0.06655093       0.98137731
O       -0.79819776       0.96830466       1.33602812
C       -1.90067174      -0.19407954       0.60317343
H        1.18025233      -1.76841013      -0.69782079
H        2.15556384      -0.55459558      -1.55560000
H        0.40498552      -0.59445729      -1.77732410
H        1.87580291       0.04808078       0.81839635
H        0.53237984       2.08274524       0.20469036
H       -1.82778396      -0.30671563      -0.48124427
H       -2.72552846       0.49060529       0.80167621
H       -2.09382576      -1.14687913       1.08210807
14
Frame=8 idx=001435 GeodesicLength=0.4698632044628961 rxn_smarts="[C:1]([C@@:2]([O:3][H:11])([C:4](=[O:5])[C:6]([H:12])([H:13])[H:14])[H:10])([H:7])([H:8])[H:9]>>[C:1]([C@@:2]([O:3][H:11])([C-:4]=[O+:5][C:6]([H:12])([H:13])[H:14])[H:10])([H:7])([H:8])[H:9]"
C        1.20730409      -0.73551569      -1.04728030
C        1.05448444       0.23261051       0.11158606
O        1.13674506       1.55226337      -0.36593432
C       -0.15677033      -0.03472414       0.96958181
O       -0.81255170       1.00566577       1.28274533
C       -1.90936234      -0.20333508       0.60661714
H        1.15616766      -1.76690110      -0.69713647
H        2.16403910      -0.56990683      -1.54186285
H        0.41435191      -0.57580306      -1.78053581
H        1.86971050       0.03063396       0.83195847
H        0.56411449       2.09399821       0.18973309
H       -1.87912592      -0.29110739      -0.48194452
H       -2.75373951       0.43820905       0.85906101
H       -2.05536746      -1.17608755       1.06341137
14
Frame=9 idx=001435 GeodesicLength=0.52733174719081 rxn_smarts="[C:1]([C@@:2]([O:3][H:11])([C:4](=[O:5])[C:6]([H:12])([H:13])[H:14])[H:10])([H:7])([H:8])[H:9]>>[C:1]([C@@:2]([O:3][H:11])([C-:4]=[O+:5][C:6]([H:12])([H:13])[H:14])[H:10])([H:7])([H:8])[H:9]"
C        1.20728264      -0.73314914      -1.04406804
C        1.06171191       0.23589004       0.11555727
O        1.18291695       1.55406238      -0.35673626
C       -0.16575793      -0.00224309       0.95642415
O       -0.82845053       1.04272712       1.22354117
C       -1.91799106      -0.21294860       0.61021321
H        1.13133766      -1.76423295      -0.69764028
H        2.17247576      -0.58462233      -1.52738085
H        0.42461157      -0.55552669      -1.78413842
H        1.86144152       0.01223448       0.84662561
H        0.59641578       2.10474201       0.17502567
H       -1.93370140      -0.28031472      -0.47992823
H       -2.77547685       0.38574351       0.91726317
H       -2.01681602      -1.20236204       1.04524183
14
Frame=10 idx=001435 GeodesicLength=0.5845269334006702 rxn_smarts="[C:1]([C@@:2]([O:3][H:11])([C:4](=[O:5])[C:6]([H:12])([H:13])[H:14])[H:10])([H:7])([H:8])[H:9]>>[C:1]([C@@:2]([O:3][H:11])([C-:4]=[O+:5][C:6]([H:12])([H:13])[H:14])[H:10])([H:7])([H:8])[H:9]"
C        1.20757938      -0.72992482      -1.04121383
C        1.06848849       0.23892600       0.12000478
O        1.22965643       1.55508640      -0.34496903
C       -0.17561507       0.03051342       0.94173316
O       -0.84570137       1.07873487       1.15822499
C       -1.92675099      -0.22272076       0.61407672
H        1.10630473      -1.76043874      -0.69965685
H        2.18123139      -0.59846743      -1.51225127
H        0.43617757      -0.53375019      -1.78833386
H        1.85085972      -0.00707749       0.86238667
H        0.62870137       2.11475302       0.16056122
H       -1.99164366      -0.27464779      -0.47494286
H       -2.79044402       0.33453410       0.97632777
H       -1.97884398      -1.22552059       1.02805240
14
Frame=11 idx=001435 GeodesicLength=0.6413290666344801 rxn_smarts="[C:1]([C@@:2]([O:3][H:11])([C:4](=[O:5])[C:6]([H:12])([H:13])[H:14])[H:10])([H:7])([H:8])[H:9]>>[C:1]([C@@:2]([O:3][H:11])([C-:4]=[O+:5][C:6]([H:12])([H:13])[H:14])[H:10])([H:7])([H:8])[H:9]"
C        1.20847189      -0.72582157      -1.03880674
C        1.07473019       0.24156300       0.12491377
O        1.27634157       1.55522023      -0.33036300
C       -0.18630991       0.06306222       0.92533788
O       -0.86396061       1.11272702       1.08669363
C       -1.93566999      -0.23241256       0.61829960
H        1.08163043      -1.75552288      -0.70344893
H        2.19053232      -0.61112530      -1.49646866
H        0.44938842      -0.51056618      -1.79319895
H        1.83782488      -0.02727359       0.87912334
H        0.66025515       2.12368516       0.14628433
H       -2.05283265      -0.27405970      -0.46664909
H       -2.79835560       0.28596003       1.03606307
H       -1.94204608      -1.24543588       1.01221975
14
Frame=12 idx=001435 GeodesicLength=0.6977136743590271 rxn_smarts="[C:1]([C@@:2]([O:3][H:11])([C:4](=[O:5])[C:6]([H:12])([H:13])[H:14])[H:10])([H:7])([H:8])[H:9]>>[C:1]([C@@:2]([O:3][H:11])([C-:4]=[O+:5][C:6]([H:12])([H:13])[H:14])[H:10])([H:7])([H:8])[H:9]"
C        1.21034356      -0.72095604      -1.03691887
C        1.08040743       0.24366321       0.13025565
O        1.32220613       1.55444256      -0.31279451
C       -0.19776480       0.09481560       0.90720238
O       -0.88277494       1.14365061       1.00940756
C       -1.94490023      -0.24168900       0.62296747
H        1.05812580      -1.74967080      -0.70917637
H        2.20073251      -0.62232156      -1.48012209
H        0.46458020      -0.48637212      -1.79875908
H        1.82239506      -0.04815100       0.89664597
H        0.69015071       2.13126040       0.13193019
H       -2.11719282      -0.27777359      -0.45468802
H       -2.79917565       0.24129338       1.09649079
H       -1.90713297      -1.26219164       0.99755894
14
Frame=13 idx=001435 GeodesicLength=0.7534343320536732 rxn_smarts="[C:1]([C@@:2]([O:3][H:11])([C:4](=[O:5])[C:6]([H:12])([H:13])[H:14])[H:10])([H:7])([H:8])[H:9]>>[C:1]([C@@:2]([O:3][H:11])([C-:4]=[O+:5][C:6]([H:12])([H:13])[H:14])[H:10])([H:7])([H:8])[H:9]"
C        1.21336175      -0.71528544      -1.03555213
C        1.08535645       0.24504647       0.13596415
O        1.36626423       1.55267630      -0.29220133
C       -0.20982093       0.12515534       0.88726071
O       -0.90156070       1.17034811       0.92669129
C       -1.95424586      -0.25028241       0.62811950
H        1.03631444      -1.74286445      -0.71696543
H        2.21186635      -0.63168229      -1.46313834
H        0.48194714      -0.46125007      -1.80496602
H        1.80449323      -0.06966228       0.91468318
H        0.71767728       2.13704288       0.11744579
H       -2.18418843      -0.28517483      -0.43862677
H       -2.79280025       0.20168823       1.15685392
H       -1.87466471      -1.27575555       0.98443148
14
Frame=14 idx=001435 GeodesicLength=0.8085787925858549 rxn_smarts="[C:1]([C@@:2]([O:3][H:11])([C:4](=[O:5])[C:6]([H:12])([H:13])[H:14])[H:10])([H:7])([H:8])[H:9]>>[C:1]([C@@:2]([O:3][H:11])([C-:4]=[O+:5][C:6]([H:12])([H:13])[H:14])[H:10])([H:7])([H:8])[H:9]"
C        1.21801973      -0.70924404      -1.03464568
C        1.08962648       0.24566592       0.14192220
O        1.40734962       1.55011949      -0.26910980
C       -0.22227833       0.15329785       0.86577244
O       -0.91967164       1.19183379       0.84052874
C       -1.96408471      -0.25769939       0.63372661
H        1.01758457      -1.73568116      -0.72647281
H        2.22436789      -0.63901026      -1.44580333
H        0.50158051      -0.43639718      -1.81162558
H        1.78468945      -0.09111996       0.93285838
H        0.74181700       2.14096406       0.10240999
H       -2.25386920      -0.29389337      -0.41818007
H       -2.77965302       0.16775454       1.21738838
H       -1.84547835      -1.28659029       0.97123052
14
Frame=15 idx=001435 GeodesicLength=0.8631942186720807 rxn_smarts="[C:1]([C@@:2]([O:3][H:11])([C:4](=[O:5])[C:6]([H:12])([H:13])[H:14])[H:10])([H:7])([H:8])[H:9]>>[C:1]([C@@:2]([O:3][H:11])([C-:4]=[O+:5][C:6]([H:12])([H:13])[H:14])[H:10])([H:7])([H:8])[H:9]"
C        1.22448525      -0.70302779      -1.03406293
C        1.09316629       0.24549062       0.14801426
O        1.44457694       1.54694132      -0.24400460
C       -0.23494539       0.17875239       0.84289678
O       -0.93662209       1.20747471       0.75219884
C       -1.97443023      -0.26367844       0.63974630
H        1.00255948      -1.72840120      -0.73736943
H        2.23833881      -0.64419491      -1.42808841
H        0.52345208      -0.41236142      -1.81855355
H        1.76331475      -0.11216441       0.95086441
H        0.76212000       2.14290807       0.08658028
H       -2.32599881      -0.30211849      -0.39296623
H       -2.75999531       0.13946104       1.27774328
H       -1.82002177      -1.29508149       0.95700100
14
Frame=16 idx=001435 GeodesicLength=0.9173653553228954 rxn_smarts="[C:1]([C@@:2]([O:3][H:11])([C:4](=[O:5])[C:6]([H:12])([H:13])[H:14])[H:10])([H:7])([H:8])[H:9]>>[C:1]([C@@:2]([O:3][H:11])([C-:4]=[O+:5][C:6]([H:12])([H:13])[H:14])[H:10])([H:7])([H:8])[H:9]"
C        1.23288775      -0.69689449      -1.03363287
C        1.09596874       0.24456578       0.15410366
O        1.47723498       1.54339643      -0.21757519
C       -0.24765675       0.20114730       0.81883739
O       -0.95207244       1.21697840       0.66317777
C       -1.98538234      -0.26800363       0.64611849
H        0.99182495      -1.72138190      -0.74916515
H        2.25386410      -0.64722670      -1.41000247
H        0.54741853      -0.38981534      -1.82554449
H        1.74081719      -0.13234860       0.96842107
H        0.77837074       2.14290968       0.06979227
H       -2.40038514      -0.30789720      -0.36262250
H       -2.73418898       0.11624221       1.33764094
H       -1.79870133      -1.30167193       0.94045108
