11
Frame=0 idx=003420 GeodesicLength=0.0 rxn_smarts="[C:1]([C:2](=[O:3])[N:4]([C:5](=[O:6])[H:11])[H:10])([H:7])([H:8])[H:9]>>[C:1]1([H:8])([H:9])/[C:2](=[N:4]/[H:10])[O:3]1.[C:5](=[O:6])([H:7])[H:11]"
C       -1.09414974       0.24047001      -0.25633829
C       -0.45319389       0.29903064       1.06641884
O       -1.46267985       0.55107701       1.76606694
N        0.80681821       0.10471313       1.20854297
C        1.12743774      -0.50896807      -1.18047726
O        1.25870101      -1.63583674      -1.45365660
H       -0.00668870      -0.02759754      -1.15647498
H       -1.43386277       1.17445682      -0.69562242
H       -1.68719158      -0.64084986      -0.48448110
H        1.09485079       0.15198233       2.18092244
H        1.84995877       0.29152228      -0.99490055
11
Frame=1 idx=003420 GeodesicLength=0.11202545739694993 rxn_smarts="[C:1]([C:2](=[O:3])[N:4]([C:5](=[O:6])[H:11])[H:10])([H:7])([H:8])[H:9]>>[C:1]1([H:8])([H:9])/[C:2](=[N:4]/[H:10])[O:3]1.[C:5](=[O:6])([H:7])[H:11]"
C       -1.11648911       0.24006992      -0.25170013
C       -0.45257810       0.30258467       1.05876497
O       -1.44928724       0.61177324       1.75331121
N        0.80879291       0.09599834       1.18623200
C        1.14635282      -0.50041894      -1.15649612
O        1.29765475      -1.62849904      -1.42441109
H       -0.01908484      -0.02465795      -1.17018435
H       -1.47327129       1.16422531      -0.69737726
H       -1.70658403      -0.64827985      -0.46039302
H        1.09880598       0.07808802       2.15881529
H        1.86568815       0.30911627      -0.99656151
11
Frame=2 idx=003420 GeodesicLength=0.22402968345456642 rxn_smarts="[C:1]([C:2](=[O:3])[N:4]([C:5](=[O:6])[H:11])[H:10])([H:7])([H:8])[H:9]>>[C:1]1([H:8])([H:9])/[C:2](=[N:4]/[H:10])[O:3]1.[C:5](=[O:6])([H:7])[H:11]"
C       -1.13874050       0.23947417      -0.24644209
C       -0.45186965       0.30667429       1.05110381
O       -1.43386607       0.67159568       1.73906988
N        0.81040066       0.08721273       1.16487336
C        1.16552234      -0.49122828      -1.13314258
O        1.33570768      -1.62025451      -1.39609453
H       -0.03130029      -0.02185525      -1.18367513
H       -1.51272936       1.15326210      -0.69847443
H       -1.72591535      -0.65556211      -0.43493968
H        1.10031255       0.00534214       2.13402501
H        1.88247799       0.32533904      -0.99630363
11
Frame=3 idx=003420 GeodesicLength=0.33608095292874846 rxn_smarts="[C:1]([C:2](=[O:3])[N:4]([C:5](=[O:6])[H:11])[H:10])([H:7])([H:8])[H:9]>>[C:1]1([H:8])([H:9])/[C:2](=[N:4]/[H:10])[O:3]1.[C:5](=[O:6])([H:7])[H:11]"
C       -1.16093783       0.23870661      -0.24059547
C       -0.45113133       0.31072637       1.04346680
O       -1.41661676       0.73005613       1.72335688
N        0.81146132       0.07700270       1.14449930
C        1.18498084      -0.48162570      -1.11048507
O        1.37273341      -1.61129384      -1.36938863
H       -0.04337636      -0.01899604      -1.19711391
H       -1.55207887       1.14184968      -0.69861593
H       -1.74538853      -0.66245984      -0.40847916
H        1.09984215      -0.06400377       2.10714124
H        1.90051196       0.34003770      -0.99378604
11
Frame=4 idx=003420 GeodesicLength=0.44823949027566734 rxn_smarts="[C:1]([C:2](=[O:3])[N:4]([C:5](=[O:6])[H:11])[H:10])([H:7])([H:8])[H:9]>>[C:1]1([H:8])([H:9])/[C:2](=[N:4]/[H:10])[O:3]1.[C:5](=[O:6])([H:7])[H:11]"
C       -1.18314463       0.23772798      -0.23415947
C       -0.45017978       0.31526050       1.03569047
O       -1.39753094       0.78755344       1.70601742
N        0.81207107       0.06543237       1.12494725
C        1.20481326      -0.47161017      -1.08854325
O        1.40891540      -1.60166582      -1.34430221
H       -0.05544014      -0.01602446      -1.21065855
H       -1.59166015       1.12976496      -0.69794950
H       -1.76490841      -0.66915871      -0.38064729
H        1.09724332      -0.13080984       2.07873177
H        1.91982101       0.35352976      -0.98912665
11
Frame=5 idx=003420 GeodesicLength=0.5603136911990284 rxn_smarts="[C:1]([C:2](=[O:3])[N:4]([C:5](=[O:6])[H:11])[H:10])([H:7])([H:8])[H:9]>>[C:1]1([H:8])([H:9])/[C:2](=[N:4]/[H:10])[O:3]1.[C:5](=[O:6])([H:7])[H:11]"
C       -1.20534715       0.23659945      -0.22721012
C       -0.44925538       0.31911916       1.02783262
O       -1.37678213       0.84315240       1.68706810
N        0.81205611       0.05220167       1.10596308
C        1.22495015      -0.46144351      -1.06726077
O        1.44400768      -1.59169540      -1.32099782
H       -0.06754139      -0.01278255      -1.22441235
H       -1.63099888       1.11753775      -0.69597707
H       -1.78474000      -0.67527661      -0.35219788
H        1.09322538      -0.19305035       2.04940240
H        1.94042560       0.36563799      -0.98221019
11
Frame=6 idx=003420 GeodesicLength=0.6724498962925243 rxn_smarts="[C:1]([C:2](=[O:3])[N:4]([C:5](=[O:6])[H:11])[H:10])([H:7])([H:8])[H:9]>>[C:1]1([H:8])([H:9])/[C:2](=[N:4]/[H:10])[O:3]1.[C:5](=[O:6])([H:7])[H:11]"
C       -1.22764074       0.23524306      -0.21969596
C       -0.44803042       0.32344763       1.01963957
O       -1.35430211       0.89776788       1.66624255
N        0.81163353       0.03779331       1.08743120
C        1.24555482      -0.45095877      -1.04663319
O        1.47838489      -1.58125620      -1.29925791
H       -0.07984344      -0.00930756      -1.23850812
H       -1.67070921       1.10465768      -0.69306311
H       -1.80465647      -0.68119684      -0.32229161
H        1.08725109      -0.25303705       2.01938172
H        1.96235806       0.37684686      -0.97324515
11
Frame=7 idx=003420 GeodesicLength=0.7845970769357411 rxn_smarts="[C:1]([C:2](=[O:3])[N:4]([C:5](=[O:6])[H:11])[H:10])([H:7])([H:8])[H:9]>>[C:1]1([H:8])([H:9])/[C:2](=[N:4]/[H:10])[O:3]1.[C:5](=[O:6])([H:7])[H:11]"
C       -1.25005564       0.23365490      -0.21161516
C       -0.44655695       0.32793610       1.01106922
O       -1.33012685       0.95129801       1.64339219
N        0.81077018       0.02230689       1.06918052
C        1.26666473      -0.44019961      -1.02658908
O        1.51212144      -1.57043451      -1.27901067
H       -0.09245986      -0.00560760      -1.25302933
H       -1.71070697       1.09124286      -0.68902775
H       -1.82474754      -0.68682157      -0.29101036
H        1.07949127      -0.31063769       1.98886056
H        1.98560619       0.38726221      -0.96222015
11
Frame=8 idx=003420 GeodesicLength=0.8967711039910784 rxn_smarts="[C:1]([C:2](=[O:3])[N:4]([C:5](=[O:6])[H:11])[H:10])([H:7])([H:8])[H:9]>>[C:1]1([H:8])([H:9])/[C:2](=[N:4]/[H:10])[O:3]1.[C:5](=[O:6])([H:7])[H:11]"
C       -1.27263492       0.23182702      -0.20293360
C       -0.44480461       0.33265523       1.00203160
O       -1.30431067       1.00385490       1.61832996
N        0.80948967       0.00592860       1.05108016
C        1.28836965      -0.42914611      -1.00707230
O        1.54538857      -1.55925760      -1.26014563
H       -0.10550923      -0.00173028      -1.26806358
H       -1.75107558       1.07729018      -0.68379657
H       -1.84501088      -0.69215490      -0.25816913
H        1.06990707      -0.36631971       1.95789231
H        2.01019092       0.39705267      -0.94915322
11
Frame=9 idx=003420 GeodesicLength=1.0089151351437393 rxn_smarts="[C:1]([C:2](=[O:3])[N:4]([C:5](=[O:6])[H:11])[H:10])([H:7])([H:8])[H:9]>>[C:1]1([H:8])([H:9])/[C:2](=[N:4]/[H:10])[O:3]1.[C:5](=[O:6])([H:7])[H:11]"
C       -1.29540838       0.22980844      -0.19369680
C       -0.44285267       0.33720058       0.99247102
O       -1.27696636       1.05485856       1.59090990
N        0.80778349      -0.01116701       1.03294654
C        1.31065400      -0.41787606      -0.98794526
O        1.57804590      -1.54781741      -1.24249831
H       -0.11912382       0.00243287      -1.28363802
H       -1.79171499       1.06299767      -0.67713980
H       -1.86550960      -0.69697677      -0.22406566
H        1.05893058      -0.41955838       1.92661255
H        2.03616184       0.40609749      -0.93395617
11
Frame=10 idx=003420 GeodesicLength=1.1210742410740595 rxn_smarts="[C:1]([C:2](=[O:3])[N:4]([C:5](=[O:6])[H:11])[H:10])([H:7])([H:8])[H:9]>>[C:1]1([H:8])([H:9])/[C:2](=[N:4]/[H:10])[O:3]1.[C:5](=[O:6])([H:7])[H:11]"
C       -1.31844010       0.22757880      -0.18383919
C       -0.44072262       0.34174321       0.98235404
O       -1.24827548       1.10457452       1.56109966
N        0.80567198      -0.02877975       1.01468494
C        1.33368781      -0.40634032      -0.96917481
O        1.61035404      -1.53613664      -1.22600682
H       -0.13338926       0.00672185      -1.29991309
H       -1.83266363       1.04840876      -0.66903325
H       -1.88630267      -0.70137667      -0.18841814
H        1.04647344      -0.47097758       1.89490915
H        2.06360648       0.41458383      -0.91666249
11
Frame=11 idx=003420 GeodesicLength=1.2333673428977592 rxn_smarts="[C:1]([C:2](=[O:3])[N:4]([C:5](=[O:6])[H:11])[H:10])([H:7])([H:8])[H:9]>>[C:1]1([H:8])([H:9])/[C:2](=[N:4]/[H:10])[O:3]1.[C:5](=[O:6])([H:7])[H:11]"
C       -1.34184834       0.22516524      -0.17332727
C       -0.43849800       0.34616625       0.97164467
O       -1.21839090       1.15290518       1.52877007
N        0.80315522      -0.04687325       0.99616332
C        1.35763181      -0.39456095      -0.95071173
O        1.64248207      -1.52428586      -1.21073671
H       -0.14843762       0.01104013      -1.31696010
H       -1.87397774       1.03366965      -0.65929443
H       -1.90756993      -0.70526574      -0.15122758
H        1.03273210      -0.52049214       1.86283267
H        2.09272133       0.42253149      -0.89715292
11
Frame=12 idx=003420 GeodesicLength=1.3454340011492132 rxn_smarts="[C:1]([C:2](=[O:3])[N:4]([C:5](=[O:6])[H:11])[H:10])([H:7])([H:8])[H:9]>>[C:1]1([H:8])([H:9])/[C:2](=[N:4]/[H:10])[O:3]1.[C:5](=[O:6])([H:7])[H:11]"
C       -1.36527701       0.22298845      -0.16250366
C       -0.43606905       0.35101207       0.95996937
O       -1.18995725       1.19619604       1.49556877
N        0.80078929      -0.06306748       0.97700057
C        1.38232109      -0.38312900      -0.93239050
O        1.67229067      -1.51352870      -1.19529431
H       -0.16387888       0.01746933      -1.33491680
H       -1.91597821       1.01927444      -0.64731622
H       -1.92778392      -0.70869224      -0.11373780
H        1.01887183      -0.56649141       1.82961826
H        2.12467144       0.42796850      -0.87599768
11
Frame=13 idx=003420 GeodesicLength=1.4574304530849915 rxn_smarts="[C:1]([C:2](=[O:3])[N:4]([C:5](=[O:6])[H:11])[H:10])([H:7])([H:8])[H:9]>>[C:1]1([H:8])([H:9])/[C:2](=[N:4]/[H:10])[O:3]1.[C:5](=[O:6])([H:7])[H:11]"
C       -1.38911794       0.22033326      -0.15075257
C       -0.43342252       0.35517728       0.94752034
O       -1.15808231       1.24057666       1.45763435
N        0.79747146      -0.08161147       0.95749672
C        1.40783360      -0.37071098      -0.91401363
O        1.70355833      -1.50100234      -1.18163614
H       -0.18112263       0.02200955      -1.35359669
H       -1.95778708       1.00434756      -0.63415505
H       -1.94904641      -0.71109755      -0.07329560
H        1.00300196      -0.61249985       1.79634594
H        2.15671354       0.43447788      -0.85154768
11
Frame=14 idx=003420 GeodesicLength=1.5696241340057524 rxn_smarts="[C:1]([C:2](=[O:3])[N:4]([C:5](=[O:6])[H:11])[H:10])([H:7])([H:8])[H:9]>>[C:1]1([H:8])([H:9])/[C:2](=[N:4]/[H:10])[O:3]1.[C:5](=[O:6])([H:7])[H:11]"
C       -1.41343329       0.21762307      -0.13827976
C       -0.43067346       0.35942967       0.93410787
O       -1.12591076       1.28289319       1.41705887
N        0.79389204      -0.10001223       0.93728880
C        1.43459520      -0.35803753      -0.89566480
O        1.73469426      -1.48842023      -1.16891351
H       -0.19961033       0.02652924      -1.37331578
H       -2.00015155       0.98956074      -0.61892187
H       -1.97053770      -0.71281763      -0.03111956
H        0.98620004      -0.65685522       1.76219950
H        2.19093554       0.44010693      -0.82443976
11
Frame=15 idx=003420 GeodesicLength=1.681850184535351 rxn_smarts="[C:1]([C:2](=[O:3])[N:4]([C:5](=[O:6])[H:11])[H:10])([H:7])([H:8])[H:9]>>[C:1]1([H:8])([H:9])/[C:2](=[N:4]/[H:10])[O:3]1.[C:5](=[O:6])([H:7])[H:11]"
C       -1.43815892       0.21486947      -0.12502538
C       -0.42779567       0.36371539       0.91956215
O       -1.09344121       1.32310295       1.37352788
N        0.78997389      -0.11832362       0.91621107
C        1.46262428      -0.34497401      -0.87719193
O        1.76577481      -1.47552038      -1.15708500
H       -0.21960582       0.03074187      -1.39414140
H       -2.04291129       0.97495502      -0.60156019
H       -1.99208461      -0.71367988       0.01305422
H        0.96843361      -0.69975092       1.72701116
H        2.22719092       0.44486410      -0.79436257
11
Frame=16 idx=003420 GeodesicLength=1.7940930743163084 rxn_smarts="[C:1]([C:2](=[O:3])[N:4]([C:5](=[O:6])[H:11])[H:10])([H:7])([H:8])[H:9]>>[C:1]1([H:8])([H:9])/[C:2](=[N:4]/[H:10])[O:3]1.[C:5](=[O:6])([H:7])[H:11]"
C       -1.46332203       0.21211072      -0.11093854
C       -0.42478924       0.36798868       0.90373028
O       -1.06075466       1.36116733       1.32682039
N        0.78569860      -0.13659131       0.89409549
C        1.49203536      -0.33141071      -0.85845434
O        1.79695438      -1.46211288      -1.14622724
H       -0.24142846       0.03428657      -1.41618569
H       -2.08602525       0.96065178      -0.58197877
H       -2.01364184      -0.71351238       0.05941338
H        0.94978193      -0.74129580       1.69063684
H        2.26549120       0.44871800      -0.76091180
