9
Frame=0 idx=005688 GeodesicLength=0.0 rxn_smarts="[O:1]([C@@:2]([C:3]#[C:4][H:9])([C:5]#[N:6])[H:8])[H:7]>>[C:5]=[N:6][H:7].[O:1]=[C:2]([C:3]#[C:4][H:9])[H:8]"
O       -1.39595035       0.27143449      -0.87451682
C       -0.27953359      -0.32831027      -0.89084759
C        0.90325214       0.11917292      -0.26965959
C        1.97503440       0.52573731       0.08063177
C       -0.98058585      -1.01235716       1.36550060
N       -1.42085908       0.00062607       1.74067115
H       -1.53208555       0.63336624       0.06435811
H       -0.18111762      -1.10761011      -1.64477027
H        2.91184547       0.89794051       0.42863268
9
Frame=1 idx=005688 GeodesicLength=0.06372525648188067 rxn_smarts="[O:1]([C@@:2]([C:3]#[C:4][H:9])([C:5]#[N:6])[H:8])[H:7]>>[C:5]=[N:6][H:7].[O:1]=[C:2]([C:3]#[C:4][H:9])[H:8]"
O       -1.39144920       0.26589967      -0.87616410
C       -0.28091274      -0.35003790      -0.88244796
C        0.90909054       0.11311231      -0.28010546
C        1.97671206       0.52929218       0.07102356
C       -0.98167567      -1.00511266       1.38874189
N       -1.43176828       0.00988807       1.74451020
H       -1.53869790       0.62977026       0.07481759
H       -0.17079666      -1.08722254      -1.67719092
H        2.90949785       0.89441063       0.43681520
9
Frame=2 idx=005688 GeodesicLength=0.12619139627851567 rxn_smarts="[O:1]([C@@:2]([C:3]#[C:4][H:9])([C:5]#[N:6])[H:8])[H:7]>>[C:5]=[N:6][H:7].[O:1]=[C:2]([C:3]#[C:4][H:9])[H:8]"
O       -1.38582836       0.26349013      -0.87859869
C       -0.28147785      -0.36865793      -0.87541370
C        0.91521361       0.10839987      -0.29029026
C        1.97915877       0.53127985       0.06339878
C       -0.98374594      -1.00004669       1.40833081
N       -1.44338562       0.01589483       1.74686179
H       -1.54521705       0.62733458       0.08532423
H       -0.16286660      -1.07077150      -1.70126890
H        2.90814905       0.89307685       0.44165593
9
Frame=3 idx=005688 GeodesicLength=0.1881119383497742 rxn_smarts="[O:1]([C@@:2]([C:3]#[C:4][H:9])([C:5]#[N:6])[H:8])[H:7]>>[C:5]=[N:6][H:7].[O:1]=[C:2]([C:3]#[C:4][H:9])[H:8]"
O       -1.38007144       0.26231230      -0.88161426
C       -0.28157874      -0.38500908      -0.86939494
C        0.92125594       0.10593085      -0.30104917
C        1.98162547       0.53454099       0.05592737
C       -0.98537367      -0.99588758       1.42592592
N       -1.45523977       0.01995627       1.74832416
H       -1.55242020       0.62521494       0.09570608
H       -0.15618547      -1.05724514      -1.71993463
H        2.90798788       0.89018646       0.44610944
9
Frame=4 idx=005688 GeodesicLength=0.24982557277797363 rxn_smarts="[O:1]([C@@:2]([C:3]#[C:4][H:9])([C:5]#[N:6])[H:8])[H:7]>>[C:5]=[N:6][H:7].[O:1]=[C:2]([C:3]#[C:4][H:9])[H:8]"
O       -1.37414926       0.26208032      -0.88497250
C       -0.28138130      -0.39979378      -0.86419017
C        0.92736020       0.10475864      -0.31260842
C        1.98439737       0.53795024       0.04821322
C       -0.98655695      -0.99227277       1.44219970
N       -1.46694050       0.02275407       1.74928894
H       -1.55991453       0.62353611       0.10611483
H       -0.15064308      -1.04593177      -1.73512484
H        2.90782803       0.88691894       0.45107923
9
Frame=5 idx=005688 GeodesicLength=0.3111944446639531 rxn_smarts="[O:1]([C@@:2]([C:3]#[C:4][H:9])([C:5]#[N:6])[H:8])[H:7]>>[C:5]=[N:6][H:7].[O:1]=[C:2]([C:3]#[C:4][H:9])[H:8]"
O       -1.36835199       0.26204570      -0.88871383
C       -0.28068895      -0.41293168      -0.85923526
C        0.93322011       0.10598665      -0.32426497
C        1.98667255       0.54365937       0.04109890
C       -0.98726713      -0.98887488       1.45758254
N       -1.47971167       0.02411871       1.74960678
H       -1.56854682       0.62163727       0.11629936
H       -0.14509747      -1.03625720      -1.74704211
H        2.90977137       0.88061606       0.45466859
9
Frame=6 idx=005688 GeodesicLength=0.37248897295374983 rxn_smarts="[O:1]([C@@:2]([C:3]#[C:4][H:9])([C:5]#[N:6])[H:8])[H:7]>>[C:5]=[N:6][H:7].[O:1]=[C:2]([C:3]#[C:4][H:9])[H:8]"
O       -1.36214871       0.26297918      -0.89248824
C       -0.27992638      -0.42536593      -0.85492208
C        0.93943274       0.10673638      -0.33683828
C        1.98981566       0.54723122       0.03351847
C       -0.98785264      -0.98583458       1.47213034
N       -1.49167784       0.02492039       1.74979786
H       -1.57661238       0.62062050       0.12677845
H       -0.14090536      -1.02794809      -1.75757196
H        2.90987490       0.87666094       0.45959545
9
Frame=7 idx=005688 GeodesicLength=0.43374312667655046 rxn_smarts="[O:1]([C@@:2]([C:3]#[C:4][H:9])([C:5]#[N:6])[H:8])[H:7]>>[C:5]=[N:6][H:7].[O:1]=[C:2]([C:3]#[C:4][H:9])[H:8]"
O       -1.35593140       0.26412509      -0.89648871
C       -0.27881282      -0.43672444      -0.85080570
C        0.94558814       0.10878853      -0.34965910
C        1.99281001       0.55166723       0.02633717
C       -0.98822841      -0.98293034       1.48616791
N       -1.50423256       0.02478740       1.74967554
H       -1.58528464       0.61969800       0.13722528
H       -0.13682477      -1.02081406      -1.76623475
H        2.91091645       0.87140259       0.46378236
9
Frame=8 idx=005688 GeodesicLength=0.494904402440033 rxn_smarts="[O:1]([C@@:2]([C:3]#[C:4][H:9])([C:5]#[N:6])[H:8])[H:7]>>[C:5]=[N:6][H:7].[O:1]=[C:2]([C:3]#[C:4][H:9])[H:8]"
O       -1.34944274       0.26589687      -0.90049423
C       -0.27760114      -0.44745837      -0.84710579
C        0.95203853       0.11063419      -0.36330180
C        1.99644843       0.55479504       0.01859600
C       -0.98834935      -0.98017906       1.49964461
N       -1.51637822       0.02410911       1.74943490
H       -1.59357923       0.61947769       0.14794781
H       -0.13370835      -1.01479412      -1.77386219
H        2.91057208       0.86751865       0.46914068
9
Frame=9 idx=005688 GeodesicLength=0.5561460543690232 rxn_smarts="[O:1]([C@@:2]([C:3]#[C:4][H:9])([C:5]#[N:6])[H:8])[H:7]>>[C:5]=[N:6][H:7].[O:1]=[C:2]([C:3]#[C:4][H:9])[H:8]"
O       -1.34288828       0.26778341      -0.90462671
C       -0.27605853      -0.45741871      -0.84347446
C        0.95851738       0.11332442      -0.37718871
C        2.00002579       0.55850097       0.01109753
C       -0.98835172      -0.97745046       1.51287592
N       -1.52925731       0.02261165       1.74899086
H       -1.60225461       0.61949387       0.15874393
H       -0.13059909      -1.00960143      -1.78026043
H        2.91086637       0.86275628       0.47384207
9
Frame=10 idx=005688 GeodesicLength=0.6174844977198483 rxn_smarts="[O:1]([C@@:2]([C:3]#[C:4][H:9])([C:5]#[N:6])[H:8])[H:7]>>[C:5]=[N:6][H:7].[O:1]=[C:2]([C:3]#[C:4][H:9])[H:8]"
O       -1.33604371       0.27010361      -0.90878294
C       -0.27425320      -0.46671139      -0.83987781
C        0.96521781       0.11627348      -0.39135689
C        2.00407086       0.56187884       0.00317962
C       -0.98828413      -0.97476700       1.52588008
N       -1.54301105       0.02016511       1.74835053
H       -1.61088675       0.62003754       0.16978836
H       -0.12783172      -1.00525616      -1.78560131
H        2.91102189       0.85827598       0.47842036
9
Frame=11 idx=005688 GeodesicLength=0.6786996746239261 rxn_smarts="[O:1]([C@@:2]([C:3]#[C:4][H:9])([C:5]#[N:6])[H:8])[H:7]>>[C:5]=[N:6][H:7].[O:1]=[C:2]([C:3]#[C:4][H:9])[H:8]"
O       -1.32901206       0.27268694      -0.91288619
C       -0.27227493      -0.47552031      -0.83640525
C        0.97215892       0.11917350      -0.40610763
C        2.00852530       0.56476286      -0.00526935
C       -0.98800117      -0.97202822       1.53860809
N       -1.55698336       0.01706200       1.74752025
H       -1.61925699       0.62118961       0.18112948
H       -0.12555765      -1.00162297      -1.79019388
H        2.91040192       0.85429658       0.48360448
9
Frame=12 idx=005688 GeodesicLength=0.7400499579720177 rxn_smarts="[O:1]([C@@:2]([C:3]#[C:4][H:9])([C:5]#[N:6])[H:8])[H:7]>>[C:5]=[N:6][H:7].[O:1]=[C:2]([C:3]#[C:4][H:9])[H:8]"
O       -1.32160875       0.27564554      -0.91698481
C       -0.26994519      -0.48371494      -0.83267362
C        0.97929684       0.12223456      -0.42047132
C        2.01334031       0.56785854      -0.01394082
C       -0.98830494      -0.96949720       1.55119042
N       -1.57239469       0.01284757       1.74641503
H       -1.62774742       0.62283918       0.19273383
H       -0.12316883      -0.99854530      -1.79373016
H        2.91053265       0.85033206       0.48746145
9
Frame=13 idx=005688 GeodesicLength=0.8015701059283068 rxn_smarts="[O:1]([C@@:2]([C:3]#[C:4][H:9])([C:5]#[N:6])[H:8])[H:7]>>[C:5]=[N:6][H:7].[O:1]=[C:2]([C:3]#[C:4][H:9])[H:8]"
O       -1.31371081       0.27919759      -0.92094810
C       -0.26739780      -0.49147056      -0.82881969
C        0.98683916       0.12479345      -0.43487297
C        2.01896124       0.57021877      -0.02344680
C       -0.98900179      -0.96713463       1.56362472
N       -1.58901314       0.00751936       1.74506176
H       -1.63579568       0.62538151       0.20483066
H       -0.12114860      -0.99609083      -1.79650991
H        2.91026743       0.84758534       0.49108034
9
Frame=14 idx=005688 GeodesicLength=0.8632264973651972 rxn_smarts="[O:1]([C@@:2]([C:3]#[C:4][H:9])([C:5]#[N:6])[H:8])[H:7]>>[C:5]=[N:6][H:7].[O:1]=[C:2]([C:3]#[C:4][H:9])[H:8]"
O       -1.30533879       0.28324300      -0.92478467
C       -0.26458659      -0.49875332      -0.82469198
C        0.99471839       0.12703237      -0.44900047
C        2.02522335       0.57229225      -0.03350282
C       -0.99032349      -0.96495395       1.57596012
N       -1.60717521       0.00095001       1.74333430
H       -1.64359805       0.62871694       0.21739120
H       -0.11923015      -0.99414671      -1.79842482
H        2.91031053       0.84561941       0.49371913
9
Frame=15 idx=005688 GeodesicLength=0.9250317597252219 rxn_smarts="[O:1]([C@@:2]([C:3]#[C:4][H:9])([C:5]#[N:6])[H:8])[H:7]>>[C:5]=[N:6][H:7].[O:1]=[C:2]([C:3]#[C:4][H:9])[H:8]"
O       -1.29643628       0.28784968      -0.92844867
C       -0.26154458      -0.50560501      -0.82026850
C        1.00299012       0.12877074      -0.46285389
C        2.03223833       0.57386840      -0.04419877
C       -0.99232563      -0.96295439       1.58822736
N       -1.62697356      -0.00695580       1.74115007
H       -1.65102370       0.63296064       0.23051199
H       -0.11748471      -0.99269183      -1.79952597
H        2.91056000       0.84475757       0.49540639
9
Frame=16 idx=005688 GeodesicLength=0.9869866522293133 rxn_smarts="[O:1]([C@@:2]([C:3]#[C:4][H:9])([C:5]#[N:6])[H:8])[H:7]>>[C:5]=[N:6][H:7].[O:1]=[C:2]([C:3]#[C:4][H:9])[H:8]"
O       -1.28697177       0.29304568      -0.93190606
C       -0.25829644      -0.51205311      -0.81552330
C        1.01168128       0.12990970      -0.47642088
C        2.04005911       0.57483152      -0.05554894
C       -0.99505566      -0.96111595       1.60046663
N       -1.64848382      -0.01628357       1.73839951
H       -1.65799766       0.63818010       0.24427701
H       -0.11594278      -0.99169593      -1.79984529
H        2.91100772       0.84518156       0.49610132
