10
Frame=0 idx=002950 GeodesicLength=0.0 rxn_smarts="[O:1]([C:2]([C:3]#[C:4][C:5]#[C:6][H:10])([H:8])[H:9])[H:7]>>[O:1]([C:2](=[C:3]=[C:4]=[C:5]=[C:6]([H:9])[H:10])[H:8])[H:7]"
O       -2.09322766      -0.11982349       0.33464303
C       -0.93779460      -0.61630621      -0.21037417
C       -0.32070504      -0.04754862      -1.33614054
C        0.81035524       0.44842883      -1.48780364
C        1.64431384       0.67009828      -0.47566632
C        1.57664684       0.37782865       0.74822260
H       -2.09755680       0.83669996       0.24479821
H       -0.93525341      -1.70164660      -0.13286696
H        0.26068038      -0.20561030       0.62642730
H        2.09254122       0.35787949       1.68876049
10
Frame=1 idx=002950 GeodesicLength=0.10427486569562273 rxn_smarts="[O:1]([C:2]([C:3]#[C:4][C:5]#[C:6][H:10])([H:8])[H:9])[H:7]>>[O:1]([C:2](=[C:3]=[C:4]=[C:5]=[C:6]([H:9])[H:10])[H:8])[H:7]"
O       -2.11771456      -0.12378022       0.31532006
C       -0.95204886      -0.62009943      -0.21036113
C       -0.32561826      -0.04280867      -1.32685594
C        0.80704088       0.45261640      -1.47428872
C        1.65724817       0.66303198      -0.47174168
C        1.60905735       0.37051229       0.75357625
H       -2.11808657       0.83347265       0.23420890
H       -0.97051057      -1.70724101      -0.16248867
H        0.26865343      -0.22831874       0.65814638
H        2.14197900       0.40261475       1.68448455
10
Frame=2 idx=002950 GeodesicLength=0.20837185991916624 rxn_smarts="[O:1]([C:2]([C:3]#[C:4][C:5]#[C:6][H:10])([H:8])[H:9])[H:7]>>[O:1]([C:2](=[C:3]=[C:4]=[C:5]=[C:6]([H:9])[H:10])[H:8])[H:7]"
O       -2.14234321      -0.12753461       0.29524209
C       -0.96658013      -0.62424236      -0.21007539
C       -0.33034530      -0.03864504      -1.31697963
C        0.80385104       0.45638118      -1.45997828
C        1.66963480       0.65725774      -0.46726415
C        1.64215887       0.36361878       0.75903489
H       -2.13847271       0.83037814       0.22324531
H       -1.00552714      -1.71202824      -0.19209000
H        0.27701831      -0.25163923       0.69083133
H        2.19060548       0.44645364       1.67803382
10
Frame=3 idx=002950 GeodesicLength=0.31234832672983115 rxn_smarts="[O:1]([C:2]([C:3]#[C:4][C:5]#[C:6][H:10])([H:8])[H:9])[H:7]>>[O:1]([C:2](=[C:3]=[C:4]=[C:5]=[C:6]([H:9])[H:10])[H:8])[H:7]"
O       -2.16736627      -0.13137046       0.27418415
C       -0.98143616      -0.62864561      -0.20950382
C       -0.33497884      -0.03486802      -1.30644844
C        0.80056569       0.46019053      -1.44479519
C        1.68216670       0.65144712      -0.46256194
C        1.67533227       0.35879389       0.76489853
H       -2.15934035       0.82711592       0.21159792
H       -1.03983845      -1.71595858      -0.22143840
H        0.28553979      -0.27484298       0.72470141
H        2.23935563       0.48813819       1.66936577
10
Frame=4 idx=002950 GeodesicLength=0.41620825957545005 rxn_smarts="[O:1]([C:2]([C:3]#[C:4][C:5]#[C:6][H:10])([H:8])[H:9])[H:7]>>[O:1]([C:2](=[C:3]=[C:4]=[C:5]=[C:6]([H:9])[H:10])[H:8])[H:7]"
O       -2.19263605      -0.13517047       0.25230407
C       -0.99671162      -0.63332462      -0.20878295
C       -0.33959960      -0.03136588      -1.29529512
C        0.79719552       0.46393763      -1.42878880
C        1.69471076       0.64582520      -0.45764627
C        1.70917288       0.35482649       0.77079845
H       -2.18042999       0.82380320       0.19958395
H       -1.07362699      -1.71908529      -0.25081091
H        0.29438298      -0.29832012       0.75967082
H        2.28754211       0.52887387       1.65896676
10
Frame=5 idx=002950 GeodesicLength=0.5200185747324672 rxn_smarts="[O:1]([C:2]([C:3]#[C:4][C:5]#[C:6][H:10])([H:8])[H:9])[H:7]>>[O:1]([C:2](=[C:3]=[C:4]=[C:5]=[C:6]([H:9])[H:10])[H:8])[H:7]"
O       -2.21871825      -0.13927802       0.22878447
C       -1.01253082      -0.63827059      -0.20777398
C       -0.34413921      -0.02856638      -1.28347489
C        0.79356047       0.46779920      -1.41173408
C        1.70694722       0.64098152      -0.45225535
C        1.74244912       0.35441289       0.77746569
H       -2.20285905       0.82006085       0.18569175
H       -1.10627369      -1.72154746      -0.27922307
H        0.30284101      -0.32052447       0.79640317
H        2.33872321       0.56493245       1.64611630
10
Frame=6 idx=002950 GeodesicLength=0.6237439624118314 rxn_smarts="[O:1]([C:2]([C:3]#[C:4][C:5]#[C:6][H:10])([H:8])[H:9])[H:7]>>[O:1]([C:2](=[C:3]=[C:4]=[C:5]=[C:6]([H:9])[H:10])[H:8])[H:7]"
O       -2.24519310      -0.14330165       0.20400754
C       -1.02898746      -0.64356377      -0.20665860
C       -0.34864727      -0.02651321      -1.27109043
C        0.78984556       0.47115392      -1.39384907
C        1.71821191       0.63833031      -0.44613315
C        1.77639880       0.35499678       0.78414087
H       -2.22576976       0.81629441       0.17056756
H       -1.13834402      -1.72347756      -0.30711948
H        0.31137091      -0.34245832       0.83463453
H        2.39111442       0.59853909       1.63150024
10
Frame=7 idx=002950 GeodesicLength=0.7274017003104388 rxn_smarts="[O:1]([C:2]([C:3]#[C:4][C:5]#[C:6][H:10])([H:8])[H:9])[H:7]>>[O:1]([C:2](=[C:3]=[C:4]=[C:5]=[C:6]([H:9])[H:10])[H:8])[H:7]"
O       -2.27216671      -0.14731551       0.17775054
C       -1.04618569      -0.64921613      -0.20546152
C       -0.35314312      -0.02532661      -1.25813566
C        0.78597745       0.47399627      -1.37508592
C        1.72829503       0.63835042      -0.43909707
C        1.81090447       0.35694936       0.79088714
H       -2.24938843       0.81242873       0.15381800
H       -1.16974565      -1.72501224      -0.33429344
H        0.31982628      -0.36375865       0.87460904
H        2.44562637       0.62890435       1.61500890
10
Frame=8 idx=002950 GeodesicLength=0.8309950833353253 rxn_smarts="[O:1]([C:2]([C:3]#[C:4][C:5]#[C:6][H:10])([H:8])[H:9])[H:7]>>[O:1]([C:2](=[C:3]=[C:4]=[C:5]=[C:6]([H:9])[H:10])[H:8])[H:7]"
O       -2.29952449      -0.15137157       0.15034530
C       -1.06422184      -0.65512469      -0.20443949
C       -0.35783516      -0.02423515      -1.24449351
C        0.78181485       0.47693475      -1.35527089
C        1.73844247       0.63833444      -0.43174666
C        1.84627306       0.35962686       0.79756141
H       -2.27352630       0.80842700       0.13647204
H       -1.20061547      -1.72604173      -0.36165665
H        0.32847282      -0.38515006       0.91618504
H        2.50072007       0.65860016       1.59704341
10
Frame=9 idx=002950 GeodesicLength=0.9345333187274318 rxn_smarts="[O:1]([C:2]([C:3]#[C:4][C:5]#[C:6][H:10])([H:8])[H:9])[H:7]>>[O:1]([C:2](=[C:3]=[C:4]=[C:5]=[C:6]([H:9])[H:10])[H:8])[H:7]"
O       -2.32745184      -0.15562391       0.12144818
C       -1.08321461      -0.66132356      -0.20363858
C       -0.36273656      -0.02331197      -1.23009380
C        0.77732590       0.47994154      -1.33423231
C        1.74851580       0.63845888      -0.42389125
C        1.88192429       0.36425963       0.80456681
H       -2.29853061       0.80412412       0.11810403
H       -1.23084076      -1.72668987      -0.38912493
H        0.33705657      -0.40619888       0.95972760
H        2.55795182       0.68636401       1.57713426
10
Frame=10 idx=002950 GeodesicLength=1.0380196151225252 rxn_smarts="[O:1]([C:2]([C:3]#[C:4][C:5]#[C:6][H:10])([H:8])[H:9])[H:7]>>[O:1]([C:2](=[C:3]=[C:4]=[C:5]=[C:6]([H:9])[H:10])[H:8])[H:7]"
O       -2.35582058      -0.15990368       0.09110534
C       -1.10322786      -0.66784410      -0.20310571
C       -0.36784434      -0.02268957      -1.21491508
C        0.77251847       0.48284260      -1.31196351
C        1.75818663       0.63952571      -0.41535932
C        1.91848632       0.36984556       0.81152749
H       -2.32419100       0.79967399       0.09870161
H       -1.26059194      -1.72702541      -0.41670840
H        0.34578281      -0.42716322       1.00530113
H        2.61670149       0.71273811       1.55541646
10
Frame=11 idx=002950 GeodesicLength=1.141452023305236 rxn_smarts="[O:1]([C:2]([C:3]#[C:4][C:5]#[C:6][H:10])([H:8])[H:9])[H:7]>>[O:1]([C:2](=[C:3]=[C:4]=[C:5]=[C:6]([H:9])[H:10])[H:8])[H:7]"
O       -2.38445192      -0.16407273       0.05970519
C       -1.12428294      -0.67456043      -0.20297472
C       -0.37327521      -0.02181624      -1.19879021
C        0.76735166       0.48599195      -1.28829759
C        1.76824795       0.63989659      -0.40662074
C        1.95711822       0.37445788       0.81775234
H       -2.35030615       0.79519419       0.07901299
H       -1.28997624      -1.72684062      -0.44500613
H        0.35508220      -0.44869300       1.05281901
H        2.67449243       0.74044241       1.53239986
10
Frame=12 idx=002950 GeodesicLength=1.2448663205204007 rxn_smarts="[O:1]([C:2]([C:3]#[C:4][C:5]#[C:6][H:10])([H:8])[H:9])[H:7]>>[O:1]([C:2](=[C:3]=[C:4]=[C:5]=[C:6]([H:9])[H:10])[H:8])[H:7]"
O       -2.41388009      -0.16852352       0.02560785
C       -1.14663703      -0.68195996      -0.20297821
C       -0.37873443      -0.02267755      -1.18191375
C        0.76186920       0.48794188      -1.26336026
C        1.77521607       0.64710639      -0.39533880
C        1.99543240       0.38280991       0.82469723
H       -2.37767408       0.79032327       0.05595624
H       -1.31876370      -1.72710881      -0.47215399
H        0.36378721      -0.46840260       1.10354396
H        2.73938445       0.76049098       1.50593974
10
Frame=13 idx=002950 GeodesicLength=1.348216072725635 rxn_smarts="[O:1]([C:2]([C:3]#[C:4][C:5]#[C:6][H:10])([H:8])[H:9])[H:7]>>[O:1]([C:2](=[C:3]=[C:4]=[C:5]=[C:6]([H:9])[H:10])[H:8])[H:7]"
O       -2.44356573      -0.17285230      -0.00967034
C       -1.17017851      -0.68944468      -0.20350266
C       -0.38460981      -0.02292594      -1.16376512
C        0.75576398       0.49086551      -1.23642864
C        1.78320860       0.65214757      -0.38401578
C        2.03681319       0.38888656       0.83030890
H       -2.40563870       0.78541496       0.03265831
H       -1.34713844      -1.72678562      -0.50036574
H        0.37333207      -0.48880925       1.15670004
H        2.80201335       0.78350318       1.47808104
10
Frame=14 idx=002950 GeodesicLength=1.4515257315623624 rxn_smarts="[O:1]([C:2]([C:3]#[C:4][C:5]#[C:6][H:10])([H:8])[H:9])[H:7]>>[O:1]([C:2](=[C:3]=[C:4]=[C:5]=[C:6]([H:9])[H:10])[H:8])[H:7]"
O       -2.47383859      -0.17744045      -0.04760646
C       -1.19517458      -0.69764536      -0.20441444
C       -0.39064148      -0.02454756      -1.14456092
C        0.74931592       0.49265677      -1.20784309
C        1.78827135       0.66355946      -0.36988979
C        2.07872757       0.39754517       0.83610167
H       -2.43461158       0.78012891       0.00641669
H       -1.37511931      -1.72691597      -0.52821594
H        0.38256623      -0.50766325       1.21356895
H        2.87050447       0.80032228       1.44644335
10
Frame=15 idx=002950 GeodesicLength=1.5548410758790974 rxn_smarts="[O:1]([C:2]([C:3]#[C:4][C:5]#[C:6][H:10])([H:8])[H:9])[H:7]>>[O:1]([C:2](=[C:3]=[C:4]=[C:5]=[C:6]([H:9])[H:10])[H:8])[H:7]"
O       -2.50430555      -0.18163531      -0.08605012
C       -1.22159947      -0.70565731      -0.20644209
C       -0.39761994      -0.02374106      -1.12344571
C        0.74201536       0.49649244      -1.17646285
C        1.79841857       0.66403039      -0.35834376
C        2.12402880       0.40360123       0.84049315
H       -2.46408454       0.77491280      -0.01759166
H       -1.40303081      -1.72553667      -0.55951868
H        0.39349925      -0.52930268       1.27266898
H        2.93267834       0.82683617       1.41469273
10
Frame=16 idx=002950 GeodesicLength=1.6580089104115516 rxn_smarts="[O:1]([C:2]([C:3]#[C:4][C:5]#[C:6][H:10])([H:8])[H:9])[H:7]>>[O:1]([C:2](=[C:3]=[C:4]=[C:5]=[C:6]([H:9])[H:10])[H:8])[H:7]"
O       -2.53495360      -0.18528488      -0.12701801
C       -1.24977929      -0.71467704      -0.20945769
C       -0.40478815      -0.02442518      -1.10104491
C        0.73471293       0.49819150      -1.14308459
C        1.80619167       0.66891904      -0.34403689
C        2.16886252       0.41435408       0.84586623
H       -2.49339681       0.76991051      -0.04300232
H       -1.43159584      -1.72433083      -0.59205177
H        0.40505253      -0.55203735       1.33535064
H        2.99969404       0.84938016       1.37847931
