14
Frame=0 idx=006179 GeodesicLength=0.0 rxn_smarts="[O:1]([C@:2]12[C:3]([H:8])([H:9])[C@@:4]1([H:10])[C:5]([H:11])([H:12])[C:6]2([H:13])[H:14])[H:7]>>[C:2]12=[C:3]([H:9])[C@@:4]1([H:10])[C:5]([H:11])([H:12])[C:6]2([H:13])[H:14].[O:1]([H:7])[H:8]"
O        1.40243158       1.04856740       1.22020749
C        0.48419117       0.19216120       0.15930254
C        0.59490272       0.87409590      -1.07886265
C       -0.75087366       0.77523579      -0.38056220
C       -1.33012742      -0.66394722      -0.36315749
C       -0.07580166      -1.16974287       0.43929210
H        2.25347309       0.59326851       1.29958745
H        1.48177482       1.63773538       0.36375653
H        0.79417414       0.33258636      -2.00194671
H       -1.30938076       1.63558630      -0.03343093
H       -2.26326248      -0.78312881       0.18773062
H       -1.42517907      -1.11347379      -1.35286533
H       -0.33840513      -1.33269649       1.48496674
H        0.48208265      -2.02624762       0.05598187
14
Frame=1 idx=006179 GeodesicLength=0.08213603506550739 rxn_smarts="[O:1]([C@:2]12[C:3]([H:8])([H:9])[C@@:4]1([H:10])[C:5]([H:11])([H:12])[C:6]2([H:13])[H:14])[H:7]>>[C:2]12=[C:3]([H:9])[C@@:4]1([H:10])[C:5]([H:11])([H:12])[C:6]2([H:13])[H:14].[O:1]([H:7])[H:8]"
O        1.41020151       1.05731947       1.22969881
C        0.48572634       0.18494945       0.16163007
C        0.59549392       0.86943001      -1.07401006
C       -0.75049084       0.77144261      -0.37806701
C       -1.33242545      -0.66545413      -0.36477585
C       -0.08002082      -1.17490007       0.43853705
H        2.25876442       0.59665402       1.29695957
H        1.47827839       1.65265464       0.35300562
H        0.79951200       0.33703595      -2.00111751
H       -1.30538843       1.63417496      -0.03106717
H       -2.26650566      -0.78272169       0.18491469
H       -1.42833920      -1.11326040      -1.35527785
H       -0.34081616      -1.33502339       1.48504540
H        0.47600998      -2.03230142       0.05452425
14
Frame=2 idx=006179 GeodesicLength=0.16426885726271834 rxn_smarts="[O:1]([C@:2]12[C:3]([H:8])([H:9])[C@@:4]1([H:10])[C:5]([H:11])([H:12])[C:6]2([H:13])[H:14])[H:7]>>[C:2]12=[C:3]([H:9])[C@@:4]1([H:10])[C:5]([H:11])([H:12])[C:6]2([H:13])[H:14].[O:1]([H:7])[H:8]"
O        1.41806167       1.06620953       1.23934526
C        0.48730439       0.17762791       0.16395573
C        0.59614123       0.86467096      -1.06913624
C       -0.75004610       0.76762873      -0.37552650
C       -1.33472899      -0.66694018      -0.36637626
C       -0.08425734      -1.18012811       0.43773905
H        2.26387551       0.60008054       1.29455438
H        1.47466336       1.66770820       0.34179439
H        0.80487992       0.34153742      -2.00022566
H       -1.30129029       1.63274127      -0.02863685
H       -2.26973613      -0.78226143       0.18214496
H       -1.43155266      -1.11298118      -1.35768447
H       -0.34318755      -1.33746500       1.48507898
H        0.46987300      -2.03842865       0.05297323
14
Frame=3 idx=006179 GeodesicLength=0.24636725857755598 rxn_smarts="[O:1]([C@:2]12[C:3]([H:8])([H:9])[C@@:4]1([H:10])[C:5]([H:11])([H:12])[C:6]2([H:13])[H:14])[H:7]>>[C:2]12=[C:3]([H:9])[C@@:4]1([H:10])[C:5]([H:11])([H:12])[C:6]2([H:13])[H:14].[O:1]([H:7])[H:8]"
O        1.42599759       1.07523391       1.24915857
C        0.48892406       0.17019564       0.16627843
C        0.59684525       0.85981299      -1.06423614
C       -0.74953605       0.76379342      -0.37293473
C       -1.33703010      -0.66839842      -0.36795430
C       -0.08850750      -1.18542048       0.43689358
H        2.26878264       0.60353653       1.29237701
H        1.47091853       1.68287563       0.33008531
H        0.81027604       0.34608894      -1.99926438
H       -1.29708446       1.63128199      -0.02613481
H       -2.27294264      -0.78173903       0.17942763
H       -1.43480803      -1.11262811      -1.36007743
H       -0.34551566      -1.34001574       1.48505926
H        0.46368033      -2.04461728       0.05132200
14
Frame=4 idx=006179 GeodesicLength=0.3284788680466043 rxn_smarts="[O:1]([C@:2]12[C:3]([H:8])([H:9])[C@@:4]1([H:10])[C:5]([H:11])([H:12])[C:6]2([H:13])[H:14])[H:7]>>[C:2]12=[C:3]([H:9])[C@@:4]1([H:10])[C:5]([H:11])([H:12])[C:6]2([H:13])[H:14].[O:1]([H:7])[H:8]"
O        1.43402097       1.08438980       1.25916029
C        0.49058789       0.16264926       0.16859965
C        0.59760979       0.85486248      -1.05931216
C       -0.74896072       0.75993899      -0.37029494
C       -1.33933704      -0.66983361      -0.36951386
C       -0.09277567      -1.19078715       0.43600389
H        2.27350634       0.60703189       1.29043376
H        1.46704998       1.69818765       0.31786138
H        0.81570013       0.35069639      -1.99823546
H       -1.29276890       1.62980233      -0.02356459
H       -2.27613569      -0.78116172       0.17675932
H       -1.43811776      -1.11220523      -1.36246483
H       -0.34780416      -1.34269067       1.48499337
H        0.45742485      -2.05088042       0.04957418
14
Frame=5 idx=006179 GeodesicLength=0.41052959115321613 rxn_smarts="[O:1]([C@:2]12[C:3]([H:8])([H:9])[C@@:4]1([H:10])[C:5]([H:11])([H:12])[C:6]2([H:13])[H:14])[H:7]>>[C:2]12=[C:3]([H:9])[C@@:4]1([H:10])[C:5]([H:11])([H:12])[C:6]2([H:13])[H:14].[O:1]([H:7])[H:8]"
O        1.44212493       1.09367697       1.26935301
C        0.49229406       0.15498285       0.17091925
C        0.59843638       0.84981500      -1.05435783
C       -0.74831696       0.75606228      -0.36760176
C       -1.34164532      -0.67124254      -0.37105380
C       -0.09706305      -1.19622660       0.43506782
H        2.27803775       0.61056840       1.28872252
H        1.46305435       1.71364116       0.30510056
H        0.82115302       0.35536016      -1.99713107
H       -1.28833997       1.62829614      -0.02091741
H       -2.27930974      -0.78052458       0.17414029
H       -1.44147432      -1.11170665      -1.36484482
H       -0.35005564      -1.34548783       1.48487736
H        0.45110452      -2.05721476       0.04772586
14
Frame=6 idx=006179 GeodesicLength=0.4926819181216945 rxn_smarts="[O:1]([C@:2]12[C:3]([H:8])([H:9])[C@@:4]1([H:10])[C:5]([H:11])([H:12])[C:6]2([H:13])[H:14])[H:7]>>[C:2]12=[C:3]([H:9])[C@@:4]1([H:10])[C:5]([H:11])([H:12])[C:6]2([H:13])[H:14].[O:1]([H:7])[H:8]"
O        1.45029956       1.10307161       1.27978892
C        0.49404597       0.14719824       0.17323787
C        0.59932859       0.84466867      -1.04937544
C       -0.74760156       0.75216622      -0.36485458
C       -1.34395465      -0.67262279      -0.37257237
C       -0.10136716      -1.20173934       0.43408347
H        2.28237771       0.61414638       1.28724855
H        1.45891973       1.72925299       0.29174487
H        0.82663342       0.36007832      -1.99595083
H       -1.28379151       1.62676829      -0.01819309
H       -2.28246382      -0.77982422       0.17157522
H       -1.44488078      -1.11112908      -1.36721489
H       -0.35227066      -1.34841721       1.48470690
H        0.44472516      -2.06361808       0.04577539
14
Frame=7 idx=006179 GeodesicLength=0.5747689424724881 rxn_smarts="[O:1]([C@:2]12[C:3]([H:8])([H:9])[C@@:4]1([H:10])[C:5]([H:11])([H:12])[C:6]2([H:13])[H:14])[H:7]>>[C:2]12=[C:3]([H:9])[C@@:4]1([H:10])[C:5]([H:11])([H:12])[C:6]2([H:13])[H:14].[O:1]([H:7])[H:8]"
O        1.45855642       1.11258789       1.29045496
C        0.49584344       0.13928593       0.17555880
C        0.60029066       0.83942233      -1.04435515
C       -0.74681114       0.74824817      -0.36204707
C       -1.34626373      -0.67397338      -0.37407135
C       -0.10569241      -1.20732899       0.43305238
H        2.28652504       0.61777267       1.28600243
H        1.45463076       1.74501932       0.27778558
H        0.83214951       0.36485620      -1.99468404
H       -1.27911988       1.62521375      -0.01538062
H       -2.28559882      -0.77905978       0.16905709
H       -1.44833195      -1.11046728      -1.36957905
H       -0.35445373      -1.35147958       1.48448454
H        0.43827581      -2.07009725       0.04372148
14
Frame=8 idx=006179 GeodesicLength=0.6568528196898376 rxn_smarts="[O:1]([C@:2]12[C:3]([H:8])([H:9])[C@@:4]1([H:10])[C:5]([H:11])([H:12])[C:6]2([H:13])[H:14])[H:7]>>[C:2]12=[C:3]([H:9])[C@@:4]1([H:10])[C:5]([H:11])([H:12])[C:6]2([H:13])[H:14].[O:1]([H:7])[H:8]"
O        1.46688898       1.12221036       1.30138557
C        0.49768824       0.13124183       0.17788355
C        0.60132697       0.83407344      -1.03929457
C       -0.74594197       0.74430808      -0.35917658
C       -1.34857305      -0.67529252      -0.37554994
C       -0.11003996      -1.21299887       0.43197296
H        2.29048542       0.62145801       1.28498292
H        1.45017994       1.76095990       0.26317946
H        0.83770518       0.36969165      -1.99332473
H       -1.27431949       1.62363273      -0.01247652
H       -2.28871526      -0.77822882       0.16658756
H       -1.45183020      -1.10971633      -1.37193709
H       -0.35660766      -1.35468443       1.48420757
H        0.43175287      -2.07665504       0.04155982
14
Frame=9 idx=006179 GeodesicLength=0.7389306701475301 rxn_smarts="[O:1]([C@:2]12[C:3]([H:8])([H:9])[C@@:4]1([H:10])[C:5]([H:11])([H:12])[C:6]2([H:13])[H:14])[H:7]>>[C:2]12=[C:3]([H:9])[C@@:4]1([H:10])[C:5]([H:11])([H:12])[C:6]2([H:13])[H:14].[O:1]([H:7])[H:8]"
O        1.47529133       1.13193168       1.31260704
C        0.49958190       0.12306084       0.18021400
C        0.60244178       0.82861922      -1.03418910
C       -0.74498959       0.74034546      -0.35623854
C       -1.35088105      -0.67657762      -0.37700738
C       -0.11441061      -1.21875122       0.43084365
H        2.29425589       0.62521106       1.28418918
H        1.44555830       1.77708073       0.24788353
H        0.84330284       0.37458516      -1.99186657
H       -1.26938376       1.62202421      -0.00947357
H       -2.29181127      -0.77732775       0.16416739
H       -1.45537453      -1.10887022      -1.37428916
H       -0.35873442      -1.35803834       1.48387366
H        0.42515319      -2.08329320       0.03928587
14
Frame=10 idx=006179 GeodesicLength=0.8210025541281761 rxn_smarts="[O:1]([C@:2]12[C:3]([H:8])([H:9])[C@@:4]1([H:10])[C:5]([H:11])([H:12])[C:6]2([H:13])[H:14])[H:7]>>[C:2]12=[C:3]([H:9])[C@@:4]1([H:10])[C:5]([H:11])([H:12])[C:6]2([H:13])[H:14].[O:1]([H:7])[H:8]"
O        1.48376232       1.14174203       1.32414770
C        0.50152683       0.11473776       0.18255224
C        0.60364084       0.82305749      -1.02903444
C       -0.74394912       0.73636070      -0.35322939
C       -1.35318686      -0.67782605      -0.37844362
C       -0.11880537      -1.22458914       0.42966319
H        2.29783561       0.62904015       1.28362017
H        1.44074846       1.79339294       0.23185325
H        0.84894587       0.37953706      -1.99030325
H       -1.26430471       1.62038861      -0.00636442
H       -2.29488587      -0.77635296       0.16179708
H       -1.45896437      -1.10792337      -1.37663623
H       -0.36083565      -1.36154903       1.48348110
H        0.41847200      -2.09001619       0.03689661
14
Frame=11 idx=006179 GeodesicLength=0.9030896134977837 rxn_smarts="[O:1]([C@:2]12[C:3]([H:8])([H:9])[C@@:4]1([H:10])[C:5]([H:11])([H:12])[C:6]2([H:13])[H:14])[H:7]>>[C:2]12=[C:3]([H:9])[C@@:4]1([H:10])[C:5]([H:11])([H:12])[C:6]2([H:13])[H:14].[O:1]([H:7])[H:8]"
O        1.49229290       1.15161982       1.33604285
C        0.50352493       0.10626669       0.18489908
C        0.60493101       0.81738429      -1.02382609
C       -0.74281420       0.73235239      -0.35014525
C       -1.35548884      -0.67903397      -0.37985683
C       -0.12322575      -1.23051436       0.42842825
H        2.30122413       0.63295955       1.28327362
H        1.43573508       1.80991586       0.21503718
H        0.85463872       0.38454325      -1.98862652
H       -1.25907250       1.61872339      -0.00314175
H       -2.29793608      -0.77529982       0.15948061
H       -1.46259861      -1.10686767      -1.37897588
H       -0.36291415      -1.36522460       1.48302480
H        0.41170335      -2.09682481       0.03438593
14
Frame=12 idx=006179 GeodesicLength=0.9851437920870493 rxn_smarts="[O:1]([C@:2]12[C:3]([H:8])([H:9])[C@@:4]1([H:10])[C:5]([H:11])([H:12])[C:6]2([H:13])[H:14])[H:7]>>[C:2]12=[C:3]([H:9])[C@@:4]1([H:10])[C:5]([H:11])([H:12])[C:6]2([H:13])[H:14].[O:1]([H:7])[H:8]"
O        1.50088459       1.16156932       1.34831739
C        0.50557934       0.09763858       0.18726151
C        0.60631812       0.81159538      -1.01855416
C       -0.74157883       0.72831960      -0.34697655
C       -1.35778505      -0.68019938      -0.38124761
C       -0.12767391      -1.23653283       0.42713949
H        2.30442163       0.63698524       1.28313893
H        1.43049675       1.82664909       0.19738271
H        0.86039293       0.38960720      -1.98682427
H       -1.25367819       1.61702677       0.00021063
H       -2.30096351      -0.77416334       0.15721121
H       -1.46627670      -1.10569358      -1.38131259
H       -0.36497662      -1.36907551       1.48250478
H        0.40483945      -2.10372653       0.03174852
14
Frame=13 idx=006179 GeodesicLength=1.0671943708329477 rxn_smarts="[O:1]([C@:2]12[C:3]([H:8])([H:9])[C@@:4]1([H:10])[C:5]([H:11])([H:12])[C:6]2([H:13])[H:14])[H:7]>>[C:2]12=[C:3]([H:9])[C@@:4]1([H:10])[C:5]([H:11])([H:12])[C:6]2([H:13])[H:14].[O:1]([H:7])[H:8]"
O        1.50952839       1.17156668       1.36101740
C        0.50769332       0.08884678       0.18964193
C        0.60780976       0.80568796      -1.01321331
C       -0.74023619       0.72426248      -0.34371846
C       -1.36007489      -0.68131853      -0.38261448
C       -0.13215100      -1.24264892       0.42579394
H        2.30742988       0.64113664       1.28321422
H        1.42501634       1.84361295       0.17882526
H        0.86621391       0.39472424      -1.98488684
H       -1.24811140       1.61529904       0.00370046
H       -2.30396686      -0.77293814       0.15499182
H       -1.47000092      -1.10439245      -1.38364575
H       -0.36702543      -1.37311367       1.48191702
H        0.39787508      -2.11072507       0.02897681
14
Frame=14 idx=006179 GeodesicLength=1.1492398347971258 rxn_smarts="[O:1]([C@:2]12[C:3]([H:8])([H:9])[C@@:4]1([H:10])[C:5]([H:11])([H:12])[C:6]2([H:13])[H:14])[H:7]>>[C:2]12=[C:3]([H:9])[C@@:4]1([H:10])[C:5]([H:11])([H:12])[C:6]2([H:13])[H:14].[O:1]([H:7])[H:8]"
O        1.51821362       1.18159372       1.37418868
C        0.50987036       0.07988403       0.19204359
C        0.60941376       0.79965857      -1.00779644
C       -0.73877852       0.72018099      -0.34036385
C       -1.36235585      -0.68238663      -0.38395562
C       -0.13665754      -1.24886616       0.42438854
H        2.31024326       0.64543140       1.28349813
H        1.41927548       1.86081576       0.15929194
H        0.87210631       0.39989295      -1.98280457
H       -1.24236061       1.61353947       0.00733943
H       -2.30694308      -0.77161780       0.15282501
H       -1.47377044      -1.10295360      -1.38597481
H       -0.36906262      -1.37734992       1.48125745
H        0.39080588      -2.11782278       0.02606253
14
Frame=15 idx=006179 GeodesicLength=1.2312830221678803 rxn_smarts="[O:1]([C@:2]12[C:3]([H:8])([H:9])[C@@:4]1([H:10])[C:5]([H:11])([H:12])[C:6]2([H:13])[H:14])[H:7]>>[C:2]12=[C:3]([H:9])[C@@:4]1([H:10])[C:5]([H:11])([H:12])[C:6]2([H:13])[H:14].[O:1]([H:7])[H:8]"
O        1.52692917       1.19163131       1.38788415
C        0.51211467       0.07074265       0.19447119
C        0.61113927       0.79350325      -1.00229659
C       -0.73719713       0.71607619      -0.33690587
C       -1.36462632      -0.68339846      -0.38526828
C       -0.14119326      -1.25519033       0.42291946
H        2.31285624       0.64989054       1.28399318
H        1.41325209       1.87826956       0.13870176
H        0.87807632       0.40510852      -1.98056748
H       -1.23641199       1.61175082       0.01113736
H       -2.30988922      -0.77019473       0.15071595
H       -1.47758900      -1.10136553      -1.38829908
H       -0.37108859      -1.38180003       1.48052184
H        0.38362774      -2.12502377       0.02299241
14
Frame=16 idx=006179 GeodesicLength=1.31331310382299 rxn_smarts="[O:1]([C@:2]12[C:3]([H:8])([H:9])[C@@:4]1([H:10])[C:5]([H:11])([H:12])[C:6]2([H:13])[H:14])[H:7]>>[C:2]12=[C:3]([H:9])[C@@:4]1([H:10])[C:5]([H:11])([H:12])[C:6]2([H:13])[H:14].[O:1]([H:7])[H:8]"
O        1.53566020       1.20164717       1.40215777
C        0.51442978       0.06141479       0.19692827
C        0.61299851       0.78721730      -0.99670244
C       -0.73548145       0.71194588      -0.33333606
C       -1.36688266      -0.68434644      -0.38654742
C       -0.14575869      -1.26162250       0.42138089
H        2.31526327       0.65453735       1.28469107
H        1.40691259       1.89598708       0.11696717
H        0.88413657       0.41036179      -1.97815554
H       -1.23025033       1.60992783       0.01510530
H       -2.31280073      -0.76865936       0.14867100
H       -1.48145609      -1.09961224      -1.39061213
H       -0.37310713      -1.38647578       1.47970018
H        0.37633616      -2.13232287       0.01975195
