15
Frame=0 idx=001996 GeodesicLength=0.0 rxn_smarts="[C:1]([N:2]1[C:3]([H:10])([H:11])[C@:4]1([C:5]([O:6][H:15])([H:13])[H:14])[H:12])([H:7])([H:8])[H:9]>>[C-:1]([N+:2]1=[C:3]([H:11])[C@:4]1([C:5]([O:6][H:15])([H:13])[H:14])[H:12])([H:7])[H:9].[H:8][H:10]"
C       -1.69820077       0.80782922      -0.26969421
N       -0.54775725       0.16042573      -0.38858042
C       -0.20503623      -1.12602201      -0.52014842
C        0.42875023      -0.34298034       0.55868417
C        1.80266991       0.29088219       0.52126967
O        2.29031747       0.50409649      -0.77821150
H       -2.36485680       0.79762432      -1.12316708
H       -2.31106914      -0.87101382       0.38781192
H       -1.73066214       1.65478433       0.40373756
H       -1.73588107      -1.47287815       0.17692726
H        0.10856486      -1.70317824      -1.37443101
H        0.04930774      -0.53124184       1.56831360
H        2.50739100      -0.38029400       1.01624343
H        1.78231239       1.22718332       1.09712541
H        1.62414979       0.98478278      -1.27588038
15
Frame=1 idx=001996 GeodesicLength=0.05847698567814489 rxn_smarts="[C:1]([N:2]1[C:3]([H:10])([H:11])[C@:4]1([C:5]([O:6][H:15])([H:13])[H:14])[H:12])([H:7])([H:8])[H:9]>>[C-:1]([N+:2]1=[C:3]([H:11])[C@:4]1([C:5]([O:6][H:15])([H:13])[H:14])[H:12])([H:7])[H:9].[H:8][H:10]"
C       -1.70174997       0.80194882      -0.26266138
N       -0.54500536       0.16010048      -0.38541368
C       -0.20640725      -1.13184826      -0.50823042
C        0.42970468      -0.34178676       0.56440337
C        1.80432052       0.29011124       0.51865994
O        2.28245875       0.50432148      -0.78425425
H       -2.35472669       0.80791329      -1.12699164
H       -2.32521978      -0.86687948       0.36988280
H       -1.73091266       1.65297341       0.40608789
H       -1.73821558      -1.48225146       0.16823550
H        0.12053325      -1.70000421      -1.36381968
H        0.05289808      -0.52336976       1.57588960
H        2.51185918      -0.38237017       1.00790238
H        1.78907349       1.22577083       1.09568671
H        1.61138934       0.98537057      -1.27537715
15
Frame=2 idx=001996 GeodesicLength=0.11692648509401651 rxn_smarts="[C:1]([N:2]1[C:3]([H:10])([H:11])[C@:4]1([C:5]([O:6][H:15])([H:13])[H:14])[H:12])([H:7])([H:8])[H:9]>>[C-:1]([N+:2]1=[C:3]([H:11])[C@:4]1([C:5]([O:6][H:15])([H:13])[H:14])[H:12])([H:7])[H:9].[H:8][H:10]"
C       -1.70526626       0.79614063      -0.25580059
N       -0.54227438       0.15979960      -0.38224815
C       -0.20773179      -1.13756357      -0.49630567
C        0.43067952      -0.34051164       0.57009188
C        1.80595442       0.28939239       0.51602494
O        2.27465798       0.50440639      -0.79024786
H       -2.34457811       0.81828768      -1.13034385
H       -2.33928248      -0.86254541       0.35166245
H       -1.73136516       1.65084897       0.40869599
H       -1.74036659      -1.49180494       0.15914230
H        0.13218534      -1.69696668      -1.35289141
H        0.05655187      -0.51539685       1.58340016
H        2.51621725      -0.38434219       0.99965878
H        1.79581259       1.22448224       1.09405777
H        1.59880579       0.98577339      -1.27489674
15
Frame=3 idx=001996 GeodesicLength=0.17529945099473176 rxn_smarts="[C:1]([N:2]1[C:3]([H:10])([H:11])[C@:4]1([C:5]([O:6][H:15])([H:13])[H:14])[H:12])([H:7])([H:8])[H:9]>>[C-:1]([N+:2]1=[C:3]([H:11])[C@:4]1([C:5]([O:6][H:15])([H:13])[H:14])[H:12])([H:7])[H:9].[H:8][H:10]"
C       -1.70875372       0.79040293      -0.24910854
N       -0.53956252       0.15953031      -0.37909135
C       -0.20901382      -1.14316326      -0.48438516
C        0.43167252      -0.33915706       0.57574228
C        1.80756884       0.28872494       0.51337215
O        2.26693026       0.50433507      -0.79618328
H       -2.33445226       0.82871053      -1.13321632
H       -2.35323884      -0.85799065       0.33320005
H       -1.73200803       1.64843473       0.41155013
H       -1.74231423      -1.50154285       0.14964434
H        0.14351570      -1.69404380      -1.34169311
H        0.06026419      -0.50733398       1.59083510
H        2.52045776      -0.38620511       0.99154126
H        1.80251408       1.22332300       1.09223725
H        1.58642008       0.98597519      -1.27444481
15
Frame=4 idx=001996 GeodesicLength=0.23353244627289638 rxn_smarts="[C:1]([N:2]1[C:3]([H:10])([H:11])[C@:4]1([C:5]([O:6][H:15])([H:13])[H:14])[H:12])([H:7])([H:8])[H:9]>>[C-:1]([N+:2]1=[C:3]([H:11])[C@:4]1([C:5]([O:6][H:15])([H:13])[H:14])[H:12])([H:7])[H:9].[H:8][H:10]"
C       -1.71221656       0.78473375      -0.24258175
N       -0.53686804       0.15929999      -0.37595116
C       -0.21025792      -1.14864282      -0.47248045
C        0.43268103      -0.33772557       0.58134703
C        1.80916131       0.28810703       0.51070902
O        2.25928938       0.50409494      -0.80205196
H       -2.32438921       0.83914475      -1.13560592
H       -2.36707107      -0.85319760       0.31454862
H       -1.73282797       1.64575710       0.41463175
H       -1.74403865      -1.51146808       0.13974303
H        0.15451934      -1.69121415      -1.33027038
H        0.06402947      -0.49919301       1.59818430
H        2.52457443      -0.38795744       0.98357503
H        1.80916357       1.22229531       1.09022775
H        1.57425088       0.98596579      -1.27402493
15
Frame=5 idx=001996 GeodesicLength=0.29154845002604585 rxn_smarts="[C:1]([N:2]1[C:3]([H:10])([H:11])[C@:4]1([C:5]([O:6][H:15])([H:13])[H:14])[H:12])([H:7])([H:8])[H:9]>>[C-:1]([N+:2]1=[C:3]([H:11])[C@:4]1([C:5]([O:6][H:15])([H:13])[H:14])[H:12])([H:7])[H:9].[H:8][H:10]"
C       -1.71565917       0.77913155      -0.23621646
N       -0.53418908       0.15911666      -0.37283591
C       -0.21146899      -1.15399735      -0.46060388
C        0.43370212      -0.33621986       0.58689843
C        1.81072959       0.28753590       0.50804324
O        2.25174826       0.50367595      -0.80784561
H       -2.31442804       0.84955170      -1.13751326
H       -2.38076027      -0.84815193       0.29576994
H       -1.73381067       1.64284434       0.41791638
H       -1.74552172      -1.52158097       0.12943850
H        0.16519197      -1.68845690      -1.31866803
H        0.06784145      -0.49098662       1.60543750
H        2.52856194      -0.38960051       0.97578305
H        1.81574740       1.22139905       1.08803542
H        1.56231523       0.98573899      -1.27363930
15
Frame=6 idx=001996 GeodesicLength=0.3492790817396515 rxn_smarts="[C:1]([N:2]1[C:3]([H:10])([H:11])[C@:4]1([C:5]([O:6][H:15])([H:13])[H:14])[H:12])([H:7])([H:8])[H:9]>>[C-:1]([N+:2]1=[C:3]([H:11])[C@:4]1([C:5]([O:6][H:15])([H:13])[H:14])[H:12])([H:7])[H:9].[H:8][H:10]"
C       -1.71908593       0.77359392      -0.23000986
N       -0.53152408       0.15898775      -0.36975477
C       -0.21265249      -1.15922235      -0.44877002
C        0.43473226      -0.33464392       0.59238775
C        1.81227132       0.28700779       0.50538285
O        2.24431893       0.50307204      -0.81355498
H       -2.30460790       0.85989096      -1.13894230
H       -2.39428908      -0.84283948       0.27693475
H       -1.73493809       1.63972972       0.42137038
H       -1.74674312      -1.53188323       0.11873550
H        0.17552922      -1.68574966      -1.30693161
H        0.07169284      -0.48273021       1.61258327
H        2.53241545      -0.39113804       0.96818582
H        1.82225205       1.22063064       1.08567033
H        1.55062863       0.98529405      -1.27328713
15
Frame=7 idx=001996 GeodesicLength=0.4074023768926447 rxn_smarts="[C:1]([N:2]1[C:3]([H:10])([H:11])[C@:4]1([C:5]([O:6][H:15])([H:13])[H:14])[H:12])([H:7])([H:8])[H:9]>>[C-:1]([N+:2]1=[C:3]([H:11])[C@:4]1([C:5]([O:6][H:15])([H:13])[H:14])[H:12])([H:7])[H:9].[H:8][H:10]"
C       -1.72248842       0.76811842      -0.22398033
N       -0.52888170       0.15889336      -0.36671984
C       -0.21380281      -1.16432921      -0.43702066
C        0.43576170      -0.33302746       0.59779679
C        1.81376874       0.28651686       0.50274224
O        2.23699970       0.50231123      -0.81915631
H       -2.29497405       0.87009608      -1.13991047
H       -2.40769582      -0.83708108       0.25827188
H       -1.73614236       1.63649663       0.42488194
H       -1.74759828      -1.54250796       0.10762142
H        0.18554407      -1.68306536      -1.29514712
H        0.07556621      -0.47448105       1.61959628
H        2.53612191      -0.39257663       0.96079767
H        1.82863415       1.21997026       1.08316831
H        1.53918696       0.98466592      -1.27294180
15
Frame=8 idx=001996 GeodesicLength=0.46619508091720374 rxn_smarts="[C:1]([N:2]1[C:3]([H:10])([H:11])[C@:4]1([C:5]([O:6][H:15])([H:13])[H:14])[H:12])([H:7])([H:8])[H:9]>>[C-:1]([N+:2]1=[C:3]([H:11])[C@:4]1([C:5]([O:6][H:15])([H:13])[H:14])[H:12])([H:7])[H:9].[H:8][H:10]"
C       -1.72585422       0.76273445      -0.21814177
N       -0.52627142       0.15881521      -0.36375411
C       -0.21491311      -1.16932838      -0.42543739
C        0.43677811      -0.33141817       0.60309417
C        1.81520126       0.28604394       0.50014435
O        2.22978074       0.50143874      -0.82461436
H       -2.28557349       0.88002140      -1.14048556
H       -2.42099581      -0.83074616       0.24017815
H       -1.73733363       1.63325296       0.42827660
H       -1.74802527      -1.55349870       0.09606116
H        0.19528584      -1.68033256      -1.28341950
H        0.07943200      -0.46632776       1.62643785
H        2.53966738      -0.39393188       0.95362831
H        1.83484408       1.21937697       1.08059462
H        1.52797754       0.98389996      -1.27256252
15
Frame=9 idx=001996 GeodesicLength=0.5248057905159784 rxn_smarts="[C:1]([N:2]1[C:3]([H:10])([H:11])[C@:4]1([C:5]([O:6][H:15])([H:13])[H:14])[H:12])([H:7])([H:8])[H:9]>>[C-:1]([N+:2]1=[C:3]([H:11])[C@:4]1([C:5]([O:6][H:15])([H:13])[H:14])[H:12])([H:7])[H:9].[H:8][H:10]"
C       -1.72920566       0.75741093      -0.21246617
N       -0.52368035       0.15878158      -0.36084315
C       -0.21600177      -1.17420730      -0.41394733
C        0.43778835      -0.32976815       0.60830771
C        1.81659389       0.28559889       0.49756817
O        2.22268084       0.50040997      -0.82996652
H       -2.27638324       0.88979490      -1.14064211
H       -2.43419725      -0.82402357       0.22228409
H       -1.73858894       1.62991718       0.43172243
H       -1.74807086      -1.56475883       0.08413298
H        0.20472966      -1.67760771      -1.27166399
H        0.08330629      -0.45818239       1.63314415
H        2.54307382      -0.39520270       0.94667006
H        1.84093698       1.21887724       1.07789456
H        1.51701823       0.98295996      -1.27219488
15
Frame=10 idx=001996 GeodesicLength=0.5833065863565831 rxn_smarts="[C:1]([N:2]1[C:3]([H:10])([H:11])[C@:4]1([C:5]([O:6][H:15])([H:13])[H:14])[H:12])([H:7])([H:8])[H:9]>>[C-:1]([N+:2]1=[C:3]([H:11])[C@:4]1([C:5]([O:6][H:15])([H:13])[H:14])[H:12])([H:7])[H:9].[H:8][H:10]"
C       -1.73253669       0.75215298      -0.20694836
N       -0.52111207       0.15878110      -0.35797681
C       -0.21706360      -1.17897915      -0.40253030
C        0.43879174      -0.32808093       0.61345218
C        1.81794511       0.28517779       0.49501493
O        2.21567212       0.49924456      -0.83522213
H       -2.26738093       0.89940870      -1.14043134
H       -2.44731136      -0.81685806       0.20467837
H       -1.73989814       1.62650488       0.43518891
H       -1.74773301      -1.57634038       0.07176954
H        0.21389736      -1.67489669      -1.25988399
H        0.08718775      -0.45003806       1.63973122
H        2.54635198      -0.39640683       0.93989362
H        1.84692147       1.21846019       1.07509365
H        1.50626827       0.98186990      -1.27182949
15
Frame=11 idx=001996 GeodesicLength=0.6416459605454032 rxn_smarts="[C:1]([N:2]1[C:3]([H:10])([H:11])[C@:4]1([C:5]([O:6][H:15])([H:13])[H:14])[H:12])([H:7])([H:8])[H:9]>>[C-:1]([N+:2]1=[C:3]([H:11])[C@:4]1([C:5]([O:6][H:15])([H:13])[H:14])[H:12])([H:7])[H:9].[H:8][H:10]"
C       -1.73585059       0.74696085      -0.20158822
N       -0.51856986       0.15880756      -0.35514992
C       -0.21810446      -1.18364946      -0.39117088
C        0.43978510      -0.32635170       0.61853629
C        1.81925826       0.28477495       0.49247859
O        2.20874256       0.49795202      -0.84039141
H       -2.25854409       0.90888645      -1.13988535
H       -2.46038943      -0.80925317       0.18734715
H       -1.74126587       1.62301071       0.43869306
H       -1.74698170      -1.58825284       0.05897230
H        0.22281390      -1.67220766      -1.24805393
H        0.09107301      -0.44187811       1.64621021
H        2.54951088      -0.39755841       0.93327497
H        1.85281474       1.21811345       1.07219187
H        1.49570755       0.98064537      -1.27146471
15
Frame=12 idx=001996 GeodesicLength=0.6998698373975736 rxn_smarts="[C:1]([N:2]1[C:3]([H:10])([H:11])[C@:4]1([C:5]([O:6][H:15])([H:13])[H:14])[H:12])([H:7])([H:8])[H:9]>>[C-:1]([N+:2]1=[C:3]([H:11])[C@:4]1([C:5]([O:6][H:15])([H:13])[H:14])[H:12])([H:7])[H:9].[H:8][H:10]"
C       -1.73914137       0.74183265      -0.19638225
N       -0.51605597       0.15884728      -0.35235752
C       -0.21912123      -1.18823258      -0.37985766
C        0.44076861      -0.32458572       0.62356693
C        1.82053240       0.28438692       0.48995466
O        2.20187153       0.49655078      -0.84548186
H       -2.24984932       0.91825171      -1.13903536
H       -2.47348816      -0.80117458       0.17027537
H       -1.74267996       1.61943758       0.44223386
H       -1.74578665      -1.60053738       0.04576583
H        0.23150245      -1.66954940      -1.23616500
H        0.09496130      -0.43369458       1.65258948
H        2.55255747      -0.39866579       0.92678873
H        1.85862258       1.21782624       1.06919709
H        1.48530634       0.97930686      -1.27109230
15
Frame=13 idx=001996 GeodesicLength=0.7580344409002371 rxn_smarts="[C:1]([N:2]1[C:3]([H:10])([H:11])[C@:4]1([C:5]([O:6][H:15])([H:13])[H:14])[H:12])([H:7])([H:8])[H:9]>>[C-:1]([N+:2]1=[C:3]([H:11])[C@:4]1([C:5]([O:6][H:15])([H:13])[H:14])[H:12])([H:7])[H:9].[H:8][H:10]"
C       -1.74241130       0.73676841      -0.19132362
N       -0.51357649       0.15888819      -0.34958945
C       -0.22011386      -1.19273780      -0.36857543
C        0.44174047      -0.32278480       0.62855476
C        1.82176659       0.28401222       0.48743962
O        2.19504423       0.49504720      -0.85050277
H       -2.24127214       0.92752020      -1.13790279
H       -2.48666036      -0.79258532       0.15347877
H       -1.74413464       1.61578962       0.44581106
H       -1.74411139      -1.61323573       0.03211560
H        0.23998414      -1.66692826      -1.22420362
H        0.09885125      -0.42547848       1.65888141
H        2.55549996      -0.39973325       0.92041933
H        1.86435238       1.21759469       1.06610930
H        1.47504115       0.97786310      -1.27071217
15
Frame=14 idx=001996 GeodesicLength=0.8161598083346346 rxn_smarts="[C:1]([N:2]1[C:3]([H:10])([H:11])[C@:4]1([C:5]([O:6][H:15])([H:13])[H:14])[H:12])([H:7])([H:8])[H:9]>>[C-:1]([N+:2]1=[C:3]([H:11])[C@:4]1([C:5]([O:6][H:15])([H:13])[H:14])[H:12])([H:7])[H:9].[H:8][H:10]"
C       -1.74565966       0.73176862      -0.18640446
N       -0.51113591       0.15892035      -0.34683700
C       -0.22108048      -1.19717454      -0.35730792
C        0.44270051      -0.32094729       0.63350952
C        1.82296093       0.28364949       0.48492831
O        2.18824479       0.49344763      -0.85546420
H       -2.23278759       0.93672802      -1.13650589
H       -2.49996890      -0.78346186       0.13690693
H       -1.74562884       1.61206432       0.44944247
H       -1.74191165      -1.62639376       0.01804265
H        0.24827746      -1.66435160      -1.21215656
H        0.10274446      -0.41721293       1.66509782
H        2.55834479      -0.40076603       0.91414704
H        1.87001286       1.21741402       1.06292964
H        1.46488724       0.97631554      -1.27032836
15
Frame=15 idx=001996 GeodesicLength=0.8742728024209556 rxn_smarts="[C:1]([N:2]1[C:3]([H:10])([H:11])[C@:4]1([C:5]([O:6][H:15])([H:13])[H:14])[H:12])([H:7])([H:8])[H:9]>>[C-:1]([N+:2]1=[C:3]([H:11])[C@:4]1([C:5]([O:6][H:15])([H:13])[H:14])[H:12])([H:7])[H:9].[H:8][H:10]"
C       -1.74887604       0.72684245      -0.18163561
N       -0.50873309       0.15894011      -0.34412529
C       -0.22202379      -1.20154267      -0.34610518
C        0.44363652      -0.31909683       0.63840714
C        1.82409719       0.28330061       0.48244058
O        2.18148928       0.49176199      -0.86033344
H       -2.22444732       0.94577762      -1.13485677
H       -2.51339693      -0.77372073       0.12088700
H       -1.74708980       1.60833495       0.45302398
H       -1.73915587      -1.64004559       0.00341746
H        0.25639483      -1.66178940      -1.20008806
H        0.10661474      -0.40895749       1.67120411
H        2.56107345      -0.40174975       0.90801137
H        1.87555172       1.21728290       1.05968383
H        1.45486512       0.97466183      -1.26993111
15
Frame=16 idx=001996 GeodesicLength=0.9323753571439999 rxn_smarts="[C:1]([N:2]1[C:3]([H:10])([H:11])[C@:4]1([C:5]([O:6][H:15])([H:13])[H:14])[H:12])([H:7])([H:8])[H:9]>>[C-:1]([N+:2]1=[C:3]([H:11])[C@:4]1([C:5]([O:6][H:15])([H:13])[H:14])[H:12])([H:7])[H:9].[H:8][H:10]"
C       -1.75206239       0.72199072      -0.17701448
N       -0.50637253       0.15893371      -0.34144640
C       -0.22293917      -1.20585807      -0.33494351
C        0.44455090      -0.31723276       0.64326138
C        1.82517924       0.28296261       0.47996946
O        2.17475924       0.49000240      -0.86512790
H       -2.21622259       0.95471981      -1.13298141
H       -2.52702568      -0.76333540       0.10533220
H       -1.74852754       1.60459222       0.45657985
H       -1.73579096      -1.65423521      -0.01170966
H        0.26435493      -1.65926069      -1.18797749
H        0.11046730      -0.40069580       1.67722070
H        2.56369968      -0.40269702       0.90198335
H        1.88098454       1.21719389       1.05637528
H        1.44494503       0.97291959      -1.26952136
